MODEL 1
REMARK VINA RESULT:      -6.7      0.000      0.000
REMARK  8 active torsions:
REMARK  status: ('A' for Active; 'I' for Inactive)
REMARK       I    between atoms: N_11  and  C_1 
REMARK    1  A    between atoms: N_22  and  C_8 
REMARK    2  A    between atoms: O_24  and  C_9 
REMARK    3  A    between atoms: O_25  and  C_10 
REMARK       I    between atoms: C_12  and  N_13 
REMARK    4  A    between atoms: O_16  and  C_12 
REMARK    5  A    between atoms: O_27  and  C_15 
REMARK    6  A    between atoms: C_26  and  O_16 
REMARK    7  A    between atoms: C_23  and  C_26 
REMARK    8  A    between atoms: O_28  and  C_23 
ROOT
HETATM    1  C   UNK N   1      27.231  17.979   4.596  0.00  0.00     0.682 A 
HETATM    2  N   UNK N   1      27.303  19.110   3.843  0.00  0.00    -0.176 N 
ATOM      3  HN  UNK N   1      28.214  19.477   3.572  1.00  0.00     0.186 HD
HETATM    4  C   UNK N   1      24.862  18.083   4.590  0.00  0.00     0.099 A 
HETATM    5  C   UNK N   1      24.920  19.258   3.821  0.00  0.00     0.041 A 
HETATM    6  N   UNK N   1      26.021  17.482   4.953  0.00  0.00    -0.188 N 
ATOM      7  HN  UNK N   1      25.982  16.631   5.513  1.00  0.00     0.184 HD
HETATM    8  C   UNK N   1      26.177  19.758   3.447  0.00  0.00     0.127 A 
HETATM    9  C   UNK N   1      23.607  17.546   4.983  0.00  0.00     0.132 A 
HETATM   10  C   UNK N   1      22.411  18.223   4.599  0.00  0.00     0.137 A 
HETATM   11  N   UNK N   1      28.414  17.338   5.045  0.00  0.00    -0.214 N 
HETATM   12  C   UNK N   1      31.689  15.087   6.239  0.00  0.00     0.362 C 
HETATM   13  N   UNK N   1      30.664  15.797   5.704  0.00  0.00    -0.325 N 
HETATM   14  C   UNK N   1      23.749  19.906   3.449  0.00  0.00     0.057 A 
HETATM   15  C   UNK N   1      22.500  19.417   3.825  0.00  0.00     0.105 A 
HETATM   16  C   UNK N   1      29.707  17.867   4.651  0.00  0.00     0.161 C 
HETATM   17  C   UNK N   1      28.314  16.160   5.884  0.00  0.00     0.161 C 
HETATM   18  C   UNK N   1      30.888  17.195   5.361  0.00  0.00     0.148 C 
HETATM   19  C   UNK N   1      29.381  15.177   5.463  0.00  0.00     0.148 C 
HETATM   20  O   UNK N   1      31.559  13.895   6.495  0.00  0.00    -0.238 OA
ENDROOT
BRANCH   8  21
HETATM   21  N   UNK N   1      26.287  20.934   2.673  0.00  0.00    -0.384 N 
HETATM   22  H   UNK N   1      26.111  21.811   3.082  0.00  0.00     0.157 HD
HETATM   23  H   UNK N   1      26.541  20.875   1.723  0.00  0.00     0.157 HD
ENDBRANCH   8  21
BRANCH   9  24
HETATM   24  O   UNK N   1      23.507  16.400   5.719  0.00  0.00    -0.351 OA
HETATM   25  C   UNK N   1      23.419  15.111   5.244  0.00  0.00     0.210 C 
ENDBRANCH   9  24
BRANCH  10  26
HETATM   26  O   UNK N   1      21.175  17.766   4.949  0.00  0.00    -0.351 OA
HETATM   27  C   UNK N   1      20.345  16.971   4.193  0.00  0.00     0.210 C 
ENDBRANCH  10  26
BRANCH  15  28
HETATM   28  O   UNK N   1      21.416  20.131   3.418  0.00  0.00    -0.353 OA
HETATM   29  C   UNK N   1      20.916  20.189   2.137  0.00  0.00     0.210 C 
ENDBRANCH  15  28
BRANCH  12  30
HETATM   30  O   UNK N   1      32.872  15.701   6.446  0.00  0.00    -0.301 OA
BRANCH  30  31
HETATM   31  C   UNK N   1      33.452  15.744   7.688  0.00  0.00     0.217 C 
BRANCH  31  32
HETATM   32  C   UNK N   1      33.859  17.188   7.976  0.00  0.00     0.072 C 
HETATM   33  C   UNK N   1      32.629  18.025   8.276  0.00  0.00     0.047 C 
HETATM   34  C   UNK N   1      34.786  17.225   9.170  0.00  0.00     0.047 C 
BRANCH  32  35
HETATM   35  O   UNK N   1      34.522  17.727   6.873  0.00  0.00    -0.388 OA
HETATM   36  H   UNK N   1      35.414  18.103   6.804  0.00  0.00     0.210 HD
ENDBRANCH  32  35
ENDBRANCH  31  32
ENDBRANCH  30  31
ENDBRANCH  12  30
TORSDOF 8
ENDMDL
MODEL 2
REMARK VINA RESULT:      -6.7      7.193     10.478
REMARK  8 active torsions:
REMARK  status: ('A' for Active; 'I' for Inactive)
REMARK       I    between atoms: N_11  and  C_1 
REMARK    1  A    between atoms: N_22  and  C_8 
REMARK    2  A    between atoms: O_24  and  C_9 
REMARK    3  A    between atoms: O_25  and  C_10 
REMARK       I    between atoms: C_12  and  N_13 
REMARK    4  A    between atoms: O_16  and  C_12 
REMARK    5  A    between atoms: O_27  and  C_15 
REMARK    6  A    between atoms: C_26  and  O_16 
REMARK    7  A    between atoms: C_23  and  C_26 
REMARK    8  A    between atoms: O_28  and  C_23 
ROOT
HETATM    1  C   UNK N   1      35.152  15.298   9.384  0.00  0.00     0.682 A 
HETATM    2  N   UNK N   1      34.956  16.645   9.414  0.00  0.00    -0.176 N 
ATOM      3  HN  UNK N   1      35.153  17.162  10.270  1.00  0.00     0.186 HD
HETATM    4  C   UNK N   1      34.447  15.212   7.120  0.00  0.00     0.099 A 
HETATM    5  C   UNK N   1      34.231  16.600   7.140  0.00  0.00     0.041 A 
HETATM    6  N   UNK N   1      34.901  14.605   8.245  0.00  0.00    -0.188 N 
ATOM      7  HN  UNK N   1      35.056  13.598   8.234  1.00  0.00     0.184 HD
HETATM    8  C   UNK N   1      34.505  17.309   8.319  0.00  0.00     0.127 A 
HETATM    9  C   UNK N   1      34.185  14.462   5.943  0.00  0.00     0.132 A 
HETATM   10  C   UNK N   1      33.685  15.136   4.788  0.00  0.00     0.137 A 
HETATM   11  N   UNK N   1      35.578  14.607  10.546  0.00  0.00    -0.214 N 
HETATM   12  C   UNK N   1      37.106  12.373  13.692  0.00  0.00     0.362 C 
HETATM   13  N   UNK N   1      36.737  13.184  12.668  0.00  0.00    -0.325 N 
HETATM   14  C   UNK N   1      33.749  17.246   6.008  0.00  0.00     0.057 A 
HETATM   15  C   UNK N   1      33.469  16.544   4.838  0.00  0.00     0.105 A 
HETATM   16  C   UNK N   1      35.857  15.354  11.760  0.00  0.00     0.161 C 
HETATM   17  C   UNK N   1      35.736  13.167  10.503  0.00  0.00     0.161 C 
HETATM   18  C   UNK N   1      36.120  14.465  12.980  0.00  0.00     0.148 C 
HETATM   19  C   UNK N   1      36.968  12.794  11.296  0.00  0.00     0.148 C 
HETATM   20  O   UNK N   1      37.674  11.309  13.474  0.00  0.00    -0.238 OA
ENDROOT
BRANCH   8  21
HETATM   21  N   UNK N   1      34.305  18.706   8.388  0.00  0.00    -0.384 N 
HETATM   22  H   UNK N   1      33.731  19.087   9.090  0.00  0.00     0.157 HD
HETATM   23  H   UNK N   1      34.741  19.297   7.733  0.00  0.00     0.157 HD
ENDBRANCH   8  21
BRANCH   9  24
HETATM   24  O   UNK N   1      34.394  13.114   5.879  0.00  0.00    -0.351 OA
HETATM   25  C   UNK N   1      33.474  12.118   6.114  0.00  0.00     0.210 C 
ENDBRANCH   9  24
BRANCH  10  26
HETATM   26  O   UNK N   1      33.406  14.476   3.629  0.00  0.00    -0.351 OA
HETATM   27  C   UNK N   1      34.274  14.230   2.590  0.00  0.00     0.210 C 
ENDBRANCH  10  26
BRANCH  15  28
HETATM   28  O   UNK N   1      32.992  17.269   3.789  0.00  0.00    -0.353 OA
HETATM   29  C   UNK N   1      31.707  17.236   3.298  0.00  0.00     0.210 C 
ENDBRANCH  15  28
BRANCH  12  30
HETATM   30  O   UNK N   1      36.876  12.774  14.959  0.00  0.00    -0.301 OA
BRANCH  30  31
HETATM   31  C   UNK N   1      36.113  12.030  15.822  0.00  0.00     0.217 C 
BRANCH  31  32
HETATM   32  C   UNK N   1      35.334  12.988  16.720  0.00  0.00     0.072 C 
HETATM   33  C   UNK N   1      35.141  12.373  18.094  0.00  0.00     0.047 C 
HETATM   34  C   UNK N   1      36.098  14.285  16.862  0.00  0.00     0.047 C 
BRANCH  32  35
HETATM   35  O   UNK N   1      34.084  13.259  16.160  0.00  0.00    -0.388 OA
HETATM   36  H   UNK N   1      33.494  14.018  16.290  0.00  0.00     0.210 HD
ENDBRANCH  32  35
ENDBRANCH  31  32
ENDBRANCH  30  31
ENDBRANCH  12  30
TORSDOF 8
ENDMDL
MODEL 3
REMARK VINA RESULT:      -6.6      8.379     12.212
REMARK  8 active torsions:
REMARK  status: ('A' for Active; 'I' for Inactive)
REMARK       I    between atoms: N_11  and  C_1 
REMARK    1  A    between atoms: N_22  and  C_8 
REMARK    2  A    between atoms: O_24  and  C_9 
REMARK    3  A    between atoms: O_25  and  C_10 
REMARK       I    between atoms: C_12  and  N_13 
REMARK    4  A    between atoms: O_16  and  C_12 
REMARK    5  A    between atoms: O_27  and  C_15 
REMARK    6  A    between atoms: C_26  and  O_16 
REMARK    7  A    between atoms: C_23  and  C_26 
REMARK    8  A    between atoms: O_28  and  C_23 
ROOT
HETATM    1  C   UNK N   1      34.916  13.800  12.014  0.00  0.00     0.682 A 
HETATM    2  N   UNK N   1      35.313  15.098  11.914  0.00  0.00    -0.176 N 
ATOM      3  HN  UNK N   1      35.820  15.529  12.686  1.00  0.00     0.186 HD
HETATM    4  C   UNK N   1      33.950  13.893   9.849  0.00  0.00     0.099 A 
HETATM    5  C   UNK N   1      34.345  15.237   9.736  0.00  0.00     0.041 A 
HETATM    6  N   UNK N   1      34.248  13.218  10.986  0.00  0.00    -0.188 N 
ATOM      7  HN  UNK N   1      33.960  12.244  11.072  1.00  0.00     0.184 HD
HETATM    8  C   UNK N   1      35.045  15.826  10.800  0.00  0.00     0.127 A 
HETATM    9  C   UNK N   1      33.243  13.263   8.790  0.00  0.00     0.132 A 
HETATM   10  C   UNK N   1      32.928  14.017   7.620  0.00  0.00     0.137 A 
HETATM   11  N   UNK N   1      35.158  13.062  13.200  0.00  0.00    -0.214 N 
HETATM   12  C   UNK N   1      35.997  10.578  16.416  0.00  0.00     0.362 C 
HETATM   13  N   UNK N   1      35.875  11.406  15.348  0.00  0.00    -0.325 N 
HETATM   14  C   UNK N   1      34.038  15.960   8.590  0.00  0.00     0.057 A 
HETATM   15  C   UNK N   1      33.336  15.381   7.536  0.00  0.00     0.105 A 
HETATM   16  C   UNK N   1      35.883  13.686  14.293  0.00  0.00     0.161 C 
HETATM   17  C   UNK N   1      34.686  11.696  13.301  0.00  0.00     0.161 C 
HETATM   18  C   UNK N   1      35.904  12.844  15.574  0.00  0.00     0.148 C 
HETATM   19  C   UNK N   1      35.737  10.875  14.011  0.00  0.00     0.148 C 
HETATM   20  O   UNK N   1      36.029   9.362  16.265  0.00  0.00    -0.238 OA
ENDROOT
BRANCH   8  21
HETATM   21  N   UNK N   1      35.465  17.173  10.733  0.00  0.00    -0.384 N 
HETATM   22  H   UNK N   1      35.114  17.764  10.029  0.00  0.00     0.157 HD
HETATM   23  H   UNK N   1      36.110  17.520  11.391  0.00  0.00     0.157 HD
ENDBRANCH   8  21
BRANCH   9  24
HETATM   24  O   UNK N   1      32.853  11.956   8.856  0.00  0.00    -0.351 OA
HETATM   25  C   UNK N   1      33.580  10.851   8.475  0.00  0.00     0.210 C 
ENDBRANCH   9  24
BRANCH  10  26
HETATM   26  O   UNK N   1      32.247  13.475   6.571  0.00  0.00    -0.351 OA
HETATM   27  C   UNK N   1      32.788  12.892   5.449  0.00  0.00     0.210 C 
ENDBRANCH  10  26
BRANCH  15  28
HETATM   28  O   UNK N   1      33.077  16.176   6.463  0.00  0.00    -0.353 OA
HETATM   29  C   UNK N   1      33.380  17.514   6.352  0.00  0.00     0.210 C 
ENDBRANCH  15  28
BRANCH  12  30
HETATM   30  O   UNK N   1      36.127  11.112  17.648  0.00  0.00    -0.301 OA
BRANCH  30  31
HETATM   31  C   UNK N   1      36.255  10.326  18.764  0.00  0.00     0.217 C 
BRANCH  31  32
HETATM   32  C   UNK N   1      35.706  11.100  19.960  0.00  0.00     0.072 C 
HETATM   33  C   UNK N   1      35.292  12.496  19.532  0.00  0.00     0.047 C 
HETATM   34  C   UNK N   1      34.504  10.378  20.525  0.00  0.00     0.047 C 
BRANCH  32  35
HETATM   35  O   UNK N   1      36.682  11.197  20.954  0.00  0.00    -0.388 OA
HETATM   36  H   UNK N   1      37.487  10.673  21.091  0.00  0.00     0.210 HD
ENDBRANCH  32  35
ENDBRANCH  31  32
ENDBRANCH  30  31
ENDBRANCH  12  30
TORSDOF 8
ENDMDL
MODEL 4
REMARK VINA RESULT:      -6.6      4.937      8.323
REMARK  8 active torsions:
REMARK  status: ('A' for Active; 'I' for Inactive)
REMARK       I    between atoms: N_11  and  C_1 
REMARK    1  A    between atoms: N_22  and  C_8 
REMARK    2  A    between atoms: O_24  and  C_9 
REMARK    3  A    between atoms: O_25  and  C_10 
REMARK       I    between atoms: C_12  and  N_13 
REMARK    4  A    between atoms: O_16  and  C_12 
REMARK    5  A    between atoms: O_27  and  C_15 
REMARK    6  A    between atoms: C_26  and  O_16 
REMARK    7  A    between atoms: C_23  and  C_26 
REMARK    8  A    between atoms: O_28  and  C_23 
ROOT
HETATM    1  C   UNK N   1      33.005  15.294   9.019  0.00  0.00     0.682 A 
HETATM    2  N   UNK N   1      32.591  16.552   9.333  0.00  0.00    -0.176 N 
ATOM      3  HN  UNK N   1      32.981  17.020  10.150  1.00  0.00     0.186 HD
HETATM    4  C   UNK N   1      31.571  15.257   7.129  0.00  0.00     0.099 A 
HETATM    5  C   UNK N   1      31.127  16.552   7.447  0.00  0.00     0.041 A 
HETATM    6  N   UNK N   1      32.497  14.669   7.928  0.00  0.00    -0.188 N 
ATOM      7  HN  UNK N   1      32.819  13.729   7.701  1.00  0.00     0.184 HD
HETATM    8  C   UNK N   1      31.668  17.194   8.572  0.00  0.00     0.127 A 
HETATM    9  C   UNK N   1      31.049  14.578   5.996  0.00  0.00     0.132 A 
HETATM   10  C   UNK N   1      30.059  15.223   5.196  0.00  0.00     0.137 A 
HETATM   11  N   UNK N   1      33.934  14.615   9.847  0.00  0.00    -0.214 N 
HETATM   12  C   UNK N   1      36.857  12.509  11.907  0.00  0.00     0.362 C 
HETATM   13  N   UNK N   1      36.008  13.305  11.208  0.00  0.00    -0.325 N 
HETATM   14  C   UNK N   1      30.167  17.172   6.658  0.00  0.00     0.057 A 
HETATM   15  C   UNK N   1      29.622  16.535   5.546  0.00  0.00     0.105 A 
HETATM   16  C   UNK N   1      34.484  15.291  11.009  0.00  0.00     0.161 C 
HETATM   17  C   UNK N   1      34.325  13.258   9.519  0.00  0.00     0.161 C 
HETATM   18  C   UNK N   1      35.320  14.378  11.912  0.00  0.00     0.148 C 
HETATM   19  C   UNK N   1      35.803  13.105   9.792  0.00  0.00     0.148 C 
HETATM   20  O   UNK N   1      37.495  11.627  11.343  0.00  0.00    -0.238 OA
ENDROOT
BRANCH   8  21
HETATM   21  N   UNK N   1      31.256  18.496   8.930  0.00  0.00    -0.384 N 
HETATM   22  H   UNK N   1      31.853  19.074   9.456  0.00  0.00     0.157 HD
HETATM   23  H   UNK N   1      30.370  18.825   8.654  0.00  0.00     0.157 HD
ENDBRANCH   8  21
BRANCH   9  24
HETATM   24  O   UNK N   1      31.463  13.325   5.647  0.00  0.00    -0.351 OA
HETATM   25  C   UNK N   1      32.511  12.997   4.816  0.00  0.00     0.210 C 
ENDBRANCH   9  24
BRANCH  10  26
HETATM   26  O   UNK N   1      29.512  14.626   4.100  0.00  0.00    -0.351 OA
HETATM   27  C   UNK N   1      29.912  14.776   2.792  0.00  0.00     0.210 C 
ENDBRANCH  10  26
BRANCH  15  28
HETATM   28  O   UNK N   1      28.681  17.224   4.845  0.00  0.00    -0.353 OA
HETATM   29  C   UNK N   1      28.436  18.576   4.928  0.00  0.00     0.210 C 
ENDBRANCH  15  28
BRANCH  12  30
HETATM   30  O   UNK N   1      37.023  12.729  13.227  0.00  0.00    -0.301 OA
BRANCH  30  31
HETATM   31  C   UNK N   1      36.495  11.885  14.169  0.00  0.00     0.217 C 
BRANCH  31  32
HETATM   32  C   UNK N   1      35.882  12.733  15.282  0.00  0.00     0.072 C 
HETATM   33  C   UNK N   1      35.848  11.944  16.579  0.00  0.00     0.047 C 
HETATM   34  C   UNK N   1      36.711  13.981  15.484  0.00  0.00     0.047 C 
BRANCH  32  35
HETATM   35  O   UNK N   1      34.581  13.105  14.938  0.00  0.00    -0.388 OA
HETATM   36  H   UNK N   1      33.871  13.471  15.488  0.00  0.00     0.210 HD
ENDBRANCH  32  35
ENDBRANCH  31  32
ENDBRANCH  30  31
ENDBRANCH  12  30
TORSDOF 8
ENDMDL
MODEL 5
REMARK VINA RESULT:      -6.5      4.102      6.840
REMARK  8 active torsions:
REMARK  status: ('A' for Active; 'I' for Inactive)
REMARK       I    between atoms: N_11  and  C_1 
REMARK    1  A    between atoms: N_22  and  C_8 
REMARK    2  A    between atoms: O_24  and  C_9 
REMARK    3  A    between atoms: O_25  and  C_10 
REMARK       I    between atoms: C_12  and  N_13 
REMARK    4  A    between atoms: O_16  and  C_12 
REMARK    5  A    between atoms: O_27  and  C_15 
REMARK    6  A    between atoms: C_26  and  O_16 
REMARK    7  A    between atoms: C_23  and  C_26 
REMARK    8  A    between atoms: O_28  and  C_23 
ROOT
HETATM    1  C   UNK N   1      32.362  16.322   8.264  0.00  0.00     0.682 A 
HETATM    2  N   UNK N   1      31.813  17.262   9.082  0.00  0.00    -0.176 N 
ATOM      3  HN  UNK N   1      32.290  17.518   9.945  1.00  0.00     0.186 HD
HETATM    4  C   UNK N   1      30.561  16.548   6.738  0.00  0.00     0.099 A 
HETATM    5  C   UNK N   1      29.976  17.512   7.578  0.00  0.00     0.041 A 
HETATM    6  N   UNK N   1      31.736  15.983   7.110  0.00  0.00    -0.188 N 
ATOM      7  HN  UNK N   1      32.161  15.282   6.504  1.00  0.00     0.184 HD
HETATM    8  C   UNK N   1      30.638  17.864   8.763  0.00  0.00     0.127 A 
HETATM    9  C   UNK N   1      29.921  16.169   5.527  0.00  0.00     0.132 A 
HETATM   10  C   UNK N   1      28.672  16.771   5.185  0.00  0.00     0.137 A 
HETATM   11  N   UNK N   1      33.564  15.666   8.630  0.00  0.00    -0.214 N 
HETATM   12  C   UNK N   1      37.216  13.807   9.289  0.00  0.00     0.362 C 
HETATM   13  N   UNK N   1      36.099  14.548   9.074  0.00  0.00    -0.325 N 
HETATM   14  C   UNK N   1      28.763  18.094   7.231  0.00  0.00     0.057 A 
HETATM   15  C   UNK N   1      28.100  17.741   6.058  0.00  0.00     0.105 A 
HETATM   16  C   UNK N   1      34.238  16.040   9.861  0.00  0.00     0.161 C 
HETATM   17  C   UNK N   1      34.107  14.636   7.766  0.00  0.00     0.161 C 
HETATM   18  C   UNK N   1      35.411  15.122  10.222  0.00  0.00     0.148 C 
HETATM   19  C   UNK N   1      35.611  14.778   7.734  0.00  0.00     0.148 C 
HETATM   20  O   UNK N   1      37.854  13.348   8.349  0.00  0.00    -0.238 OA
ENDROOT
BRANCH   8  21
HETATM   21  N   UNK N   1      30.092  18.828   9.638  0.00  0.00    -0.384 N 
HETATM   22  H   UNK N   1      29.336  19.387   9.346  0.00  0.00     0.157 HD
HETATM   23  H   UNK N   1      30.468  18.943  10.541  0.00  0.00     0.157 HD
ENDBRANCH   8  21
BRANCH   9  24
HETATM   24  O   UNK N   1      30.462  15.247   4.679  0.00  0.00    -0.351 OA
HETATM   25  C   UNK N   1      30.291  13.881   4.716  0.00  0.00     0.210 C 
ENDBRANCH   9  24
BRANCH  10  26
HETATM   26  O   UNK N   1      28.003  16.448   4.042  0.00  0.00    -0.351 OA
HETATM   27  C   UNK N   1      27.017  15.498   3.904  0.00  0.00     0.210 C 
ENDBRANCH  10  26
BRANCH  15  28
HETATM   28  O   UNK N   1      26.913  18.362   5.816  0.00  0.00    -0.353 OA
HETATM   29  C   UNK N   1      26.732  19.709   5.599  0.00  0.00     0.210 C 
ENDBRANCH  15  28
BRANCH  12  30
HETATM   30  O   UNK N   1      37.641  13.617  10.555  0.00  0.00    -0.301 OA
BRANCH  30  31
HETATM   31  C   UNK N   1      37.660  12.371  11.128  0.00  0.00     0.217 C 
BRANCH  31  32
HETATM   32  C   UNK N   1      36.984  12.462  12.495  0.00  0.00     0.072 C 
HETATM   33  C   UNK N   1      35.529  12.046  12.385  0.00  0.00     0.047 C 
HETATM   34  C   UNK N   1      37.689  11.548  13.471  0.00  0.00     0.047 C 
BRANCH  32  35
HETATM   35  O   UNK N   1      37.051  13.772  12.974  0.00  0.00    -0.388 OA
HETATM   36  H   UNK N   1      37.298  14.102  13.852  0.00  0.00     0.210 HD
ENDBRANCH  32  35
ENDBRANCH  31  32
ENDBRANCH  30  31
ENDBRANCH  12  30
TORSDOF 8
ENDMDL
MODEL 6
REMARK VINA RESULT:      -6.4      3.638      5.357
REMARK  8 active torsions:
REMARK  status: ('A' for Active; 'I' for Inactive)
REMARK       I    between atoms: N_11  and  C_1 
REMARK    1  A    between atoms: N_22  and  C_8 
REMARK    2  A    between atoms: O_24  and  C_9 
REMARK    3  A    between atoms: O_25  and  C_10 
REMARK       I    between atoms: C_12  and  N_13 
REMARK    4  A    between atoms: O_16  and  C_12 
REMARK    5  A    between atoms: O_27  and  C_15 
REMARK    6  A    between atoms: C_26  and  O_16 
REMARK    7  A    between atoms: C_23  and  C_26 
REMARK    8  A    between atoms: O_28  and  C_23 
ROOT
HETATM    1  C   UNK N   1      31.154  16.628   6.137  0.00  0.00     0.682 A 
HETATM    2  N   UNK N   1      31.038  16.280   4.826  0.00  0.00    -0.176 N 
ATOM      3  HN  UNK N   1      31.735  15.667   4.405  1.00  0.00     0.186 HD
HETATM    4  C   UNK N   1      29.172  17.925   6.003  0.00  0.00     0.099 A 
HETATM    5  C   UNK N   1      29.045  17.581   4.646  0.00  0.00     0.041 A 
HETATM    6  N   UNK N   1      30.225  17.437   6.704  0.00  0.00    -0.188 N 
ATOM      7  HN  UNK N   1      30.321  17.686   7.688  1.00  0.00     0.184 HD
HETATM    8  C   UNK N   1      30.006  16.736   4.071  0.00  0.00     0.127 A 
HETATM    9  C   UNK N   1      28.216  18.776   6.619  0.00  0.00     0.132 A 
HETATM   10  C   UNK N   1      27.136  19.287   5.838  0.00  0.00     0.137 A 
HETATM   11  N   UNK N   1      32.262  16.186   6.903  0.00  0.00    -0.214 N 
HETATM   12  C   UNK N   1      35.219  14.798   9.462  0.00  0.00     0.362 C 
HETATM   13  N   UNK N   1      34.213  15.105   8.605  0.00  0.00    -0.325 N 
HETATM   14  C   UNK N   1      27.987  18.081   3.897  0.00  0.00     0.057 A 
HETATM   15  C   UNK N   1      27.036  18.927   4.462  0.00  0.00     0.105 A 
HETATM   16  C   UNK N   1      33.249  15.312   6.295  0.00  0.00     0.161 C 
HETATM   17  C   UNK N   1      32.389  16.607   8.284  0.00  0.00     0.161 C 
HETATM   18  C   UNK N   1      34.481  15.072   7.174  0.00  0.00     0.148 C 
HETATM   19  C   UNK N   1      32.897  15.440   9.098  0.00  0.00     0.148 C 
HETATM   20  O   UNK N   1      35.023  14.764  10.672  0.00  0.00    -0.238 OA
ENDROOT
BRANCH   8  21
HETATM   21  N   UNK N   1      29.920  16.360   2.713  0.00  0.00    -0.384 N 
HETATM   22  H   UNK N   1      29.406  16.912   2.080  0.00  0.00     0.157 HD
HETATM   23  H   UNK N   1      30.375  15.546   2.398  0.00  0.00     0.157 HD
ENDBRANCH   8  21
BRANCH   9  24
HETATM   24  O   UNK N   1      28.297  19.123   7.937  0.00  0.00    -0.351 OA
HETATM   25  C   UNK N   1      28.100  18.304   9.026  0.00  0.00     0.210 C 
ENDBRANCH   9  24
BRANCH  10  26
HETATM   26  O   UNK N   1      26.190  20.113   6.366  0.00  0.00    -0.351 OA
HETATM   27  C   UNK N   1      26.312  21.463   6.603  0.00  0.00     0.210 C 
ENDBRANCH  10  26
BRANCH  15  28
HETATM   28  O   UNK N   1      26.045  19.370   3.641  0.00  0.00    -0.353 OA
HETATM   29  C   UNK N   1      26.030  20.563   2.957  0.00  0.00     0.210 C 
ENDBRANCH  15  28
BRANCH  12  30
HETATM   30  O   UNK N   1      36.433  14.487   8.962  0.00  0.00    -0.301 OA
BRANCH  30  31
HETATM   31  C   UNK N   1      36.959  13.227   9.082  0.00  0.00     0.217 C 
BRANCH  31  32
HETATM   32  C   UNK N   1      38.208  13.310   9.957  0.00  0.00     0.072 C 
HETATM   33  C   UNK N   1      37.936  12.686  11.313  0.00  0.00     0.047 C 
HETATM   34  C   UNK N   1      39.346  12.571   9.290  0.00  0.00     0.047 C 
BRANCH  32  35
HETATM   35  O   UNK N   1      38.579  14.645  10.133  0.00  0.00    -0.388 OA
HETATM   36  H   UNK N   1      38.625  15.177  10.942  0.00  0.00     0.210 HD
ENDBRANCH  32  35
ENDBRANCH  31  32
ENDBRANCH  30  31
ENDBRANCH  12  30
TORSDOF 8
ENDMDL
MODEL 7
REMARK VINA RESULT:      -6.3      2.697      4.004
REMARK  8 active torsions:
REMARK  status: ('A' for Active; 'I' for Inactive)
REMARK       I    between atoms: N_11  and  C_1 
REMARK    1  A    between atoms: N_22  and  C_8 
REMARK    2  A    between atoms: O_24  and  C_9 
REMARK    3  A    between atoms: O_25  and  C_10 
REMARK       I    between atoms: C_12  and  N_13 
REMARK    4  A    between atoms: O_16  and  C_12 
REMARK    5  A    between atoms: O_27  and  C_15 
REMARK    6  A    between atoms: C_26  and  O_16 
REMARK    7  A    between atoms: C_23  and  C_26 
REMARK    8  A    between atoms: O_28  and  C_23 
ROOT
HETATM    1  C   UNK N   1      29.565  17.335   6.542  0.00  0.00     0.682 A 
HETATM    2  N   UNK N   1      28.962  18.435   7.070  0.00  0.00    -0.176 N 
ATOM      3  HN  UNK N   1      29.429  18.957   7.810  1.00  0.00     0.186 HD
HETATM    4  C   UNK N   1      27.741  17.002   5.063  0.00  0.00     0.099 A 
HETATM    5  C   UNK N   1      27.101  18.130   5.606  0.00  0.00     0.041 A 
HETATM    6  N   UNK N   1      28.953  16.641   5.551  0.00  0.00    -0.188 N 
ATOM      7  HN  UNK N   1      29.418  15.821   5.160  1.00  0.00     0.184 HD
HETATM    8  C   UNK N   1      27.748  18.848   6.623  0.00  0.00     0.127 A 
HETATM    9  C   UNK N   1      27.117  16.254   4.029  0.00  0.00     0.132 A 
HETATM   10  C   UNK N   1      25.830  16.655   3.561  0.00  0.00     0.137 A 
HETATM   11  N   UNK N   1      30.810  16.884   7.049  0.00  0.00    -0.214 N 
HETATM   12  C   UNK N   1      34.579  15.517   8.118  0.00  0.00     0.362 C 
HETATM   13  N   UNK N   1      33.415  16.095   7.729  0.00  0.00    -0.325 N 
HETATM   14  C   UNK N   1      25.850  18.514   5.138  0.00  0.00     0.057 A 
HETATM   15  C   UNK N   1      25.202  17.799   4.134  0.00  0.00     0.105 A 
HETATM   16  C   UNK N   1      31.467  17.636   8.103  0.00  0.00     0.161 C 
HETATM   17  C   UNK N   1      31.412  15.684   6.503  0.00  0.00     0.161 C 
HETATM   18  C   UNK N   1      32.700  16.933   8.681  0.00  0.00     0.148 C 
HETATM   19  C   UNK N   1      32.903  15.901   6.392  0.00  0.00     0.148 C 
HETATM   20  O   UNK N   1      35.238  14.845   7.332  0.00  0.00    -0.238 OA
ENDROOT
BRANCH   8  21
HETATM   21  N   UNK N   1      27.148  19.989   7.198  0.00  0.00    -0.384 N 
HETATM   22  H   UNK N   1      26.711  20.658   6.624  0.00  0.00     0.157 HD
HETATM   23  H   UNK N   1      27.167  20.116   8.174  0.00  0.00     0.157 HD
ENDBRANCH   8  21
BRANCH   9  24
HETATM   24  O   UNK N   1      27.710  15.160   3.467  0.00  0.00    -0.351 OA
HETATM   25  C   UNK N   1      28.469  15.123   2.318  0.00  0.00     0.210 C 
ENDBRANCH   9  24
BRANCH  10  26
HETATM   26  O   UNK N   1      25.174  15.977   2.577  0.00  0.00    -0.351 OA
HETATM   27  C   UNK N   1      24.353  14.884   2.734  0.00  0.00     0.210 C 
ENDBRANCH  10  26
BRANCH  15  28
HETATM   28  O   UNK N   1      23.976  18.252   3.755  0.00  0.00    -0.353 OA
HETATM   29  C   UNK N   1      23.644  19.558   3.474  0.00  0.00     0.210 C 
ENDBRANCH  15  28
BRANCH  12  30
HETATM   30  O   UNK N   1      35.026  15.725   9.374  0.00  0.00    -0.301 OA
BRANCH  30  31
HETATM   31  C   UNK N   1      35.044  14.720  10.307  0.00  0.00     0.217 C 
BRANCH  31  32
HETATM   32  C   UNK N   1      36.356  14.812  11.084  0.00  0.00     0.072 C 
HETATM   33  C   UNK N   1      36.096  14.627  12.567  0.00  0.00     0.047 C 
HETATM   34  C   UNK N   1      37.304  13.734  10.609  0.00  0.00     0.047 C 
BRANCH  32  35
HETATM   35  O   UNK N   1      36.949  16.058  10.874  0.00  0.00    -0.388 OA
HETATM   36  H   UNK N   1      37.013  16.826  11.464  0.00  0.00     0.210 HD
ENDBRANCH  32  35
ENDBRANCH  31  32
ENDBRANCH  30  31
ENDBRANCH  12  30
TORSDOF 8
ENDMDL
MODEL 8
REMARK VINA RESULT:      -6.3      2.490      9.925
REMARK  8 active torsions:
REMARK  status: ('A' for Active; 'I' for Inactive)
REMARK       I    between atoms: N_11  and  C_1 
REMARK    1  A    between atoms: N_22  and  C_8 
REMARK    2  A    between atoms: O_24  and  C_9 
REMARK    3  A    between atoms: O_25  and  C_10 
REMARK       I    between atoms: C_12  and  N_13 
REMARK    4  A    between atoms: O_16  and  C_12 
REMARK    5  A    between atoms: O_27  and  C_15 
REMARK    6  A    between atoms: C_26  and  O_16 
REMARK    7  A    between atoms: C_23  and  C_26 
REMARK    8  A    between atoms: O_28  and  C_23 
ROOT
HETATM    1  C   UNK N   1      28.239  16.660   5.986  0.00  0.00     0.682 A 
HETATM    2  N   UNK N   1      28.074  17.130   7.253  0.00  0.00    -0.176 N 
ATOM      3  HN  UNK N   1      27.134  17.237   7.631  1.00  0.00     0.186 HD
HETATM    4  C   UNK N   1      30.596  16.819   6.197  0.00  0.00     0.099 A 
HETATM    5  C   UNK N   1      30.441  17.316   7.503  0.00  0.00     0.041 A 
HETATM    6  N   UNK N   1      29.488  16.508   5.481  0.00  0.00    -0.188 N 
ATOM      7  HN  UNK N   1      29.598  16.151   4.532  1.00  0.00     0.184 HD
HETATM    8  C   UNK N   1      29.145  17.459   8.021  0.00  0.00     0.127 A 
HETATM    9  C   UNK N   1      31.894  16.658   5.642  0.00  0.00     0.132 A 
HETATM   10  C   UNK N   1      33.033  17.020   6.422  0.00  0.00     0.137 A 
HETATM   11  N   UNK N   1      27.113  16.366   5.176  0.00  0.00    -0.214 N 
HETATM   12  C   UNK N   1      24.023  15.138   2.694  0.00  0.00     0.362 C 
HETATM   13  N   UNK N   1      24.985  15.433   3.604  0.00  0.00    -0.325 N 
HETATM   14  C   UNK N   1      31.558  17.660   8.255  0.00  0.00     0.057 A 
HETATM   15  C   UNK N   1      32.845  17.527   7.741  0.00  0.00     0.105 A 
HETATM   16  C   UNK N   1      25.778  16.520   5.725  0.00  0.00     0.161 C 
HETATM   17  C   UNK N   1      27.312  15.910   3.815  0.00  0.00     0.161 C 
HETATM   18  C   UNK N   1      24.664  16.354   4.686  0.00  0.00     0.148 C 
HETATM   19  C   UNK N   1      26.297  14.833   3.515  0.00  0.00     0.148 C 
HETATM   20  O   UNK N   1      24.235  14.330   1.797  0.00  0.00    -0.238 OA
ENDROOT
BRANCH   8  21
HETATM   21  N   UNK N   1      28.938  17.951   9.328  0.00  0.00    -0.384 N 
HETATM   22  H   UNK N   1      28.828  17.324  10.079  0.00  0.00     0.157 HD
HETATM   23  H   UNK N   1      28.903  18.921   9.488  0.00  0.00     0.157 HD
ENDBRANCH   8  21
BRANCH   9  24
HETATM   24  O   UNK N   1      32.087  16.167   4.382  0.00  0.00    -0.351 OA
HETATM   25  C   UNK N   1      32.214  16.891   3.218  0.00  0.00     0.210 C 
ENDBRANCH   9  24
BRANCH  10  26
HETATM   26  O   UNK N   1      34.304  16.897   5.946  0.00  0.00    -0.351 OA
HETATM   27  C   UNK N   1      35.054  15.745   5.886  0.00  0.00     0.210 C 
ENDBRANCH  10  26
BRANCH  15  28
HETATM   28  O   UNK N   1      33.870  17.901   8.554  0.00  0.00    -0.353 OA
HETATM   29  C   UNK N   1      34.601  17.071   9.373  0.00  0.00     0.210 C 
ENDBRANCH  15  28
BRANCH  12  30
HETATM   30  O   UNK N   1      22.810  15.717   2.813  0.00  0.00    -0.301 OA
BRANCH  30  31
HETATM   31  C   UNK N   1      21.709  15.221   2.163  0.00  0.00     0.217 C 
BRANCH  31  32
HETATM   32  C   UNK N   1      20.597  16.265   2.241  0.00  0.00     0.072 C 
HETATM   33  C   UNK N   1      21.069  17.472   3.029  0.00  0.00     0.047 C 
HETATM   34  C   UNK N   1      20.214  16.703   0.846  0.00  0.00     0.047 C 
BRANCH  32  35
HETATM   35  O   UNK N   1      19.474  15.720   2.867  0.00  0.00    -0.388 OA
HETATM   36  H   UNK N   1      18.538  15.761   2.615  0.00  0.00     0.210 HD
ENDBRANCH  32  35
ENDBRANCH  31  32
ENDBRANCH  30  31
ENDBRANCH  12  30
TORSDOF 8
ENDMDL
MODEL 9
REMARK VINA RESULT:      -6.2      3.642     11.150
REMARK  8 active torsions:
REMARK  status: ('A' for Active; 'I' for Inactive)
REMARK       I    between atoms: N_11  and  C_1 
REMARK    1  A    between atoms: N_22  and  C_8 
REMARK    2  A    between atoms: O_24  and  C_9 
REMARK    3  A    between atoms: O_25  and  C_10 
REMARK       I    between atoms: C_12  and  N_13 
REMARK    4  A    between atoms: O_16  and  C_12 
REMARK    5  A    between atoms: O_27  and  C_15 
REMARK    6  A    between atoms: C_26  and  O_16 
REMARK    7  A    between atoms: C_23  and  C_26 
REMARK    8  A    between atoms: O_28  and  C_23 
ROOT
HETATM    1  C   UNK N   1      32.762  15.907   7.939  0.00  0.00     0.682 A 
HETATM    2  N   UNK N   1      33.162  16.463   9.116  0.00  0.00    -0.176 N 
ATOM      3  HN  UNK N   1      32.551  17.127   9.591  1.00  0.00     0.186 HD
HETATM    4  C   UNK N   1      34.776  14.660   7.805  0.00  0.00     0.099 A 
HETATM    5  C   UNK N   1      35.206  15.235   9.013  0.00  0.00     0.041 A 
HETATM    6  N   UNK N   1      33.566  15.017   7.307  0.00  0.00    -0.188 N 
ATOM      7  HN  UNK N   1      33.252  14.603   6.429  1.00  0.00     0.184 HD
HETATM    8  C   UNK N   1      34.362  16.146   9.666  0.00  0.00     0.127 A 
HETATM    9  C   UNK N   1      35.602  13.731   7.119  0.00  0.00     0.132 A 
HETATM   10  C   UNK N   1      36.879  13.402   7.666  0.00  0.00     0.137 A 
HETATM   11  N   UNK N   1      31.529  16.281   7.349  0.00  0.00    -0.214 N 
HETATM   12  C   UNK N   1      27.850  16.953   5.551  0.00  0.00     0.362 C 
HETATM   13  N   UNK N   1      28.974  16.682   6.260  0.00  0.00    -0.325 N 
HETATM   14  C   UNK N   1      36.449  14.903   9.539  0.00  0.00     0.057 A 
HETATM   15  C   UNK N   1      37.293  14.005   8.890  0.00  0.00     0.105 A 
HETATM   16  C   UNK N   1      30.665  17.226   8.036  0.00  0.00     0.161 C 
HETATM   17  C   UNK N   1      31.144  15.710   6.074  0.00  0.00     0.161 C 
HETATM   18  C   UNK N   1      29.465  17.682   7.198  0.00  0.00     0.148 C 
HETATM   19  C   UNK N   1      29.661  15.420   6.104  0.00  0.00     0.148 C 
HETATM   20  O   UNK N   1      27.374  16.120   4.788  0.00  0.00    -0.238 OA
ENDROOT
BRANCH   8  21
HETATM   21  N   UNK N   1      34.749  16.748  10.883  0.00  0.00    -0.384 N 
HETATM   22  H   UNK N   1      35.646  17.141  10.975  0.00  0.00     0.157 HD
HETATM   23  H   UNK N   1      34.120  16.774  11.640  0.00  0.00     0.157 HD
ENDBRANCH   8  21
BRANCH   9  24
HETATM   24  O   UNK N   1      35.216  13.142   5.949  0.00  0.00    -0.351 OA
HETATM   25  C   UNK N   1      34.472  11.992   5.804  0.00  0.00     0.210 C 
ENDBRANCH   9  24
BRANCH  10  26
HETATM   26  O   UNK N   1      37.724  12.524   7.055  0.00  0.00    -0.351 OA
HETATM   27  C   UNK N   1      37.792  11.165   7.261  0.00  0.00     0.210 C 
ENDBRANCH  10  26
BRANCH  15  28
HETATM   28  O   UNK N   1      38.492  13.755   9.482  0.00  0.00    -0.353 OA
HETATM   29  C   UNK N   1      38.705  12.942  10.571  0.00  0.00     0.210 C 
ENDBRANCH  15  28
BRANCH  12  30
HETATM   30  O   UNK N   1      27.235  18.141   5.727  0.00  0.00    -0.301 OA
BRANCH  30  31
HETATM   31  C   UNK N   1      26.398  18.667   4.776  0.00  0.00     0.217 C 
BRANCH  31  32
HETATM   32  C   UNK N   1      26.974  20.005   4.318  0.00  0.00     0.072 C 
HETATM   33  C   UNK N   1      26.160  20.554   3.161  0.00  0.00     0.047 C 
HETATM   34  C   UNK N   1      26.935  20.992   5.463  0.00  0.00     0.047 C 
BRANCH  32  35
HETATM   35  O   UNK N   1      28.299  19.840   3.909  0.00  0.00    -0.388 OA
HETATM   36  H   UNK N   1      28.689  19.896   3.023  0.00  0.00     0.210 HD
ENDBRANCH  32  35
ENDBRANCH  31  32
ENDBRANCH  30  31
ENDBRANCH  12  30
TORSDOF 8
ENDMDL
