MODEL 1
REMARK VINA RESULT:      -8.0      0.000      0.000
REMARK  5 active torsions:
REMARK  status: ('A' for Active; 'I' for Inactive)
REMARK    1  A    between atoms: C_2  and  O_19 
REMARK    2  A    between atoms: C_9  and  C_11 
REMARK    3  A    between atoms: C_11  and  C_12 
REMARK    4  A    between atoms: O_19  and  C_20 
REMARK    5  A    between atoms: C_20  and  C_21 
ROOT
HETATM    1  C   UNK N   1      28.759  18.124   8.397  0.00  0.00     0.037 A 
HETATM    2  C   UNK N   1      28.516  18.043   7.015  0.00  0.00     0.070 A 
HETATM    3  C   UNK N   1      29.526  17.564   6.175  0.00  0.00     0.049 A 
HETATM    4  C   UNK N   1      30.745  17.154   6.693  0.00  0.00    -0.023 A 
HETATM    5  C   UNK N   1      30.999  17.215   8.081  0.00  0.00    -0.025 A 
HETATM    6  C   UNK N   1      29.997  17.713   8.930  0.00  0.00     0.015 A 
HETATM    7  C   UNK N   1      31.699  16.651   5.828  0.00  0.00     0.013 A 
HETATM    8  C   UNK N   1      32.896  16.172   6.328  0.00  0.00     0.008 A 
HETATM    9  C   UNK N   1      33.194  16.209   7.688  0.00  0.00    -0.056 A 
HETATM   10  C   UNK N   1      32.235  16.742   8.582  0.00  0.00     0.019 A 
ENDROOT
BRANCH   2  11
HETATM   11  O   UNK N   1      27.314  18.413   6.504  0.00  0.00    -0.347 OA
BRANCH  11  12
HETATM   12  C   UNK N   1      26.815  17.851   5.340  0.00  0.00     0.217 C 
BRANCH  12  13
HETATM   13  C   UNK N   1      26.054  18.801   4.459  0.00  0.00     0.004 A 
HETATM   14  C   UNK N   1      26.664  19.843   3.729  0.00  0.00     0.124 A 
HETATM   15  C   UNK N   1      25.883  20.683   2.927  0.00  0.00     0.043 A 
HETATM   16  F   UNK N   1      28.002  20.053   3.784  0.00  0.00    -0.205 F 
HETATM   17  C   UNK N   1      24.501  20.496   2.846  0.00  0.00     0.003 A 
HETATM   18  C   UNK N   1      23.893  19.468   3.568  0.00  0.00     0.001 A 
HETATM   19  C   UNK N   1      24.666  18.626   4.369  0.00  0.00     0.012 A 
ENDBRANCH  12  13
ENDBRANCH  11  12
ENDBRANCH   2  11
BRANCH   9  20
HETATM   20  C   UNK N   1      34.468  15.544   8.177  0.00  0.00     0.063 C 
BRANCH  20  21
HETATM   21  C   UNK N   1      34.583  15.351   9.711  0.00  0.00     0.153 A 
HETATM   22  C   UNK N   1      35.617  16.226  10.404  0.00  0.00     0.239 A 
HETATM   23  N   UNK N   1      36.531  15.603  11.155  0.00  0.00    -0.287 N 
HETATM   24  O   UNK N   1      35.593  17.446  10.372  0.00  0.00    -0.272 OA
HETATM   25  C   UNK N   1      36.411  14.277  11.141  0.00  0.00     0.287 A 
HETATM   26  H   UNK N   1      37.225  16.078  11.669  0.00  0.00     0.172 HD
HETATM   27  S   UNK N   1      35.125  13.620  10.083  0.00  0.00    -0.054 SA
HETATM   28  O   UNK N   1      37.118  13.572  11.844  0.00  0.00    -0.260 OA
ENDBRANCH  20  21
ENDBRANCH   9  20
TORSDOF 5
ENDMDL
MODEL 2
REMARK VINA RESULT:      -7.9      1.995      2.806
REMARK  5 active torsions:
REMARK  status: ('A' for Active; 'I' for Inactive)
REMARK    1  A    between atoms: C_2  and  O_19 
REMARK    2  A    between atoms: C_9  and  C_11 
REMARK    3  A    between atoms: C_11  and  C_12 
REMARK    4  A    between atoms: O_19  and  C_20 
REMARK    5  A    between atoms: C_20  and  C_21 
ROOT
HETATM    1  C   UNK N   1      31.926  17.789   4.173  0.00  0.00     0.037 A 
HETATM    2  C   UNK N   1      30.736  17.078   4.404  0.00  0.00     0.070 A 
HETATM    3  C   UNK N   1      30.733  16.051   5.353  0.00  0.00     0.049 A 
HETATM    4  C   UNK N   1      31.877  15.747   6.074  0.00  0.00    -0.023 A 
HETATM    5  C   UNK N   1      33.076  16.462   5.865  0.00  0.00    -0.025 A 
HETATM    6  C   UNK N   1      33.095  17.483   4.899  0.00  0.00     0.015 A 
HETATM    7  C   UNK N   1      31.814  14.749   7.030  0.00  0.00     0.013 A 
HETATM    8  C   UNK N   1      32.923  14.474   7.810  0.00  0.00     0.008 A 
HETATM    9  C   UNK N   1      34.128  15.152   7.643  0.00  0.00    -0.056 A 
HETATM   10  C   UNK N   1      34.212  16.159   6.653  0.00  0.00     0.019 A 
ENDROOT
BRANCH   2  11
HETATM   11  O   UNK N   1      29.603  17.391   3.725  0.00  0.00    -0.347 OA
BRANCH  11  12
HETATM   12  C   UNK N   1      28.358  17.346   4.329  0.00  0.00     0.217 C 
BRANCH  12  13
HETATM   13  C   UNK N   1      27.996  18.573   5.116  0.00  0.00     0.004 A 
HETATM   14  C   UNK N   1      27.533  19.767   4.524  0.00  0.00     0.124 A 
HETATM   15  C   UNK N   1      27.212  20.866   5.330  0.00  0.00     0.043 A 
HETATM   16  F   UNK N   1      27.390  19.879   3.181  0.00  0.00    -0.205 F 
HETATM   17  C   UNK N   1      27.347  20.787   6.718  0.00  0.00     0.003 A 
HETATM   18  C   UNK N   1      27.806  19.608   7.307  0.00  0.00     0.001 A 
HETATM   19  C   UNK N   1      28.127  18.507   6.509  0.00  0.00     0.012 A 
ENDBRANCH  12  13
ENDBRANCH  11  12
ENDBRANCH   2  11
BRANCH   9  20
HETATM   20  C   UNK N   1      35.257  14.890   8.622  0.00  0.00     0.063 C 
BRANCH  20  21
HETATM   21  C   UNK N   1      34.914  15.095  10.120  0.00  0.00     0.153 A 
HETATM   22  C   UNK N   1      35.797  16.087  10.862  0.00  0.00     0.239 A 
HETATM   23  N   UNK N   1      36.391  15.652  11.979  0.00  0.00    -0.287 N 
HETATM   24  O   UNK N   1      35.912  17.258  10.536  0.00  0.00    -0.272 OA
HETATM   25  C   UNK N   1      36.140  14.371  12.244  0.00  0.00     0.287 A 
HETATM   26  H   UNK N   1      36.958  16.221  12.548  0.00  0.00     0.172 HD
HETATM   27  S   UNK N   1      35.143  13.503  11.037  0.00  0.00    -0.054 SA
HETATM   28  O   UNK N   1      36.541  13.849  13.273  0.00  0.00    -0.260 OA
ENDBRANCH  20  21
ENDBRANCH   9  20
TORSDOF 5
ENDMDL
MODEL 3
REMARK VINA RESULT:      -7.9     12.277     13.503
REMARK  5 active torsions:
REMARK  status: ('A' for Active; 'I' for Inactive)
REMARK    1  A    between atoms: C_2  and  O_19 
REMARK    2  A    between atoms: C_9  and  C_11 
REMARK    3  A    between atoms: C_11  and  C_12 
REMARK    4  A    between atoms: O_19  and  C_20 
REMARK    5  A    between atoms: C_20  and  C_21 
ROOT
HETATM    1  C   UNK N   1      28.568  21.827  -6.934  0.00  0.00     0.037 A 
HETATM    2  C   UNK N   1      28.258  22.921  -6.107  0.00  0.00     0.070 A 
HETATM    3  C   UNK N   1      29.031  23.147  -4.964  0.00  0.00     0.049 A 
HETATM    4  C   UNK N   1      30.101  22.322  -4.655  0.00  0.00    -0.023 A 
HETATM    5  C   UNK N   1      30.433  21.228  -5.484  0.00  0.00    -0.025 A 
HETATM    6  C   UNK N   1      29.651  20.980  -6.624  0.00  0.00     0.015 A 
HETATM    7  C   UNK N   1      30.860  22.609  -3.535  0.00  0.00     0.013 A 
HETATM    8  C   UNK N   1      31.973  21.841  -3.244  0.00  0.00     0.008 A 
HETATM    9  C   UNK N   1      32.343  20.753  -4.030  0.00  0.00    -0.056 A 
HETATM   10  C   UNK N   1      31.562  20.435  -5.166  0.00  0.00     0.019 A 
ENDROOT
BRANCH   2  11
HETATM   11  O   UNK N   1      27.232  23.753  -6.420  0.00  0.00    -0.347 OA
BRANCH  11  12
HETATM   12  C   UNK N   1      26.131  23.892  -5.592  0.00  0.00     0.217 C 
BRANCH  12  13
HETATM   13  C   UNK N   1      25.962  25.261  -4.995  0.00  0.00     0.004 A 
HETATM   14  C   UNK N   1      26.433  25.611  -3.712  0.00  0.00     0.124 A 
HETATM   15  C   UNK N   1      26.239  26.911  -3.229  0.00  0.00     0.043 A 
HETATM   16  F   UNK N   1      27.074  24.712  -2.925  0.00  0.00    -0.205 F 
HETATM   17  C   UNK N   1      25.583  27.864  -4.012  0.00  0.00     0.003 A 
HETATM   18  C   UNK N   1      25.114  27.520  -5.281  0.00  0.00     0.001 A 
HETATM   19  C   UNK N   1      25.305  26.226  -5.769  0.00  0.00     0.012 A 
ENDBRANCH  12  13
ENDBRANCH  11  12
ENDBRANCH   2  11
BRANCH   9  20
HETATM   20  C   UNK N   1      33.649  20.041  -3.727  0.00  0.00     0.063 C 
BRANCH  20  21
HETATM   21  C   UNK N   1      34.123  19.016  -4.789  0.00  0.00     0.153 A 
HETATM   22  C   UNK N   1      34.737  17.739  -4.236  0.00  0.00     0.239 A 
HETATM   23  N   UNK N   1      35.957  17.413  -4.676  0.00  0.00    -0.287 N 
HETATM   24  O   UNK N   1      34.139  16.975  -3.495  0.00  0.00    -0.272 OA
HETATM   25  C   UNK N   1      36.469  18.309  -5.518  0.00  0.00     0.287 A 
HETATM   26  H   UNK N   1      36.430  16.593  -4.404  0.00  0.00     0.172 HD
HETATM   27  S   UNK N   1      35.469  19.762  -5.819  0.00  0.00    -0.054 SA
HETATM   28  O   UNK N   1      37.540  18.112  -6.072  0.00  0.00    -0.260 OA
ENDBRANCH  20  21
ENDBRANCH   9  20
TORSDOF 5
ENDMDL
MODEL 4
REMARK VINA RESULT:      -7.8      9.890     14.195
REMARK  5 active torsions:
REMARK  status: ('A' for Active; 'I' for Inactive)
REMARK    1  A    between atoms: C_2  and  O_19 
REMARK    2  A    between atoms: C_9  and  C_11 
REMARK    3  A    between atoms: C_11  and  C_12 
REMARK    4  A    between atoms: O_19  and  C_20 
REMARK    5  A    between atoms: C_20  and  C_21 
ROOT
HETATM    1  C   UNK N   1      35.280  12.015  19.072  0.00  0.00     0.037 A 
HETATM    2  C   UNK N   1      35.069  10.626  19.013  0.00  0.00     0.070 A 
HETATM    3  C   UNK N   1      34.813  10.032  17.774  0.00  0.00     0.049 A 
HETATM    4  C   UNK N   1      34.786  10.790  16.614  0.00  0.00    -0.023 A 
HETATM    5  C   UNK N   1      35.011  12.184  16.655  0.00  0.00    -0.025 A 
HETATM    6  C   UNK N   1      35.249  12.794  17.898  0.00  0.00     0.015 A 
HETATM    7  C   UNK N   1      34.568  10.152  15.407  0.00  0.00     0.013 A 
HETATM    8  C   UNK N   1      34.604  10.876  14.229  0.00  0.00     0.008 A 
HETATM    9  C   UNK N   1      34.823  12.252  14.217  0.00  0.00    -0.056 A 
HETATM   10  C   UNK N   1      35.025  12.921  15.447  0.00  0.00     0.019 A 
ENDROOT
BRANCH   2  11
HETATM   11  O   UNK N   1      35.126   9.872  20.140  0.00  0.00    -0.347 OA
BRANCH  11  12
HETATM   12  C   UNK N   1      34.019   9.697  20.954  0.00  0.00     0.217 C 
BRANCH  12  13
HETATM   13  C   UNK N   1      33.063   8.632  20.496  0.00  0.00     0.004 A 
HETATM   14  C   UNK N   1      33.474   7.352  20.068  0.00  0.00     0.124 A 
HETATM   15  C   UNK N   1      32.519   6.414  19.660  0.00  0.00     0.043 A 
HETATM   16  F   UNK N   1      34.784   7.003  20.041  0.00  0.00    -0.205 F 
HETATM   17  C   UNK N   1      31.160   6.737  19.675  0.00  0.00     0.003 A 
HETATM   18  C   UNK N   1      30.750   8.004  20.096  0.00  0.00     0.001 A 
HETATM   19  C   UNK N   1      31.697   8.944  20.505  0.00  0.00     0.012 A 
ENDBRANCH  12  13
ENDBRANCH  11  12
ENDBRANCH   2  11
BRANCH   9  20
HETATM   20  C   UNK N   1      34.983  12.956  12.882  0.00  0.00     0.063 C 
BRANCH  20  21
HETATM   21  C   UNK N   1      36.372  13.589  12.614  0.00  0.00     0.153 A 
HETATM   22  C   UNK N   1      36.387  14.729  11.607  0.00  0.00     0.239 A 
HETATM   23  N   UNK N   1      37.232  14.617  10.577  0.00  0.00    -0.287 N 
HETATM   24  O   UNK N   1      35.739  15.755  11.746  0.00  0.00    -0.272 OA
HETATM   25  C   UNK N   1      37.913  13.471  10.577  0.00  0.00     0.287 A 
HETATM   26  H   UNK N   1      37.341  15.311   9.887  0.00  0.00     0.172 HD
HETATM   27  S   UNK N   1      37.507  12.320  11.885  0.00  0.00    -0.054 SA
HETATM   28  O   UNK N   1      38.785  13.256   9.749  0.00  0.00    -0.260 OA
ENDBRANCH  20  21
ENDBRANCH   9  20
TORSDOF 5
ENDMDL
MODEL 5
REMARK VINA RESULT:      -7.8      9.685     15.118
REMARK  5 active torsions:
REMARK  status: ('A' for Active; 'I' for Inactive)
REMARK    1  A    between atoms: C_2  and  O_19 
REMARK    2  A    between atoms: C_9  and  C_11 
REMARK    3  A    between atoms: C_11  and  C_12 
REMARK    4  A    between atoms: O_19  and  C_20 
REMARK    5  A    between atoms: C_20  and  C_21 
ROOT
HETATM    1  C   UNK N   1      35.111   9.497  19.525  0.00  0.00     0.037 A 
HETATM    2  C   UNK N   1      34.672  10.555  20.339  0.00  0.00     0.070 A 
HETATM    3  C   UNK N   1      34.755  11.864  19.854  0.00  0.00     0.049 A 
HETATM    4  C   UNK N   1      35.245  12.120  18.583  0.00  0.00    -0.023 A 
HETATM    5  C   UNK N   1      35.677  11.067  17.748  0.00  0.00    -0.025 A 
HETATM    6  C   UNK N   1      35.615   9.750  18.233  0.00  0.00     0.015 A 
HETATM    7  C   UNK N   1      35.272  13.428  18.132  0.00  0.00     0.013 A 
HETATM    8  C   UNK N   1      35.692  13.702  16.843  0.00  0.00     0.008 A 
HETATM    9  C   UNK N   1      36.126  12.698  15.980  0.00  0.00    -0.056 A 
HETATM   10  C   UNK N   1      36.124  11.359  16.437  0.00  0.00     0.019 A 
ENDROOT
BRANCH   2  11
HETATM   11  O   UNK N   1      34.161  10.309  21.572  0.00  0.00    -0.347 OA
BRANCH  11  12
HETATM   12  C   UNK N   1      32.795  10.275  21.800  0.00  0.00     0.217 C 
BRANCH  12  13
HETATM   13  C   UNK N   1      32.143   8.953  21.510  0.00  0.00     0.004 A 
HETATM   14  C   UNK N   1      32.235   7.836  22.368  0.00  0.00     0.124 A 
HETATM   15  C   UNK N   1      31.593   6.640  22.027  0.00  0.00     0.043 A 
HETATM   16  F   UNK N   1      32.936   7.894  23.527  0.00  0.00    -0.205 F 
HETATM   17  C   UNK N   1      30.862   6.545  20.841  0.00  0.00     0.003 A 
HETATM   18  C   UNK N   1      30.770   7.646  19.989  0.00  0.00     0.001 A 
HETATM   19  C   UNK N   1      31.406   8.843  20.323  0.00  0.00     0.012 A 
ENDBRANCH  12  13
ENDBRANCH  11  12
ENDBRANCH   2  11
BRANCH   9  20
HETATM   20  C   UNK N   1      36.444  13.057  14.540  0.00  0.00     0.063 C 
BRANCH  20  21
HETATM   21  C   UNK N   1      35.221  13.320  13.624  0.00  0.00     0.153 A 
HETATM   22  C   UNK N   1      34.680  12.102  12.892  0.00  0.00     0.239 A 
HETATM   23  N   UNK N   1      34.568  12.195  11.562  0.00  0.00    -0.287 N 
HETATM   24  O   UNK N   1      34.272  11.103  13.463  0.00  0.00    -0.272 OA
HETATM   25  C   UNK N   1      35.002  13.357  11.077  0.00  0.00     0.287 A 
HETATM   26  H   UNK N   1      34.202  11.476  10.998  0.00  0.00     0.172 HD
HETATM   27  S   UNK N   1      35.695  14.494  12.273  0.00  0.00    -0.054 SA
HETATM   28  O   UNK N   1      34.887  13.627   9.891  0.00  0.00    -0.260 OA
ENDBRANCH  20  21
ENDBRANCH   9  20
TORSDOF 5
ENDMDL
MODEL 6
REMARK VINA RESULT:      -7.7      8.677     14.237
REMARK  5 active torsions:
REMARK  status: ('A' for Active; 'I' for Inactive)
REMARK    1  A    between atoms: C_2  and  O_19 
REMARK    2  A    between atoms: C_9  and  C_11 
REMARK    3  A    between atoms: C_11  and  C_12 
REMARK    4  A    between atoms: O_19  and  C_20 
REMARK    5  A    between atoms: C_20  and  C_21 
ROOT
HETATM    1  C   UNK N   1      35.273  12.217  19.258  0.00  0.00     0.037 A 
HETATM    2  C   UNK N   1      35.631  10.882  19.004  0.00  0.00     0.070 A 
HETATM    3  C   UNK N   1      35.936  10.499  17.694  0.00  0.00     0.049 A 
HETATM    4  C   UNK N   1      35.907  11.421  16.659  0.00  0.00    -0.023 A 
HETATM    5  C   UNK N   1      35.563  12.769  16.901  0.00  0.00    -0.025 A 
HETATM    6  C   UNK N   1      35.236  13.159  18.210  0.00  0.00     0.015 A 
HETATM    7  C   UNK N   1      36.253  11.004  15.387  0.00  0.00     0.013 A 
HETATM    8  C   UNK N   1      36.298  11.920  14.352  0.00  0.00     0.008 A 
HETATM    9  C   UNK N   1      35.969  13.260  14.538  0.00  0.00    -0.056 A 
HETATM   10  C   UNK N   1      35.591  13.695  15.831  0.00  0.00     0.019 A 
ENDROOT
BRANCH   2  11
HETATM   11  O   UNK N   1      35.694   9.980  20.017  0.00  0.00    -0.347 OA
BRANCH  11  12
HETATM   12  C   UNK N   1      34.688   9.880  20.963  0.00  0.00     0.217 C 
BRANCH  12  13
HETATM   13  C   UNK N   1      33.561   8.959  20.588  0.00  0.00     0.004 A 
HETATM   14  C   UNK N   1      32.220   9.179  20.965  0.00  0.00     0.124 A 
HETATM   15  C   UNK N   1      31.227   8.274  20.571  0.00  0.00     0.043 A 
HETATM   16  F   UNK N   1      31.863  10.257  21.707  0.00  0.00    -0.205 F 
HETATM   17  C   UNK N   1      31.558   7.153  19.806  0.00  0.00     0.003 A 
HETATM   18  C   UNK N   1      32.884   6.931  19.433  0.00  0.00     0.001 A 
HETATM   19  C   UNK N   1      33.879   7.830  19.821  0.00  0.00     0.012 A 
ENDBRANCH  12  13
ENDBRANCH  11  12
ENDBRANCH   2  11
BRANCH   9  20
HETATM   20  C   UNK N   1      36.170  14.231  13.389  0.00  0.00     0.063 C 
BRANCH  20  21
HETATM   21  C   UNK N   1      35.837  13.685  11.977  0.00  0.00     0.153 A 
HETATM   22  C   UNK N   1      37.004  13.645  11.001  0.00  0.00     0.239 A 
HETATM   23  N   UNK N   1      36.831  14.261   9.827  0.00  0.00    -0.287 N 
HETATM   24  O   UNK N   1      38.029  13.016  11.206  0.00  0.00    -0.272 OA
HETATM   25  C   UNK N   1      35.648  14.864   9.716  0.00  0.00     0.287 A 
HETATM   26  H   UNK N   1      37.511  14.269   9.114  0.00  0.00     0.172 HD
HETATM   27  S   UNK N   1      34.593  14.784  11.160  0.00  0.00    -0.054 SA
HETATM   28  O   UNK N   1      35.308  15.397   8.672  0.00  0.00    -0.260 OA
ENDBRANCH  20  21
ENDBRANCH   9  20
TORSDOF 5
ENDMDL
MODEL 7
REMARK VINA RESULT:      -7.6     12.927     14.574
REMARK  5 active torsions:
REMARK  status: ('A' for Active; 'I' for Inactive)
REMARK    1  A    between atoms: C_2  and  O_19 
REMARK    2  A    between atoms: C_9  and  C_11 
REMARK    3  A    between atoms: C_11  and  C_12 
REMARK    4  A    between atoms: O_19  and  C_20 
REMARK    5  A    between atoms: C_20  and  C_21 
ROOT
HETATM    1  C   UNK N   1      27.226  24.739  -3.637  0.00  0.00     0.037 A 
HETATM    2  C   UNK N   1      26.634  24.645  -4.908  0.00  0.00     0.070 A 
HETATM    3  C   UNK N   1      27.199  23.788  -5.857  0.00  0.00     0.049 A 
HETATM    4  C   UNK N   1      28.314  23.024  -5.550  0.00  0.00    -0.023 A 
HETATM    5  C   UNK N   1      28.911  23.097  -4.273  0.00  0.00    -0.025 A 
HETATM    6  C   UNK N   1      28.363  23.970  -3.318  0.00  0.00     0.015 A 
HETATM    7  C   UNK N   1      28.813  22.161  -6.509  0.00  0.00     0.013 A 
HETATM    8  C   UNK N   1      29.883  21.339  -6.203  0.00  0.00     0.008 A 
HETATM    9  C   UNK N   1      30.506  21.372  -4.958  0.00  0.00    -0.056 A 
HETATM   10  C   UNK N   1      30.019  22.267  -3.976  0.00  0.00     0.019 A 
ENDROOT
BRANCH   2  11
HETATM   11  O   UNK N   1      25.523  25.365  -5.206  0.00  0.00    -0.347 OA
BRANCH  11  12
HETATM   12  C   UNK N   1      25.510  26.288  -6.239  0.00  0.00     0.217 C 
BRANCH  12  13
HETATM   13  C   UNK N   1      26.341  27.516  -5.996  0.00  0.00     0.004 A 
HETATM   14  C   UNK N   1      26.174  28.358  -4.876  0.00  0.00     0.124 A 
HETATM   15  C   UNK N   1      26.994  29.482  -4.722  0.00  0.00     0.043 A 
HETATM   16  F   UNK N   1      25.231  28.103  -3.937  0.00  0.00    -0.205 F 
HETATM   17  C   UNK N   1      27.976  29.775  -5.670  0.00  0.00     0.003 A 
HETATM   18  C   UNK N   1      28.143  28.946  -6.780  0.00  0.00     0.001 A 
HETATM   19  C   UNK N   1      27.330  27.822  -6.940  0.00  0.00     0.012 A 
ENDBRANCH  12  13
ENDBRANCH  11  12
ENDBRANCH   2  11
BRANCH   9  20
HETATM   20  C   UNK N   1      31.584  20.349  -4.652  0.00  0.00     0.063 C 
BRANCH  20  21
HETATM   21  C   UNK N   1      32.987  20.648  -5.240  0.00  0.00     0.153 A 
HETATM   22  C   UNK N   1      33.470  19.675  -6.305  0.00  0.00     0.239 A 
HETATM   23  N   UNK N   1      34.660  19.099  -6.104  0.00  0.00    -0.287 N 
HETATM   24  O   UNK N   1      32.870  19.472  -7.349  0.00  0.00    -0.272 OA
HETATM   25  C   UNK N   1      35.226  19.449  -4.950  0.00  0.00     0.287 A 
HETATM   26  H   UNK N   1      35.076  18.479  -6.745  0.00  0.00     0.172 HD
HETATM   27  S   UNK N   1      34.262  20.533  -3.903  0.00  0.00    -0.054 SA
HETATM   28  O   UNK N   1      36.352  19.073  -4.661  0.00  0.00    -0.260 OA
ENDBRANCH  20  21
ENDBRANCH   9  20
TORSDOF 5
ENDMDL
MODEL 8
REMARK VINA RESULT:      -7.6      5.633     11.510
REMARK  5 active torsions:
REMARK  status: ('A' for Active; 'I' for Inactive)
REMARK    1  A    between atoms: C_2  and  O_19 
REMARK    2  A    between atoms: C_9  and  C_11 
REMARK    3  A    between atoms: C_11  and  C_12 
REMARK    4  A    between atoms: O_19  and  C_20 
REMARK    5  A    between atoms: C_20  and  C_21 
ROOT
HETATM    1  C   UNK N   1      36.015  14.834  12.981  0.00  0.00     0.037 A 
HETATM    2  C   UNK N   1      35.582  13.501  13.091  0.00  0.00     0.070 A 
HETATM    3  C   UNK N   1      35.005  12.882  11.979  0.00  0.00     0.049 A 
HETATM    4  C   UNK N   1      34.876  13.558  10.776  0.00  0.00    -0.023 A 
HETATM    5  C   UNK N   1      35.319  14.893  10.645  0.00  0.00    -0.025 A 
HETATM    6  C   UNK N   1      35.883  15.531  11.763  0.00  0.00     0.015 A 
HETATM    7  C   UNK N   1      34.334  12.891   9.693  0.00  0.00     0.013 A 
HETATM    8  C   UNK N   1      34.258  13.523   8.465  0.00  0.00     0.008 A 
HETATM    9  C   UNK N   1      34.682  14.837   8.284  0.00  0.00    -0.056 A 
HETATM   10  C   UNK N   1      35.218  15.538   9.390  0.00  0.00     0.019 A 
ENDROOT
BRANCH   2  11
HETATM   11  O   UNK N   1      35.735  12.821  14.256  0.00  0.00    -0.347 OA
BRANCH  11  12
HETATM   12  C   UNK N   1      35.794  13.474  15.476  0.00  0.00     0.217 C 
BRANCH  12  13
HETATM   13  C   UNK N   1      35.691  12.575  16.676  0.00  0.00     0.004 A 
HETATM   14  C   UNK N   1      35.286  13.024  17.950  0.00  0.00     0.124 A 
HETATM   15  C   UNK N   1      35.212  12.121  19.017  0.00  0.00     0.043 A 
HETATM   16  F   UNK N   1      34.962  14.322  18.171  0.00  0.00    -0.205 F 
HETATM   17  C   UNK N   1      35.538  10.776  18.827  0.00  0.00     0.003 A 
HETATM   18  C   UNK N   1      35.941  10.328  17.568  0.00  0.00     0.001 A 
HETATM   19  C   UNK N   1      36.016  11.224  16.499  0.00  0.00     0.012 A 
ENDBRANCH  12  13
ENDBRANCH  11  12
ENDBRANCH   2  11
BRANCH   9  20
HETATM   20  C   UNK N   1      34.692  15.417   6.881  0.00  0.00     0.063 C 
BRANCH  20  21
HETATM   21  C   UNK N   1      33.638  16.517   6.597  0.00  0.00     0.153 A 
HETATM   22  C   UNK N   1      33.780  17.786   7.425  0.00  0.00     0.239 A 
HETATM   23  N   UNK N   1      32.703  18.185   8.111  0.00  0.00    -0.287 N 
HETATM   24  O   UNK N   1      34.782  18.483   7.418  0.00  0.00    -0.272 OA
HETATM   25  C   UNK N   1      31.665  17.360   7.988  0.00  0.00     0.287 A 
HETATM   26  H   UNK N   1      32.680  19.007   8.652  0.00  0.00     0.172 HD
HETATM   27  S   UNK N   1      31.948  15.886   7.013  0.00  0.00    -0.054 SA
HETATM   28  O   UNK N   1      30.583  17.630   8.486  0.00  0.00    -0.260 OA
ENDBRANCH  20  21
ENDBRANCH   9  20
TORSDOF 5
ENDMDL
MODEL 9
REMARK VINA RESULT:      -7.5      4.828     10.723
REMARK  5 active torsions:
REMARK  status: ('A' for Active; 'I' for Inactive)
REMARK    1  A    between atoms: C_2  and  O_19 
REMARK    2  A    between atoms: C_9  and  C_11 
REMARK    3  A    between atoms: C_11  and  C_12 
REMARK    4  A    between atoms: O_19  and  C_20 
REMARK    5  A    between atoms: C_20  and  C_21 
ROOT
HETATM    1  C   UNK N   1      34.735  14.143  10.466  0.00  0.00     0.037 A 
HETATM    2  C   UNK N   1      35.215  15.263  11.166  0.00  0.00     0.070 A 
HETATM    3  C   UNK N   1      35.194  16.513  10.542  0.00  0.00     0.049 A 
HETATM    4  C   UNK N   1      34.692  16.658   9.258  0.00  0.00    -0.023 A 
HETATM    5  C   UNK N   1      34.192  15.545   8.547  0.00  0.00    -0.025 A 
HETATM    6  C   UNK N   1      34.226  14.281   9.158  0.00  0.00     0.015 A 
HETATM    7  C   UNK N   1      34.656  17.921   8.696  0.00  0.00     0.013 A 
HETATM    8  C   UNK N   1      34.097  18.101   7.444  0.00  0.00     0.008 A 
HETATM    9  C   UNK N   1      33.590  17.037   6.703  0.00  0.00    -0.056 A 
HETATM   10  C   UNK N   1      33.640  15.736   7.257  0.00  0.00     0.019 A 
ENDROOT
BRANCH   2  11
HETATM   11  O   UNK N   1      35.679  15.135  12.436  0.00  0.00    -0.347 OA
BRANCH  11  12
HETATM   12  C   UNK N   1      36.421  14.034  12.831  0.00  0.00     0.217 C 
BRANCH  12  13
HETATM   13  C   UNK N   1      35.861  13.288  14.008  0.00  0.00     0.004 A 
HETATM   14  C   UNK N   1      36.309  13.478  15.333  0.00  0.00     0.124 A 
HETATM   15  C   UNK N   1      35.731  12.745  16.376  0.00  0.00     0.043 A 
HETATM   16  F   UNK N   1      37.295  14.362  15.624  0.00  0.00    -0.205 F 
HETATM   17  C   UNK N   1      34.713  11.826  16.113  0.00  0.00     0.003 A 
HETATM   18  C   UNK N   1      34.268  11.633  14.804  0.00  0.00     0.001 A 
HETATM   19  C   UNK N   1      34.839  12.362  13.759  0.00  0.00     0.012 A 
ENDBRANCH  12  13
ENDBRANCH  11  12
ENDBRANCH   2  11
BRANCH   9  20
HETATM   20  C   UNK N   1      32.872  17.329   5.398  0.00  0.00     0.063 C 
BRANCH  20  21
HETATM   21  C   UNK N   1      31.508  16.618   5.204  0.00  0.00     0.153 A 
HETATM   22  C   UNK N   1      30.816  16.884   3.876  0.00  0.00     0.239 A 
HETATM   23  N   UNK N   1      29.560  17.340   3.927  0.00  0.00    -0.287 N 
HETATM   24  O   UNK N   1      31.318  16.622   2.794  0.00  0.00    -0.272 OA
HETATM   25  C   UNK N   1      29.121  17.534   5.170  0.00  0.00     0.287 A 
HETATM   26  H   UNK N   1      29.014  17.516   3.127  0.00  0.00     0.172 HD
HETATM   27  S   UNK N   1      30.304  17.219   6.476  0.00  0.00    -0.054 SA
HETATM   28  O   UNK N   1      27.966  17.867   5.385  0.00  0.00    -0.260 OA
ENDBRANCH  20  21
ENDBRANCH   9  20
TORSDOF 5
ENDMDL
