MODEL 1
REMARK VINA RESULT:      -8.7      0.000      0.000
REMARK  9 active torsions:
REMARK  status: ('A' for Active; 'I' for Inactive)
REMARK    1  A    between atoms: C_1  and  C_2 
REMARK    2  A    between atoms: C_3  and  C_8 
REMARK    3  A    between atoms: C_8  and  O_13 
REMARK    4  A    between atoms: C_10  and  O_16 
REMARK    5  A    between atoms: C_15  and  O_19 
REMARK    6  A    between atoms: C_18  and  C_22 
REMARK    7  A    between atoms: C_24  and  O_27 
REMARK    8  A    between atoms: C_31  and  O_34 
REMARK    9  A    between atoms: C_32  and  O_35 
ROOT
HETATM    1  C   UNK N   1      22.121  18.200   4.087  0.00  0.00     0.193 C 
HETATM    2  C   UNK N   1      21.744  19.290   3.022  0.00  0.00     0.186 C 
HETATM    3  O   UNK N   1      23.340  17.657   3.758  0.00  0.00    -0.336 OA
HETATM    4  O   UNK N   1      22.863  20.073   2.693  0.00  0.00    -0.338 OA
HETATM    5  C   UNK N   1      24.357  18.509   3.643  0.00  0.00     0.103 A 
HETATM    6  C   UNK N   1      24.122  19.780   3.124  0.00  0.00     0.102 A 
HETATM    7  C   UNK N   1      25.578  18.179   4.170  0.00  0.00     0.049 A 
HETATM    8  C   UNK N   1      25.155  20.726   3.107  0.00  0.00     0.040 A 
HETATM    9  C   UNK N   1      26.591  19.123   4.256  0.00  0.00    -0.023 A 
HETATM   10  C   UNK N   1      26.396  20.403   3.697  0.00  0.00     0.013 A 
ENDROOT
BRANCH   9  11
HETATM   11  C   UNK N   1      27.818  18.712   5.015  0.00  0.00     0.198 C 
HETATM   12  O   UNK N   1      27.602  18.596   6.381  0.00  0.00    -0.337 OA
HETATM   13  C   UNK N   1      28.622  18.211   7.196  0.00  0.00     0.089 A 
HETATM   14  C   UNK N   1      29.723  17.496   6.666  0.00  0.00     0.079 A 
HETATM   15  C   UNK N   1      28.609  18.570   8.543  0.00  0.00     0.074 A 
HETATM   16  C   UNK N   1      30.827  17.207   7.488  0.00  0.00     0.085 A 
HETATM   17  C   UNK N   1      29.661  17.094   5.243  0.00  0.00     0.196 C 
HETATM   18  C   UNK N   1      30.809  17.595   8.830  0.00  0.00     0.074 A 
HETATM   19  C   UNK N   1      29.699  18.260   9.358  0.00  0.00     0.071 A 
HETATM   20  C   UNK N   1      28.392  17.371   4.494  0.00  0.00     0.227 C 
HETATM   21  O   UNK N   1      30.606  16.556   4.685  0.00  0.00    -0.289 OA
BRANCH  16  22
HETATM   22  O   UNK N   1      31.906  16.568   7.002  0.00  0.00    -0.360 OA
HETATM   23  H   UNK N   1      32.024  15.653   7.167  0.00  0.00     0.217 HD
ENDBRANCH  16  22
BRANCH  19  24
HETATM   24  O   UNK N   1      29.690  18.618  10.651  0.00  0.00    -0.361 OA
HETATM   25  H   UNK N   1      30.349  18.296  11.234  0.00  0.00     0.217 HD
ENDBRANCH  19  24
BRANCH  20  26
HETATM   26  O   UNK N   1      28.645  17.370   3.117  0.00  0.00    -0.385 OA
HETATM   27  H   UNK N   1      28.535  18.167   2.575  0.00  0.00     0.210 HD
ENDBRANCH  20  26
ENDBRANCH   9  11
BRANCH   1  28
HETATM   28  C   UNK N   1      21.177  17.085   4.438  0.00  0.00    -0.024 A 
HETATM   29  C   UNK N   1      20.806  16.788   5.750  0.00  0.00     0.049 A 
HETATM   30  C   UNK N   1      20.011  15.673   6.036  0.00  0.00     0.101 A 
HETATM   31  C   UNK N   1      19.550  14.858   4.966  0.00  0.00     0.099 A 
HETATM   32  C   UNK N   1      19.896  15.177   3.654  0.00  0.00     0.040 A 
HETATM   33  C   UNK N   1      20.711  16.273   3.393  0.00  0.00     0.013 A 
BRANCH  30  34
HETATM   34  O   UNK N   1      19.736  15.418   7.341  0.00  0.00    -0.353 OA
HETATM   35  C   UNK N   1      20.533  15.777   8.404  0.00  0.00     0.210 C 
ENDBRANCH  30  34
BRANCH  31  36
HETATM   36  O   UNK N   1      18.786  13.775   5.182  0.00  0.00    -0.358 OA
HETATM   37  H   UNK N   1      18.683  13.130   4.511  0.00  0.00     0.217 HD
ENDBRANCH  31  36
ENDBRANCH   1  28
BRANCH   2  38
HETATM   38  C   UNK N   1      20.693  20.259   3.568  0.00  0.00     0.199 C 
BRANCH  38  39
HETATM   39  O   UNK N   1      20.812  21.536   3.028  0.00  0.00    -0.398 OA
HETATM   40  H   UNK N   1      21.677  21.858   2.729  0.00  0.00     0.209 HD
ENDBRANCH  38  39
ENDBRANCH   2  38
TORSDOF 9
ENDMDL
MODEL 2
REMARK VINA RESULT:      -8.5      1.105      2.357
REMARK  9 active torsions:
REMARK  status: ('A' for Active; 'I' for Inactive)
REMARK    1  A    between atoms: C_1  and  C_2 
REMARK    2  A    between atoms: C_3  and  C_8 
REMARK    3  A    between atoms: C_8  and  O_13 
REMARK    4  A    between atoms: C_10  and  O_16 
REMARK    5  A    between atoms: C_15  and  O_19 
REMARK    6  A    between atoms: C_18  and  C_22 
REMARK    7  A    between atoms: C_24  and  O_27 
REMARK    8  A    between atoms: C_31  and  O_34 
REMARK    9  A    between atoms: C_32  and  O_35 
ROOT
HETATM    1  C   UNK N   1      22.189  18.262   4.215  0.00  0.00     0.193 C 
HETATM    2  C   UNK N   1      22.101  19.326   3.064  0.00  0.00     0.186 C 
HETATM    3  O   UNK N   1      23.358  17.552   4.078  0.00  0.00    -0.336 OA
HETATM    4  O   UNK N   1      23.346  19.942   2.859  0.00  0.00    -0.338 OA
HETATM    5  C   UNK N   1      24.485  18.261   4.067  0.00  0.00     0.103 A 
HETATM    6  C   UNK N   1      24.489  19.519   3.469  0.00  0.00     0.102 A 
HETATM    7  C   UNK N   1      25.572  17.813   4.770  0.00  0.00     0.049 A 
HETATM    8  C   UNK N   1      25.632  20.326   3.554  0.00  0.00     0.040 A 
HETATM    9  C   UNK N   1      26.681  18.626   4.954  0.00  0.00    -0.023 A 
HETATM   10  C   UNK N   1      26.732  19.885   4.321  0.00  0.00     0.013 A 
ENDROOT
BRANCH   9  11
HETATM   11  C   UNK N   1      27.734  18.109   5.890  0.00  0.00     0.198 C 
HETATM   12  O   UNK N   1      28.892  17.706   5.240  0.00  0.00    -0.337 OA
HETATM   13  C   UNK N   1      29.943  17.232   5.964  0.00  0.00     0.089 A 
HETATM   14  C   UNK N   1      30.069  17.565   7.334  0.00  0.00     0.079 A 
HETATM   15  C   UNK N   1      30.865  16.372   5.369  0.00  0.00     0.074 A 
HETATM   16  C   UNK N   1      31.089  16.975   8.104  0.00  0.00     0.085 A 
HETATM   17  C   UNK N   1      29.094  18.524   7.901  0.00  0.00     0.196 C 
HETATM   18  C   UNK N   1      31.990  16.096   7.498  0.00  0.00     0.074 A 
HETATM   19  C   UNK N   1      31.888  15.808   6.134  0.00  0.00     0.071 A 
HETATM   20  C   UNK N   1      28.115  19.160   6.962  0.00  0.00     0.227 C 
HETATM   21  O   UNK N   1      29.077  18.793   9.094  0.00  0.00    -0.289 OA
BRANCH  16  22
HETATM   22  O   UNK N   1      31.206  17.238   9.417  0.00  0.00    -0.360 OA
HETATM   23  H   UNK N   1      31.857  17.841   9.718  0.00  0.00     0.217 HD
ENDBRANCH  16  22
BRANCH  19  24
HETATM   24  O   UNK N   1      32.766  14.971   5.562  0.00  0.00    -0.361 OA
HETATM   25  H   UNK N   1      33.682  15.054   5.742  0.00  0.00     0.217 HD
ENDBRANCH  19  24
BRANCH  20  26
HETATM   26  O   UNK N   1      27.016  19.646   7.682  0.00  0.00    -0.385 OA
HETATM   27  H   UNK N   1      27.122  20.251   8.432  0.00  0.00     0.210 HD
ENDBRANCH  20  26
ENDBRANCH   9  11
BRANCH   1  28
HETATM   28  C   UNK N   1      21.068  17.296   4.479  0.00  0.00    -0.024 A 
HETATM   29  C   UNK N   1      20.578  17.034   5.759  0.00  0.00     0.049 A 
HETATM   30  C   UNK N   1      19.607  16.047   5.968  0.00  0.00     0.101 A 
HETATM   31  C   UNK N   1      19.096  15.333   4.851  0.00  0.00     0.099 A 
HETATM   32  C   UNK N   1      19.566  15.620   3.570  0.00  0.00     0.040 A 
HETATM   33  C   UNK N   1      20.550  16.585   3.387  0.00  0.00     0.013 A 
BRANCH  30  34
HETATM   34  O   UNK N   1      19.219  15.812   7.247  0.00  0.00    -0.353 OA
HETATM   35  C   UNK N   1      19.771  16.395   8.364  0.00  0.00     0.210 C 
ENDBRANCH  30  34
BRANCH  31  36
HETATM   36  O   UNK N   1      18.166  14.374   4.992  0.00  0.00    -0.358 OA
HETATM   37  H   UNK N   1      17.947  13.820   4.269  0.00  0.00     0.217 HD
ENDBRANCH  31  36
ENDBRANCH   1  28
BRANCH   2  38
HETATM   38  C   UNK N   1      21.125  20.449   3.421  0.00  0.00     0.199 C 
BRANCH  38  39
HETATM   39  O   UNK N   1      21.363  21.613   2.696  0.00  0.00    -0.398 OA
HETATM   40  H   UNK N   1      20.959  22.450   2.975  0.00  0.00     0.209 HD
ENDBRANCH  38  39
ENDBRANCH   2  38
TORSDOF 9
ENDMDL
MODEL 3
REMARK VINA RESULT:      -8.5      8.750     15.588
REMARK  9 active torsions:
REMARK  status: ('A' for Active; 'I' for Inactive)
REMARK    1  A    between atoms: C_1  and  C_2 
REMARK    2  A    between atoms: C_3  and  C_8 
REMARK    3  A    between atoms: C_8  and  O_13 
REMARK    4  A    between atoms: C_10  and  O_16 
REMARK    5  A    between atoms: C_15  and  O_19 
REMARK    6  A    between atoms: C_18  and  C_22 
REMARK    7  A    between atoms: C_24  and  O_27 
REMARK    8  A    between atoms: C_31  and  O_34 
REMARK    9  A    between atoms: C_32  and  O_35 
ROOT
HETATM    1  C   UNK N   1      36.243  11.597  15.084  0.00  0.00     0.193 C 
HETATM    2  C   UNK N   1      37.215  10.395  14.807  0.00  0.00     0.186 C 
HETATM    3  O   UNK N   1      36.677  12.694  14.379  0.00  0.00    -0.336 OA
HETATM    4  O   UNK N   1      37.561  10.337  13.448  0.00  0.00    -0.338 OA
HETATM    5  C   UNK N   1      36.800  12.540  13.061  0.00  0.00     0.103 A 
HETATM    6  C   UNK N   1      37.225  11.313  12.558  0.00  0.00     0.102 A 
HETATM    7  C   UNK N   1      36.368  13.534  12.222  0.00  0.00     0.049 A 
HETATM    8  C   UNK N   1      37.245  11.099  11.173  0.00  0.00     0.040 A 
HETATM    9  C   UNK N   1      36.284  13.319  10.854  0.00  0.00    -0.023 A 
HETATM   10  C   UNK N   1      36.750  12.103  10.313  0.00  0.00     0.013 A 
ENDROOT
BRANCH   9  11
HETATM   11  C   UNK N   1      35.627  14.402  10.052  0.00  0.00     0.198 C 
HETATM   12  O   UNK N   1      34.312  14.113   9.716  0.00  0.00    -0.337 OA
HETATM   13  C   UNK N   1      33.582  15.014   9.004  0.00  0.00     0.089 A 
HETATM   14  C   UNK N   1      33.949  16.382   9.001  0.00  0.00     0.079 A 
HETATM   15  C   UNK N   1      32.504  14.581   8.233  0.00  0.00     0.074 A 
HETATM   16  C   UNK N   1      33.264  17.285   8.169  0.00  0.00     0.085 A 
HETATM   17  C   UNK N   1      35.067  16.795   9.879  0.00  0.00     0.196 C 
HETATM   18  C   UNK N   1      32.202  16.831   7.383  0.00  0.00     0.074 A 
HETATM   19  C   UNK N   1      31.814  15.489   7.427  0.00  0.00     0.071 A 
HETATM   20  C   UNK N   1      35.655  15.763  10.793  0.00  0.00     0.227 C 
HETATM   21  O   UNK N   1      35.506  17.936   9.867  0.00  0.00    -0.289 OA
BRANCH  16  22
HETATM   22  O   UNK N   1      33.619  18.581   8.111  0.00  0.00    -0.360 OA
HETATM   23  H   UNK N   1      33.815  18.977   7.285  0.00  0.00     0.217 HD
ENDBRANCH  16  22
BRANCH  19  24
HETATM   24  O   UNK N   1      30.786  15.067   6.675  0.00  0.00    -0.361 OA
HETATM   25  H   UNK N   1      30.846  15.087   5.740  0.00  0.00     0.217 HD
ENDBRANCH  19  24
BRANCH  20  26
HETATM   26  O   UNK N   1      36.939  16.156  11.187  0.00  0.00    -0.385 OA
HETATM   27  H   UNK N   1      37.653  15.514  11.325  0.00  0.00     0.210 HD
ENDBRANCH  20  26
ENDBRANCH   9  11
BRANCH   1  28
HETATM   28  C   UNK N   1      35.906  12.028  16.484  0.00  0.00    -0.024 A 
HETATM   29  C   UNK N   1      35.805  11.134  17.550  0.00  0.00     0.049 A 
HETATM   30  C   UNK N   1      35.382  11.566  18.812  0.00  0.00     0.101 A 
HETATM   31  C   UNK N   1      35.089  12.943  19.009  0.00  0.00     0.099 A 
HETATM   32  C   UNK N   1      35.222  13.839  17.949  0.00  0.00     0.040 A 
HETATM   33  C   UNK N   1      35.616  13.384  16.696  0.00  0.00     0.013 A 
BRANCH  30  34
HETATM   34  O   UNK N   1      35.257  10.629  19.786  0.00  0.00    -0.353 OA
HETATM   35  C   UNK N   1      34.375   9.573  19.760  0.00  0.00     0.210 C 
ENDBRANCH  30  34
BRANCH  31  36
HETATM   36  O   UNK N   1      34.677  13.414  20.198  0.00  0.00    -0.358 OA
HETATM   37  H   UNK N   1      33.847  13.841  20.273  0.00  0.00     0.217 HD
ENDBRANCH  31  36
ENDBRANCH   1  28
BRANCH   2  38
HETATM   38  C   UNK N   1      36.548   9.057  15.133  0.00  0.00     0.199 C 
BRANCH  38  39
HETATM   39  O   UNK N   1      35.238   8.987  14.670  0.00  0.00    -0.398 OA
HETATM   40  H   UNK N   1      34.498   9.042  15.295  0.00  0.00     0.209 HD
ENDBRANCH  38  39
ENDBRANCH   2  38
TORSDOF 9
ENDMDL
MODEL 4
REMARK VINA RESULT:      -8.2      3.014      9.199
REMARK  9 active torsions:
REMARK  status: ('A' for Active; 'I' for Inactive)
REMARK    1  A    between atoms: C_1  and  C_2 
REMARK    2  A    between atoms: C_3  and  C_8 
REMARK    3  A    between atoms: C_8  and  O_13 
REMARK    4  A    between atoms: C_10  and  O_16 
REMARK    5  A    between atoms: C_15  and  O_19 
REMARK    6  A    between atoms: C_18  and  C_22 
REMARK    7  A    between atoms: C_24  and  O_27 
REMARK    8  A    between atoms: C_31  and  O_34 
REMARK    9  A    between atoms: C_32  and  O_35 
ROOT
HETATM    1  C   UNK N   1      28.159  16.526   5.361  0.00  0.00     0.193 C 
HETATM    2  C   UNK N   1      28.143  16.883   3.831  0.00  0.00     0.186 C 
HETATM    3  O   UNK N   1      26.981  16.949   5.930  0.00  0.00    -0.336 OA
HETATM    4  O   UNK N   1      26.885  16.612   3.270  0.00  0.00    -0.338 OA
HETATM    5  C   UNK N   1      25.859  16.473   5.393  0.00  0.00     0.103 A 
HETATM    6  C   UNK N   1      25.802  16.259   4.018  0.00  0.00     0.102 A 
HETATM    7  C   UNK N   1      24.839  16.064   6.212  0.00  0.00     0.049 A 
HETATM    8  C   UNK N   1      24.673  15.649   3.456  0.00  0.00     0.040 A 
HETATM    9  C   UNK N   1      23.753  15.370   5.698  0.00  0.00    -0.023 A 
HETATM   10  C   UNK N   1      23.647  15.180   4.305  0.00  0.00     0.013 A 
ENDROOT
BRANCH   9  11
HETATM   11  C   UNK N   1      22.789  14.809   6.701  0.00  0.00     0.198 C 
HETATM   12  O   UNK N   1      23.415  14.260   7.812  0.00  0.00    -0.337 OA
HETATM   13  C   UNK N   1      22.664  13.729   8.816  0.00  0.00     0.089 A 
HETATM   14  C   UNK N   1      21.316  14.127   8.981  0.00  0.00     0.079 A 
HETATM   15  C   UNK N   1      23.209  12.752   9.648  0.00  0.00     0.074 A 
HETATM   16  C   UNK N   1      20.514  13.487   9.944  0.00  0.00     0.085 A 
HETATM   17  C   UNK N   1      20.805  15.206   8.106  0.00  0.00     0.196 C 
HETATM   18  C   UNK N   1      21.068  12.493  10.753  0.00  0.00     0.074 A 
HETATM   19  C   UNK N   1      22.412  12.137  10.616  0.00  0.00     0.071 A 
HETATM   20  C   UNK N   1      21.779  15.879   7.187  0.00  0.00     0.227 C 
HETATM   21  O   UNK N   1      19.630  15.544   8.122  0.00  0.00    -0.289 OA
BRANCH  16  22
HETATM   22  O   UNK N   1      19.218  13.813  10.093  0.00  0.00    -0.360 OA
HETATM   23  H   UNK N   1      18.902  14.112  10.924  0.00  0.00     0.217 HD
ENDBRANCH  16  22
BRANCH  19  24
HETATM   24  O   UNK N   1      22.935  11.188  11.407  0.00  0.00    -0.361 OA
HETATM   25  H   UNK N   1      23.025  10.310  11.092  0.00  0.00     0.217 HD
ENDBRANCH  19  24
BRANCH  20  26
HETATM   26  O   UNK N   1      21.089  16.509   6.145  0.00  0.00    -0.385 OA
HETATM   27  H   UNK N   1      21.319  16.360   5.214  0.00  0.00     0.210 HD
ENDBRANCH  20  26
ENDBRANCH   9  11
BRANCH   1  28
HETATM   28  C   UNK N   1      29.297  16.936   6.251  0.00  0.00    -0.024 A 
HETATM   29  C   UNK N   1      30.635  16.844   5.864  0.00  0.00     0.049 A 
HETATM   30  C   UNK N   1      31.665  17.134   6.766  0.00  0.00     0.101 A 
HETATM   31  C   UNK N   1      31.334  17.563   8.080  0.00  0.00     0.099 A 
HETATM   32  C   UNK N   1      29.995  17.684   8.452  0.00  0.00     0.040 A 
HETATM   33  C   UNK N   1      28.987  17.364   7.550  0.00  0.00     0.013 A 
BRANCH  30  34
HETATM   34  O   UNK N   1      32.941  16.969   6.333  0.00  0.00    -0.353 OA
HETATM   35  C   UNK N   1      33.437  17.428   5.135  0.00  0.00     0.210 C 
ENDBRANCH  30  34
BRANCH  31  36
HETATM   36  O   UNK N   1      32.281  17.853   8.987  0.00  0.00    -0.358 OA
HETATM   37  H   UNK N   1      32.363  17.335   9.763  0.00  0.00     0.217 HD
ENDBRANCH  31  36
ENDBRANCH   1  28
BRANCH   2  38
HETATM   38  C   UNK N   1      29.148  16.033   3.053  0.00  0.00     0.199 C 
BRANCH  38  39
HETATM   39  O   UNK N   1      30.110  16.802   2.406  0.00  0.00    -0.398 OA
HETATM   40  H   UNK N   1      31.041  16.528   2.418  0.00  0.00     0.209 HD
ENDBRANCH  38  39
ENDBRANCH   2  38
TORSDOF 9
ENDMDL
MODEL 5
REMARK VINA RESULT:      -8.2      1.947      3.416
REMARK  9 active torsions:
REMARK  status: ('A' for Active; 'I' for Inactive)
REMARK    1  A    between atoms: C_1  and  C_2 
REMARK    2  A    between atoms: C_3  and  C_8 
REMARK    3  A    between atoms: C_8  and  O_13 
REMARK    4  A    between atoms: C_10  and  O_16 
REMARK    5  A    between atoms: C_15  and  O_19 
REMARK    6  A    between atoms: C_18  and  C_22 
REMARK    7  A    between atoms: C_24  and  O_27 
REMARK    8  A    between atoms: C_31  and  O_34 
REMARK    9  A    between atoms: C_32  and  O_35 
ROOT
HETATM    1  C   UNK N   1      22.623  16.866   6.018  0.00  0.00     0.193 C 
HETATM    2  C   UNK N   1      22.173  17.312   4.580  0.00  0.00     0.186 C 
HETATM    3  O   UNK N   1      23.742  16.076   5.910  0.00  0.00    -0.336 OA
HETATM    4  O   UNK N   1      23.285  17.669   3.800  0.00  0.00    -0.338 OA
HETATM    5  C   UNK N   1      24.789  16.613   5.284  0.00  0.00     0.103 A 
HETATM    6  C   UNK N   1      24.569  17.470   4.208  0.00  0.00     0.102 A 
HETATM    7  C   UNK N   1      26.047  16.436   5.798  0.00  0.00     0.049 A 
HETATM    8  C   UNK N   1      25.652  18.135   3.617  0.00  0.00     0.040 A 
HETATM    9  C   UNK N   1      27.124  17.154   5.297  0.00  0.00    -0.023 A 
HETATM   10  C   UNK N   1      26.939  17.992   4.179  0.00  0.00     0.013 A 
ENDROOT
BRANCH   9  11
HETATM   11  C   UNK N   1      28.415  17.023   6.049  0.00  0.00     0.198 C 
HETATM   12  O   UNK N   1      29.534  17.097   5.231  0.00  0.00    -0.337 OA
HETATM   13  C   UNK N   1      30.777  17.012   5.778  0.00  0.00     0.089 A 
HETATM   14  C   UNK N   1      30.973  17.315   7.147  0.00  0.00     0.079 A 
HETATM   15  C   UNK N   1      31.849  16.573   5.002  0.00  0.00     0.074 A 
HETATM   16  C   UNK N   1      32.236  17.110   7.733  0.00  0.00     0.085 A 
HETATM   17  C   UNK N   1      29.813  17.828   7.911  0.00  0.00     0.196 C 
HETATM   18  C   UNK N   1      33.294  16.646   6.947  0.00  0.00     0.074 A 
HETATM   19  C   UNK N   1      33.105  16.394   5.585  0.00  0.00     0.071 A 
HETATM   20  C   UNK N   1      28.546  18.098   7.157  0.00  0.00     0.227 C 
HETATM   21  O   UNK N   1      29.873  18.026   9.116  0.00  0.00    -0.289 OA
BRANCH  16  22
HETATM   22  O   UNK N   1      32.440  17.346   9.040  0.00  0.00    -0.360 OA
HETATM   23  H   UNK N   1      31.820  17.044   9.675  0.00  0.00     0.217 HD
ENDBRANCH  16  22
BRANCH  19  24
HETATM   24  O   UNK N   1      34.132  15.959   4.839  0.00  0.00    -0.361 OA
HETATM   25  H   UNK N   1      34.121  16.075   3.910  0.00  0.00     0.217 HD
ENDBRANCH  19  24
BRANCH  20  26
HETATM   26  O   UNK N   1      27.463  18.119   8.044  0.00  0.00    -0.385 OA
HETATM   27  H   UNK N   1      26.887  17.349   8.169  0.00  0.00     0.210 HD
ENDBRANCH  20  26
ENDBRANCH   9  11
BRANCH   1  28
HETATM   28  C   UNK N   1      21.664  16.213   6.972  0.00  0.00    -0.024 A 
HETATM   29  C   UNK N   1      20.640  16.909   7.615  0.00  0.00     0.049 A 
HETATM   30  C   UNK N   1      19.840  16.283   8.578  0.00  0.00     0.101 A 
HETATM   31  C   UNK N   1      20.059  14.910   8.873  0.00  0.00     0.099 A 
HETATM   32  C   UNK N   1      21.063  14.210   8.205  0.00  0.00     0.040 A 
HETATM   33  C   UNK N   1      21.865  14.857   7.272  0.00  0.00     0.013 A 
BRANCH  30  34
HETATM   34  O   UNK N   1      18.900  17.040   9.199  0.00  0.00    -0.353 OA
HETATM   35  C   UNK N   1      17.582  17.138   8.818  0.00  0.00     0.210 C 
ENDBRANCH  30  34
BRANCH  31  36
HETATM   36  O   UNK N   1      19.324  14.259   9.790  0.00  0.00    -0.358 OA
HETATM   37  H   UNK N   1      18.709  13.606   9.522  0.00  0.00     0.217 HD
ENDBRANCH  31  36
ENDBRANCH   1  28
BRANCH   2  38
HETATM   38  C   UNK N   1      21.279  18.552   4.639  0.00  0.00     0.199 C 
BRANCH  38  39
HETATM   39  O   UNK N   1      21.803  19.622   3.921  0.00  0.00    -0.398 OA
HETATM   40  H   UNK N   1      22.763  19.712   3.814  0.00  0.00     0.209 HD
ENDBRANCH  38  39
ENDBRANCH   2  38
TORSDOF 9
ENDMDL
MODEL 6
REMARK VINA RESULT:      -8.1      6.057     10.924
REMARK  9 active torsions:
REMARK  status: ('A' for Active; 'I' for Inactive)
REMARK    1  A    between atoms: C_1  and  C_2 
REMARK    2  A    between atoms: C_3  and  C_8 
REMARK    3  A    between atoms: C_8  and  O_13 
REMARK    4  A    between atoms: C_10  and  O_16 
REMARK    5  A    between atoms: C_15  and  O_19 
REMARK    6  A    between atoms: C_18  and  C_22 
REMARK    7  A    between atoms: C_24  and  O_27 
REMARK    8  A    between atoms: C_31  and  O_34 
REMARK    9  A    between atoms: C_32  and  O_35 
ROOT
HETATM    1  C   UNK N   1      32.156  16.239   7.399  0.00  0.00     0.193 C 
HETATM    2  C   UNK N   1      32.626  16.106   5.906  0.00  0.00     0.186 C 
HETATM    3  O   UNK N   1      32.179  14.997   7.986  0.00  0.00    -0.336 OA
HETATM    4  O   UNK N   1      33.723  15.236   5.805  0.00  0.00    -0.338 OA
HETATM    5  C   UNK N   1      33.344  14.351   7.962  0.00  0.00     0.103 A 
HETATM    6  C   UNK N   1      34.174  14.490   6.853  0.00  0.00     0.102 A 
HETATM    7  C   UNK N   1      33.771  13.686   9.082  0.00  0.00     0.049 A 
HETATM    8  C   UNK N   1      35.452  13.914   6.864  0.00  0.00     0.040 A 
HETATM    9  C   UNK N   1      35.064  13.189   9.160  0.00  0.00    -0.023 A 
HETATM   10  C   UNK N   1      35.910  13.275   8.036  0.00  0.00     0.013 A 
ENDROOT
BRANCH   9  11
HETATM   11  C   UNK N   1      35.485  12.645  10.493  0.00  0.00     0.198 C 
HETATM   12  O   UNK N   1      35.536  13.612  11.487  0.00  0.00    -0.337 OA
HETATM   13  C   UNK N   1      35.884  13.260  12.755  0.00  0.00     0.089 A 
HETATM   14  C   UNK N   1      35.742  11.919  13.184  0.00  0.00     0.079 A 
HETATM   15  C   UNK N   1      36.434  14.212  13.613  0.00  0.00     0.074 A 
HETATM   16  C   UNK N   1      36.216  11.540  14.453  0.00  0.00     0.085 A 
HETATM   17  C   UNK N   1      35.104  10.963  12.252  0.00  0.00     0.196 C 
HETATM   18  C   UNK N   1      36.786  12.500  15.292  0.00  0.00     0.074 A 
HETATM   19  C   UNK N   1      36.881  13.832  14.881  0.00  0.00     0.071 A 
HETATM   20  C   UNK N   1      34.551  11.503  10.968  0.00  0.00     0.227 C 
HETATM   21  O   UNK N   1      35.027   9.770  12.508  0.00  0.00    -0.289 OA
BRANCH  16  22
HETATM   22  O   UNK N   1      36.135  10.264  14.871  0.00  0.00    -0.360 OA
HETATM   23  H   UNK N   1      35.418   9.991  15.409  0.00  0.00     0.217 HD
ENDBRANCH  16  22
BRANCH  19  24
HETATM   24  O   UNK N   1      37.421  14.747  15.700  0.00  0.00    -0.361 OA
HETATM   25  H   UNK N   1      37.979  14.478  16.403  0.00  0.00     0.217 HD
ENDBRANCH  19  24
BRANCH  20  26
HETATM   26  O   UNK N   1      34.418  10.467  10.036  0.00  0.00    -0.385 OA
HETATM   27  H   UNK N   1      34.150  10.634   9.119  0.00  0.00     0.210 HD
ENDBRANCH  20  26
ENDBRANCH   9  11
BRANCH   1  28
HETATM   28  C   UNK N   1      30.864  16.917   7.758  0.00  0.00    -0.024 A 
HETATM   29  C   UNK N   1      29.738  16.890   6.934  0.00  0.00     0.049 A 
HETATM   30  C   UNK N   1      28.593  17.627   7.259  0.00  0.00     0.101 A 
HETATM   31  C   UNK N   1      28.575  18.381   8.464  0.00  0.00     0.099 A 
HETATM   32  C   UNK N   1      29.691  18.380   9.299  0.00  0.00     0.040 A 
HETATM   33  C   UNK N   1      30.828  17.664   8.944  0.00  0.00     0.013 A 
BRANCH  30  34
HETATM   34  O   UNK N   1      27.558  17.594   6.382  0.00  0.00    -0.353 OA
HETATM   35  C   UNK N   1      27.406  18.432   5.302  0.00  0.00     0.210 C 
ENDBRANCH  30  34
BRANCH  31  36
HETATM   36  O   UNK N   1      27.504  19.108   8.824  0.00  0.00    -0.358 OA
HETATM   37  H   UNK N   1      27.236  19.840   8.305  0.00  0.00     0.217 HD
ENDBRANCH  31  36
ENDBRANCH   1  28
BRANCH   2  38
HETATM   38  C   UNK N   1      33.097  17.451   5.351  0.00  0.00     0.199 C 
BRANCH  38  39
HETATM   39  O   UNK N   1      34.151  17.990   6.083  0.00  0.00    -0.398 OA
HETATM   40  H   UNK N   1      35.015  18.125   5.663  0.00  0.00     0.209 HD
ENDBRANCH  38  39
ENDBRANCH   2  38
TORSDOF 9
ENDMDL
MODEL 7
REMARK VINA RESULT:      -8.1      2.860      5.849
REMARK  9 active torsions:
REMARK  status: ('A' for Active; 'I' for Inactive)
REMARK    1  A    between atoms: C_1  and  C_2 
REMARK    2  A    between atoms: C_3  and  C_8 
REMARK    3  A    between atoms: C_8  and  O_13 
REMARK    4  A    between atoms: C_10  and  O_16 
REMARK    5  A    between atoms: C_15  and  O_19 
REMARK    6  A    between atoms: C_18  and  C_22 
REMARK    7  A    between atoms: C_24  and  O_27 
REMARK    8  A    between atoms: C_31  and  O_34 
REMARK    9  A    between atoms: C_32  and  O_35 
ROOT
HETATM    1  C   UNK N   1      26.664  16.878   3.720  0.00  0.00     0.193 C 
HETATM    2  C   UNK N   1      26.263  15.475   3.139  0.00  0.00     0.186 C 
HETATM    3  O   UNK N   1      27.074  16.720   5.022  0.00  0.00    -0.336 OA
HETATM    4  O   UNK N   1      27.184  14.491   3.533  0.00  0.00    -0.338 OA
HETATM    5  C   UNK N   1      28.080  15.871   5.229  0.00  0.00     0.103 A 
HETATM    6  C   UNK N   1      28.172  14.725   4.442  0.00  0.00     0.102 A 
HETATM    7  C   UNK N   1      29.081  16.209   6.100  0.00  0.00     0.049 A 
HETATM    8  C   UNK N   1      29.287  13.885   4.565  0.00  0.00     0.040 A 
HETATM    9  C   UNK N   1      30.241  15.450   6.176  0.00  0.00    -0.023 A 
HETATM   10  C   UNK N   1      30.342  14.261   5.425  0.00  0.00     0.013 A 
ENDROOT
BRANCH   9  11
HETATM   11  C   UNK N   1      31.345  16.010   7.023  0.00  0.00     0.198 C 
HETATM   12  O   UNK N   1      31.893  15.076   7.892  0.00  0.00    -0.337 OA
HETATM   13  C   UNK N   1      32.919  15.437   8.711  0.00  0.00     0.089 A 
HETATM   14  C   UNK N   1      33.729  16.551   8.386  0.00  0.00     0.079 A 
HETATM   15  C   UNK N   1      33.137  14.740   9.899  0.00  0.00     0.074 A 
HETATM   16  C   UNK N   1      34.709  16.989   9.296  0.00  0.00     0.085 A 
HETATM   17  C   UNK N   1      33.489  17.220   7.088  0.00  0.00     0.196 C 
HETATM   18  C   UNK N   1      34.898  16.295  10.493  0.00  0.00     0.074 A 
HETATM   19  C   UNK N   1      34.126  15.168  10.787  0.00  0.00     0.071 A 
HETATM   20  C   UNK N   1      32.486  16.604   6.160  0.00  0.00     0.227 C 
HETATM   21  O   UNK N   1      34.081  18.243   6.772  0.00  0.00    -0.289 OA
BRANCH  16  22
HETATM   22  O   UNK N   1      35.463  18.071   9.035  0.00  0.00    -0.360 OA
HETATM   23  H   UNK N   1      35.609  18.714   9.702  0.00  0.00     0.217 HD
ENDBRANCH  16  22
BRANCH  19  24
HETATM   24  O   UNK N   1      34.325  14.504  11.936  0.00  0.00    -0.361 OA
HETATM   25  H   UNK N   1      34.943  14.824  12.563  0.00  0.00     0.217 HD
ENDBRANCH  19  24
BRANCH  20  26
HETATM   26  O   UNK N   1      32.046  17.560   5.236  0.00  0.00    -0.385 OA
HETATM   27  H   UNK N   1      31.278  18.126   5.410  0.00  0.00     0.210 HD
ENDBRANCH  20  26
ENDBRANCH   9  11
BRANCH   1  28
HETATM   28  C   UNK N   1      25.730  18.053   3.650  0.00  0.00    -0.024 A 
HETATM   29  C   UNK N   1      24.375  17.966   3.973  0.00  0.00     0.049 A 
HETATM   30  C   UNK N   1      23.522  19.060   3.788  0.00  0.00     0.101 A 
HETATM   31  C   UNK N   1      24.058  20.281   3.296  0.00  0.00     0.099 A 
HETATM   32  C   UNK N   1      25.419  20.372   3.004  0.00  0.00     0.040 A 
HETATM   33  C   UNK N   1      26.244  19.265   3.168  0.00  0.00     0.013 A 
BRANCH  30  34
HETATM   34  O   UNK N   1      22.207  18.883   4.074  0.00  0.00    -0.353 OA
HETATM   35  C   UNK N   1      21.254  18.440   3.186  0.00  0.00     0.210 C 
ENDBRANCH  30  34
BRANCH  31  36
HETATM   36  O   UNK N   1      23.286  21.361   3.096  0.00  0.00    -0.358 OA
HETATM   37  H   UNK N   1      22.987  21.867   3.825  0.00  0.00     0.217 HD
ENDBRANCH  31  36
ENDBRANCH   1  28
BRANCH   2  38
HETATM   38  C   UNK N   1      26.280  15.484   1.609  0.00  0.00     0.199 C 
BRANCH  38  39
HETATM   39  O   UNK N   1      25.111  14.968   1.059  0.00  0.00    -0.398 OA
HETATM   40  H   UNK N   1      24.796  14.089   1.325  0.00  0.00     0.209 HD
ENDBRANCH  38  39
ENDBRANCH   2  38
TORSDOF 9
ENDMDL
MODEL 8
REMARK VINA RESULT:      -7.8      7.845     14.677
REMARK  9 active torsions:
REMARK  status: ('A' for Active; 'I' for Inactive)
REMARK    1  A    between atoms: C_1  and  C_2 
REMARK    2  A    between atoms: C_3  and  C_8 
REMARK    3  A    between atoms: C_8  and  O_13 
REMARK    4  A    between atoms: C_10  and  O_16 
REMARK    5  A    between atoms: C_15  and  O_19 
REMARK    6  A    between atoms: C_18  and  C_22 
REMARK    7  A    between atoms: C_24  and  O_27 
REMARK    8  A    between atoms: C_31  and  O_34 
REMARK    9  A    between atoms: C_32  and  O_35 
ROOT
HETATM    1  C   UNK N   1      36.418  13.122  13.614  0.00  0.00     0.193 C 
HETATM    2  C   UNK N   1      37.385  11.940  13.248  0.00  0.00     0.186 C 
HETATM    3  O   UNK N   1      36.534  14.105  12.661  0.00  0.00    -0.336 OA
HETATM    4  O   UNK N   1      37.345  11.673  11.870  0.00  0.00    -0.338 OA
HETATM    5  C   UNK N   1      36.301  13.739  11.401  0.00  0.00     0.103 A 
HETATM    6  C   UNK N   1      36.685  12.468  10.982  0.00  0.00     0.102 A 
HETATM    7  C   UNK N   1      35.561  14.556  10.586  0.00  0.00     0.049 A 
HETATM    8  C   UNK N   1      36.340  12.026   9.697  0.00  0.00     0.040 A 
HETATM    9  C   UNK N   1      35.123  14.111   9.347  0.00  0.00    -0.023 A 
HETATM   10  C   UNK N   1      35.534  12.846   8.879  0.00  0.00     0.013 A 
ENDROOT
BRANCH   9  11
HETATM   11  C   UNK N   1      34.169  15.011   8.619  0.00  0.00     0.198 C 
HETATM   12  O   UNK N   1      34.156  14.798   7.248  0.00  0.00    -0.337 OA
HETATM   13  C   UNK N   1      33.324  15.530   6.458  0.00  0.00     0.089 A 
HETATM   14  C   UNK N   1      32.175  16.144   7.014  0.00  0.00     0.079 A 
HETATM   15  C   UNK N   1      33.632  15.722   5.112  0.00  0.00     0.074 A 
HETATM   16  C   UNK N   1      31.387  16.997   6.220  0.00  0.00     0.085 A 
HETATM   17  C   UNK N   1      31.865  15.864   8.434  0.00  0.00     0.196 C 
HETATM   18  C   UNK N   1      31.724  17.197   4.879  0.00  0.00     0.074 A 
HETATM   19  C   UNK N   1      32.832  16.551   4.324  0.00  0.00     0.071 A 
HETATM   20  C   UNK N   1      32.721  14.864   9.151  0.00  0.00     0.227 C 
HETATM   21  O   UNK N   1      30.947  16.425   9.015  0.00  0.00    -0.289 OA
BRANCH  16  22
HETATM   22  O   UNK N   1      30.316  17.628   6.732  0.00  0.00    -0.360 OA
HETATM   23  H   UNK N   1      29.554  17.765   6.203  0.00  0.00     0.217 HD
ENDBRANCH  16  22
BRANCH  19  24
HETATM   24  O   UNK N   1      33.138  16.744   3.032  0.00  0.00    -0.361 OA
HETATM   25  H   UNK N   1      33.991  17.050   2.791  0.00  0.00     0.217 HD
ENDBRANCH  19  24
BRANCH  20  26
HETATM   26  O   UNK N   1      32.613  15.053  10.534  0.00  0.00    -0.385 OA
HETATM   27  H   UNK N   1      32.160  15.822  10.913  0.00  0.00     0.210 HD
ENDBRANCH  20  26
ENDBRANCH   9  11
BRANCH   1  28
HETATM   28  C   UNK N   1      36.443  13.765  14.972  0.00  0.00    -0.024 A 
HETATM   29  C   UNK N   1      35.698  13.288  16.051  0.00  0.00     0.049 A 
HETATM   30  C   UNK N   1      35.668  13.983  17.266  0.00  0.00     0.101 A 
HETATM   31  C   UNK N   1      36.438  15.170  17.404  0.00  0.00     0.099 A 
HETATM   32  C   UNK N   1      37.206  15.625  16.333  0.00  0.00     0.040 A 
HETATM   33  C   UNK N   1      37.200  14.935  15.125  0.00  0.00     0.013 A 
BRANCH  30  34
HETATM   34  O   UNK N   1      34.878  13.486  18.252  0.00  0.00    -0.353 OA
HETATM   35  C   UNK N   1      35.265  12.551  19.183  0.00  0.00     0.210 C 
ENDBRANCH  30  34
BRANCH  31  36
HETATM   36  O   UNK N   1      36.445  15.878  18.545  0.00  0.00    -0.358 OA
HETATM   37  H   UNK N   1      35.667  15.948  19.060  0.00  0.00     0.217 HD
ENDBRANCH  31  36
ENDBRANCH   1  28
BRANCH   2  38
HETATM   38  C   UNK N   1      36.965  10.645  13.945  0.00  0.00     0.199 C 
BRANCH  38  39
HETATM   39  O   UNK N   1      35.590  10.436  13.900  0.00  0.00    -0.398 OA
HETATM   40  H   UNK N   1      35.216   9.596  14.210  0.00  0.00     0.209 HD
ENDBRANCH  38  39
ENDBRANCH   2  38
TORSDOF 9
ENDMDL
MODEL 9
REMARK VINA RESULT:      -7.7      6.183     13.359
REMARK  9 active torsions:
REMARK  status: ('A' for Active; 'I' for Inactive)
REMARK    1  A    between atoms: C_1  and  C_2 
REMARK    2  A    between atoms: C_3  and  C_8 
REMARK    3  A    between atoms: C_8  and  O_13 
REMARK    4  A    between atoms: C_10  and  O_16 
REMARK    5  A    between atoms: C_15  and  O_19 
REMARK    6  A    between atoms: C_18  and  C_22 
REMARK    7  A    between atoms: C_24  and  O_27 
REMARK    8  A    between atoms: C_31  and  O_34 
REMARK    9  A    between atoms: C_32  and  O_35 
ROOT
HETATM    1  C   UNK N   1      36.085  13.427  11.555  0.00  0.00     0.193 C 
HETATM    2  C   UNK N   1      37.497  13.137  10.930  0.00  0.00     0.186 C 
HETATM    3  O   UNK N   1      35.621  14.627  11.072  0.00  0.00    -0.336 OA
HETATM    4  O   UNK N   1      37.514  13.467   9.566  0.00  0.00    -0.338 OA
HETATM    5  C   UNK N   1      35.532  14.738   9.747  0.00  0.00     0.103 A 
HETATM    6  C   UNK N   1      36.486  14.114   8.948  0.00  0.00     0.102 A 
HETATM    7  C   UNK N   1      34.429  15.333   9.192  0.00  0.00     0.049 A 
HETATM    8  C   UNK N   1      36.339  14.122   7.554  0.00  0.00     0.040 A 
HETATM    9  C   UNK N   1      34.205  15.273   7.824  0.00  0.00    -0.023 A 
HETATM   10  C   UNK N   1      35.177  14.688   6.987  0.00  0.00     0.013 A 
ENDROOT
BRANCH   9  11
HETATM   11  C   UNK N   1      32.882  15.793   7.345  0.00  0.00     0.198 C 
HETATM   12  O   UNK N   1      32.166  16.456   8.332  0.00  0.00    -0.337 OA
HETATM   13  C   UNK N   1      30.953  16.999   8.037  0.00  0.00     0.089 A 
HETATM   14  C   UNK N   1      30.621  17.311   6.696  0.00  0.00     0.079 A 
HETATM   15  C   UNK N   1      30.016  17.197   9.050  0.00  0.00     0.074 A 
HETATM   16  C   UNK N   1      29.324  17.758   6.386  0.00  0.00     0.085 A 
HETATM   17  C   UNK N   1      31.672  17.132   5.669  0.00  0.00     0.196 C 
HETATM   18  C   UNK N   1      28.389  17.928   7.409  0.00  0.00     0.074 A 
HETATM   19  C   UNK N   1      28.738  17.663   8.736  0.00  0.00     0.071 A 
HETATM   20  C   UNK N   1      33.043  16.744   6.133  0.00  0.00     0.227 C 
HETATM   21  O   UNK N   1      31.440  17.290   4.479  0.00  0.00    -0.289 OA
BRANCH  16  22
HETATM   22  O   UNK N   1      28.967  18.019   5.116  0.00  0.00    -0.360 OA
HETATM   23  H   UNK N   1      28.755  18.895   4.859  0.00  0.00     0.217 HD
ENDBRANCH  16  22
BRANCH  19  24
HETATM   24  O   UNK N   1      27.833  17.840   9.712  0.00  0.00    -0.361 OA
HETATM   25  H   UNK N   1      28.006  17.524  10.577  0.00  0.00     0.217 HD
ENDBRANCH  19  24
BRANCH  20  26
HETATM   26  O   UNK N   1      33.760  16.178   5.072  0.00  0.00    -0.385 OA
HETATM   27  H   UNK N   1      34.568  15.662   5.217  0.00  0.00     0.210 HD
ENDBRANCH  20  26
ENDBRANCH   9  11
BRANCH   1  28
HETATM   28  C   UNK N   1      35.860  13.387  13.040  0.00  0.00    -0.024 A 
HETATM   29  C   UNK N   1      36.614  14.138  13.942  0.00  0.00     0.049 A 
HETATM   30  C   UNK N   1      36.442  13.987  15.323  0.00  0.00     0.101 A 
HETATM   31  C   UNK N   1      35.459  13.079  15.802  0.00  0.00     0.099 A 
HETATM   32  C   UNK N   1      34.686  12.354  14.896  0.00  0.00     0.040 A 
HETATM   33  C   UNK N   1      34.892  12.498  13.529  0.00  0.00     0.013 A 
BRANCH  30  34
HETATM   34  O   UNK N   1      37.250  14.712  16.138  0.00  0.00    -0.353 OA
HETATM   35  C   UNK N   1      37.497  16.060  16.014  0.00  0.00     0.210 C 
ENDBRANCH  30  34
BRANCH  31  36
HETATM   36  O   UNK N   1      35.252  12.891  17.116  0.00  0.00    -0.358 OA
HETATM   37  H   UNK N   1      35.169  13.628  17.689  0.00  0.00     0.217 HD
ENDBRANCH  31  36
ENDBRANCH   1  28
BRANCH   2  38
HETATM   38  C   UNK N   1      37.845  11.650  11.013  0.00  0.00     0.199 C 
BRANCH  38  39
HETATM   39  O   UNK N   1      36.759  10.831  10.722  0.00  0.00    -0.398 OA
HETATM   40  H   UNK N   1      36.746  10.314   9.900  0.00  0.00     0.209 HD
ENDBRANCH  38  39
ENDBRANCH   2  38
TORSDOF 9
ENDMDL
