REMARK  8 active torsions:
REMARK  status: ('A' for Active; 'I' for Inactive)
REMARK       I    between atoms: N_11  and  C_1 
REMARK    1  A    between atoms: N_22  and  C_8 
REMARK    2  A    between atoms: O_24  and  C_9 
REMARK    3  A    between atoms: O_25  and  C_10 
REMARK       I    between atoms: C_12  and  N_13 
REMARK    4  A    between atoms: O_16  and  C_12 
REMARK    5  A    between atoms: O_27  and  C_15 
REMARK    6  A    between atoms: C_26  and  O_16 
REMARK    7  A    between atoms: C_23  and  C_26 
REMARK    8  A    between atoms: O_28  and  C_23 
ROOT
HETATM    1  C   UNK N   1      -0.756  -0.449  -0.067  0.00  0.00     0.682 A 
HETATM    2  N   UNK N   1      -0.660  -1.805   0.002  0.00  0.00    -0.176 N 
ATOM      3  HN  UNK N   1       0.260  -2.244   0.012  1.00  0.00     0.186 HD
HETATM    4  C   UNK N   1      -3.124  -0.580  -0.018  0.00  0.00     0.099 A 
HETATM    5  C   UNK N   1      -3.040  -1.982   0.043  0.00  0.00     0.041 A 
HETATM    6  N   UNK N   1      -1.977   0.141  -0.072  0.00  0.00    -0.188 N 
ATOM      7  HN  UNK N   1      -2.035   1.158  -0.119  1.00  0.00     0.184 HD
HETATM    8  C   UNK N   1      -1.772  -2.582   0.059  0.00  0.00     0.127 A 
HETATM    9  C   UNK N   1      -4.391   0.062  -0.032  0.00  0.00     0.132 A 
HETATM   10  C   UNK N   1      -5.574  -0.736   0.002  0.00  0.00     0.137 A 
HETATM   11  N   UNK N   1       0.410   0.350  -0.175  0.00  0.00    -0.214 N 
HETATM   12  C   UNK N   1       3.646   2.948  -0.189  0.00  0.00     0.362 C 
HETATM   13  N   UNK N   1       2.640   2.048  -0.049  0.00  0.00    -0.325 N 
HETATM   14  C   UNK N   1      -4.199  -2.748   0.081  0.00  0.00     0.057 A 
HETATM   15  C   UNK N   1      -5.459  -2.156   0.057  0.00  0.00     0.105 A 
HETATM   16  C   UNK N   1       1.716  -0.285  -0.158  0.00  0.00     0.161 C 
HETATM   17  C   UNK N   1       0.282   1.789  -0.293  0.00  0.00     0.161 C 
HETATM   18  C   UNK N   1       2.869   0.674  -0.474  0.00  0.00     0.148 C 
HETATM   19  C   UNK N   1       1.373   2.438   0.526  0.00  0.00     0.148 C 
HETATM   20  O   UNK N   1       3.513   4.102   0.202  0.00  0.00    -0.238 OA
ENDROOT
BRANCH   8  21
HETATM   21  N   UNK N   1      -1.636  -3.986   0.122  0.00  0.00    -0.384 N 
HETATM   22  H   UNK N   1      -2.436  -4.557   0.166  0.00  0.00     0.157 HD
HETATM   23  H   UNK N   1      -0.740  -4.394   0.122  0.00  0.00     0.157 HD
ENDBRANCH   8  21
BRANCH   9  24
HETATM   24  O   UNK N   1      -4.515   1.421  -0.078  0.00  0.00    -0.351 OA
HETATM   25  C   UNK N   1      -3.499   2.350  -0.061  0.00  0.00     0.210 C 
ENDBRANCH   9  24
BRANCH  10  26
HETATM   26  O   UNK N   1      -6.820  -0.184  -0.016  0.00  0.00    -0.351 OA
HETATM   27  C   UNK N   1      -7.128   1.156  -0.074  0.00  0.00     0.210 C 
ENDBRANCH  10  26
BRANCH  15  28
HETATM   28  O   UNK N   1      -6.530  -2.995   0.088  0.00  0.00    -0.353 OA
HETATM   29  C   UNK N   1      -7.854  -2.622   0.057  0.00  0.00     0.210 C 
ENDBRANCH  15  28
BRANCH  12  30
HETATM   30  O   UNK N   1       4.815   2.544  -0.728  0.00  0.00    -0.301 OA
BRANCH  30  31
HETATM   31  C   UNK N   1       6.009   2.734  -0.081  0.00  0.00     0.217 C 
BRANCH  31  32
HETATM   32  C   UNK N   1       6.592   1.364   0.260  0.00  0.00     0.072 C 
HETATM   33  C   UNK N   1       6.924   0.608  -1.013  0.00  0.00     0.047 C 
HETATM   34  C   UNK N   1       7.853   1.538   1.076  0.00  0.00     0.047 C 
BRANCH  32  35
HETATM   35  O   UNK N   1       5.671   0.625   1.005  0.00  0.00    -0.388 OA
HETATM   36  H   UNK N   1       4.906   0.922   1.522  0.00  0.00     0.210 HD
ENDBRANCH  32  35
ENDBRANCH  31  32
ENDBRANCH  30  31
ENDBRANCH  12  30
TORSDOF 8
