REMARK  4 active torsions:
REMARK  status: ('A' for Active; 'I' for Inactive)
REMARK    1  A    between atoms: N_2  and  C_14 
REMARK    2  A    between atoms: N_3  and  C_13 
REMARK    3  A    between atoms: C_4  and  C_7 
REMARK    4  A    between atoms: C_7  and  C_13 
ROOT
HETATM    1  S   UNK N   1       2.219  -1.469   0.417  0.00  0.00    -0.153 SA
HETATM    2  N   UNK N   1      -1.459   0.407   0.269  0.00  0.00    -0.348 N 
HETATM    3  C   UNK N   1       1.075  -0.019   0.288  0.00  0.00     0.049 C 
HETATM    4  C   UNK N   1      -0.388  -0.438   0.227  0.00  0.00     0.037 A 
HETATM    5  C   UNK N   1      -0.837  -1.755   0.139  0.00  0.00    -0.021 A 
HETATM    6  C   UNK N   1       0.012  -2.976   0.026  0.00  0.00     0.051 C 
HETATM    7  C   UNK N   1      -2.208  -1.705   0.168  0.00  0.00    -0.001 A 
HETATM    8  C   UNK N   1      -2.564  -0.381   0.249  0.00  0.00     0.045 A 
HETATM    9  C   UNK N   1       1.303  -2.597  -0.670  0.00  0.00     0.080 C 
HETATM   10  C   UNK N   1       1.257   0.774   1.573  0.00  0.00     0.034 C 
HETATM   11  C   UNK N   1      -3.150  -2.730   0.140  0.00  0.00     0.014 A 
HETATM   12  C   UNK N   1      -3.909  -0.004   0.316  0.00  0.00     0.030 A 
HETATM   13  C   UNK N   1      -4.507  -2.374   0.211  0.00  0.00     0.001 A 
HETATM   14  C   UNK N   1      -4.885  -1.017   0.301  0.00  0.00     0.002 A 
ENDROOT
BRANCH   3  15
HETATM   15  C   UNK N   1       1.426   0.867  -0.921  0.00  0.00     0.056 C 
BRANCH  15  16
HETATM   16  C   UNK N   1       2.925   1.076  -1.191  0.00  0.00     0.273 C 
BRANCH  16  17
HETATM   17  N   UNK N   1       3.663   1.441   0.011  0.00  0.00     0.080 N 
HETATM   18  C   UNK N   1       4.946   0.765  -0.060  0.00  0.00     0.309 C 
HETATM   19  C   UNK N   1       3.931   2.866  -0.046  0.00  0.00     0.309 C 
ENDBRANCH  16  17
ENDBRANCH  15  16
ENDBRANCH   3  15
BRANCH   2  20
HETATM   20  C   UNK N   1      -1.358   1.874   0.341  0.00  0.00     0.124 C 
HETATM   21  C   UNK N   1      -2.676   2.606   0.149  0.00  0.00     0.027 C 
ENDBRANCH   2  20
TORSDOF 4
