REMARK  5 active torsions:
REMARK  status: ('A' for Active; 'I' for Inactive)
REMARK    1  A    between atoms: C_2  and  O_19 
REMARK    2  A    between atoms: C_9  and  C_11 
REMARK    3  A    between atoms: C_11  and  C_12 
REMARK    4  A    between atoms: O_19  and  C_20 
REMARK    5  A    between atoms: C_20  and  C_21 
ROOT
HETATM    1  C   UNK N   1      -2.296   2.421  -0.001  0.00  0.00     0.037 A 
HETATM    2  C   UNK N   1      -2.539   1.037  -0.033  0.00  0.00     0.070 A 
HETATM    3  C   UNK N   1      -1.452   0.158  -0.057  0.00  0.00     0.049 A 
HETATM    4  C   UNK N   1      -0.151   0.636  -0.030  0.00  0.00    -0.023 A 
HETATM    5  C   UNK N   1       0.109   2.023   0.017  0.00  0.00    -0.025 A 
HETATM    6  C   UNK N   1      -0.976   2.915   0.022  0.00  0.00     0.015 A 
HETATM    7  C   UNK N   1       0.891  -0.273  -0.016  0.00  0.00     0.013 A 
HETATM    8  C   UNK N   1       2.195   0.178   0.080  0.00  0.00     0.008 A 
HETATM    9  C   UNK N   1       2.504   1.535   0.130  0.00  0.00    -0.056 A 
HETATM   10  C   UNK N   1       1.448   2.476   0.094  0.00  0.00     0.019 A 
ENDROOT
BRANCH   2  11
HETATM   11  O   UNK N   1      -3.810   0.560  -0.027  0.00  0.00    -0.347 OA
BRANCH  11  12
HETATM   12  C   UNK N   1      -4.076  -0.799  -0.016  0.00  0.00     0.217 C 
BRANCH  12  13
HETATM   13  C   UNK N   1      -5.536  -1.154  -0.006  0.00  0.00     0.004 A 
HETATM   14  C   UNK N   1      -6.569  -0.193  -0.001  0.00  0.00     0.124 A 
HETATM   15  C   UNK N   1      -7.906  -0.607   0.004  0.00  0.00     0.043 A 
HETATM   16  F   UNK N   1      -6.297   1.135  -0.001  0.00  0.00    -0.205 F 
HETATM   17  C   UNK N   1      -8.224  -1.967   0.004  0.00  0.00     0.003 A 
HETATM   18  C   UNK N   1      -7.205  -2.921   0.001  0.00  0.00     0.001 A 
HETATM   19  C   UNK N   1      -5.869  -2.515  -0.005  0.00  0.00     0.012 A 
ENDBRANCH  12  13
ENDBRANCH  11  12
ENDBRANCH   2  11
BRANCH   9  20
HETATM   20  C   UNK N   1       3.944   1.950   0.370  0.00  0.00     0.063 C 
BRANCH  20  21
HETATM   21  C   UNK N   1       5.010   1.217  -0.484  0.00  0.00     0.153 A 
HETATM   22  C   UNK N   1       5.316  -0.212  -0.061  0.00  0.00     0.239 A 
HETATM   23  N   UNK N   1       6.597  -0.511   0.180  0.00  0.00    -0.287 N 
HETATM   24  O   UNK N   1       4.473  -1.094  -0.019  0.00  0.00    -0.272 OA
HETATM   25  C   UNK N   1       7.415   0.532   0.048  0.00  0.00     0.287 A 
HETATM   26  H   UNK N   1       6.905  -1.412   0.430  0.00  0.00     0.172 HD
HETATM   27  S   UNK N   1       6.634   2.094  -0.343  0.00  0.00    -0.054 SA
HETATM   28  O   UNK N   1       8.625   0.401   0.152  0.00  0.00    -0.260 OA
ENDBRANCH  20  21
ENDBRANCH   9  20
TORSDOF 5
