MODEL 1
REMARK VINA RESULT:      -6.2      0.000      0.000
REMARK  8 active torsions:
REMARK  status: ('A' for Active; 'I' for Inactive)
REMARK    1  A    between atoms: O_1  and  C_10 
REMARK    2  A    between atoms: N_3  and  C_11 
REMARK    3  A    between atoms: N_4  and  C_5 
REMARK    4  A    between atoms: N_4  and  C_12 
REMARK       I    between atoms: N_4  and  C_13 
REMARK    5  A    between atoms: C_5  and  C_10 
REMARK    6  A    between atoms: C_11  and  C_14 
REMARK    7  A    between atoms: C_13  and  C_15 
REMARK    8  A    between atoms: C_14  and  C_18 
ROOT
HETATM    1  N   UNK N   1      32.660  16.068   3.778  0.00  0.00     0.088 N 
HETATM    2  C   UNK N   1      30.124  16.513   5.107  0.00  0.00     0.065 C 
HETATM    3  C   UNK N   1      30.826  17.718   4.435  0.00  0.00     0.064 C 
HETATM    4  C   UNK N   1      30.259  15.382   4.048  0.00  0.00     0.064 C 
HETATM    5  C   UNK N   1      32.331  17.455   4.164  0.00  0.00     0.275 C 
HETATM    6  C   UNK N   1      31.521  15.388   3.161  0.00  0.00     0.275 C 
ENDROOT
BRANCH   2   7
HETATM    7  N   UNK N   1      28.683  16.741   5.440  0.00  0.00    -0.306 N 
HETATM    8  C   UNK N   1      27.814  15.659   5.548  0.00  0.00     0.224 C 
HETATM    9  O   UNK N   1      28.232  14.513   5.503  0.00  0.00    -0.273 OA
BRANCH   7  10
HETATM   10  C   UNK N   1      28.165  18.104   5.449  0.00  0.00     0.038 A 
HETATM   11  C   UNK N   1      28.104  18.863   6.636  0.00  0.00     0.030 A 
HETATM   12  C   UNK N   1      27.638  20.181   6.630  0.00  0.00     0.002 A 
HETATM   13  C   UNK N   1      27.225  20.772   5.436  0.00  0.00     0.000 A 
HETATM   14  C   UNK N   1      27.272  20.044   4.249  0.00  0.00     0.002 A 
HETATM   15  C   UNK N   1      27.737  18.728   4.258  0.00  0.00     0.030 A 
ENDBRANCH   7  10
BRANCH   8  16
HETATM   16  C   UNK N   1      26.317  15.834   5.610  0.00  0.00     0.099 C 
HETATM   17  C   UNK N   1      25.742  15.304   6.907  0.00  0.00     0.014 C 
ENDBRANCH   8  16
ENDBRANCH   2   7
BRANCH   2  18
HETATM   18  C   UNK N   1      30.820  16.101   6.427  0.00  0.00     0.198 C 
BRANCH  18  19
HETATM   19  O   UNK N   1      31.054  17.186   7.287  0.00  0.00    -0.393 OA
HETATM   20  C   UNK N   1      30.876  16.703   8.581  0.00  0.00     0.201 C 
ENDBRANCH  18  19
ENDBRANCH   2  18
BRANCH   1  21
HETATM   21  C   UNK N   1      33.102  15.292   4.934  0.00  0.00     0.277 C 
BRANCH  21  22
HETATM   22  C   UNK N   1      34.493  15.681   5.408  0.00  0.00     0.068 C 
BRANCH  22  23
HETATM   23  C   UNK N   1      34.521  16.129   6.834  0.00  0.00    -0.057 A 
HETATM   24  C   UNK N   1      34.641  15.210   7.889  0.00  0.00     0.007 A 
HETATM   25  C   UNK N   1      34.664  15.660   9.211  0.00  0.00     0.001 A 
HETATM   26  C   UNK N   1      34.550  17.027   9.485  0.00  0.00     0.000 A 
HETATM   27  C   UNK N   1      34.413  17.941   8.437  0.00  0.00     0.001 A 
HETATM   28  C   UNK N   1      34.401  17.492   7.114  0.00  0.00     0.007 A 
ENDBRANCH  22  23
ENDBRANCH  21  22
ENDBRANCH   1  21
TORSDOF 8
ENDMDL
MODEL 2
REMARK VINA RESULT:      -6.2      9.031     10.896
REMARK  8 active torsions:
REMARK  status: ('A' for Active; 'I' for Inactive)
REMARK    1  A    between atoms: O_1  and  C_10 
REMARK    2  A    between atoms: N_3  and  C_11 
REMARK    3  A    between atoms: N_4  and  C_5 
REMARK    4  A    between atoms: N_4  and  C_12 
REMARK       I    between atoms: N_4  and  C_13 
REMARK    5  A    between atoms: C_5  and  C_10 
REMARK    6  A    between atoms: C_11  and  C_14 
REMARK    7  A    between atoms: C_13  and  C_15 
REMARK    8  A    between atoms: C_14  and  C_18 
ROOT
HETATM    1  N   UNK N   1      20.708  16.664   6.641  0.00  0.00     0.088 N 
HETATM    2  C   UNK N   1      21.264  15.247   4.176  0.00  0.00     0.065 C 
HETATM    3  C   UNK N   1      19.819  15.740   4.435  0.00  0.00     0.064 C 
HETATM    4  C   UNK N   1      22.138  16.466   4.586  0.00  0.00     0.064 C 
HETATM    5  C   UNK N   1      19.560  16.069   5.929  0.00  0.00     0.275 C 
HETATM    6  C   UNK N   1      21.616  17.360   5.730  0.00  0.00     0.275 C 
ENDROOT
BRANCH   2   7
HETATM    7  N   UNK N   1      21.544  14.863   2.758  0.00  0.00    -0.306 N 
HETATM    8  C   UNK N   1      22.829  14.486   2.379  0.00  0.00     0.224 C 
HETATM    9  O   UNK N   1      23.708  14.338   3.212  0.00  0.00    -0.273 OA
BRANCH   7  10
HETATM   10  C   UNK N   1      20.514  15.081   1.747  0.00  0.00     0.038 A 
HETATM   11  C   UNK N   1      20.393  16.313   1.071  0.00  0.00     0.030 A 
HETATM   12  C   UNK N   1      19.426  16.503   0.079  0.00  0.00     0.002 A 
HETATM   13  C   UNK N   1      18.559  15.464  -0.261  0.00  0.00     0.000 A 
HETATM   14  C   UNK N   1      18.656  14.237   0.393  0.00  0.00     0.002 A 
HETATM   15  C   UNK N   1      19.622  14.050   1.384  0.00  0.00     0.030 A 
ENDBRANCH   7  10
BRANCH   8  16
HETATM   16  C   UNK N   1      23.234  14.353   0.932  0.00  0.00     0.099 C 
HETATM   17  C   UNK N   1      23.203  12.912   0.469  0.00  0.00     0.014 C 
ENDBRANCH   8  16
ENDBRANCH   2   7
BRANCH   2  18
HETATM   18  C   UNK N   1      21.617  14.015   5.043  0.00  0.00     0.198 C 
BRANCH  18  19
HETATM   19  O   UNK N   1      20.750  12.930   4.837  0.00  0.00    -0.393 OA
HETATM   20  C   UNK N   1      20.707  12.231   6.041  0.00  0.00     0.201 C 
ENDBRANCH  18  19
ENDBRANCH   2  18
BRANCH   1  21
HETATM   21  C   UNK N   1      21.462  15.645   7.369  0.00  0.00     0.277 C 
BRANCH  21  22
HETATM   22  C   UNK N   1      20.794  15.237   8.672  0.00  0.00     0.068 C 
BRANCH  22  23
HETATM   23  C   UNK N   1      21.436  14.047   9.311  0.00  0.00    -0.057 A 
HETATM   24  C   UNK N   1      22.710  13.603   8.920  0.00  0.00     0.007 A 
HETATM   25  C   UNK N   1      23.283  12.488   9.536  0.00  0.00     0.001 A 
HETATM   26  C   UNK N   1      22.580  11.803  10.532  0.00  0.00     0.000 A 
HETATM   27  C   UNK N   1      21.305  12.234  10.910  0.00  0.00     0.001 A 
HETATM   28  C   UNK N   1      20.737  13.355  10.302  0.00  0.00     0.007 A 
ENDBRANCH  22  23
ENDBRANCH  21  22
ENDBRANCH   1  21
TORSDOF 8
ENDMDL
MODEL 3
REMARK VINA RESULT:      -6.1     12.582     15.626
REMARK  8 active torsions:
REMARK  status: ('A' for Active; 'I' for Inactive)
REMARK    1  A    between atoms: O_1  and  C_10 
REMARK    2  A    between atoms: N_3  and  C_11 
REMARK    3  A    between atoms: N_4  and  C_5 
REMARK    4  A    between atoms: N_4  and  C_12 
REMARK       I    between atoms: N_4  and  C_13 
REMARK    5  A    between atoms: C_5  and  C_10 
REMARK    6  A    between atoms: C_11  and  C_14 
REMARK    7  A    between atoms: C_13  and  C_15 
REMARK    8  A    between atoms: C_14  and  C_18 
ROOT
HETATM    1  N   UNK N   1      25.639  24.543  -5.245  0.00  0.00     0.088 N 
HETATM    2  C   UNK N   1      28.490  24.028  -5.195  0.00  0.00     0.065 C 
HETATM    3  C   UNK N   1      27.706  23.971  -3.861  0.00  0.00     0.064 C 
HETATM    4  C   UNK N   1      27.576  23.248  -6.182  0.00  0.00     0.064 C 
HETATM    5  C   UNK N   1      26.330  24.683  -3.948  0.00  0.00     0.275 C 
HETATM    6  C   UNK N   1      26.052  23.333  -5.957  0.00  0.00     0.275 C 
ENDROOT
BRANCH   2   7
HETATM    7  N   UNK N   1      29.848  23.404  -5.144  0.00  0.00    -0.306 N 
HETATM    8  C   UNK N   1      30.835  23.951  -4.328  0.00  0.00     0.224 C 
HETATM    9  O   UNK N   1      30.575  24.857  -3.553  0.00  0.00    -0.273 OA
BRANCH   7  10
HETATM   10  C   UNK N   1      30.182  22.353  -6.099  0.00  0.00     0.038 A 
HETATM   11  C   UNK N   1      30.638  22.655  -7.399  0.00  0.00     0.030 A 
HETATM   12  C   UNK N   1      30.990  21.642  -8.296  0.00  0.00     0.002 A 
HETATM   13  C   UNK N   1      30.896  20.304  -7.913  0.00  0.00     0.000 A 
HETATM   14  C   UNK N   1      30.447  19.978  -6.635  0.00  0.00     0.002 A 
HETATM   15  C   UNK N   1      30.096  20.991  -5.741  0.00  0.00     0.030 A 
ENDBRANCH   7  10
BRANCH   8  16
HETATM   16  C   UNK N   1      32.283  23.542  -4.436  0.00  0.00     0.099 C 
HETATM   17  C   UNK N   1      33.095  24.547  -5.226  0.00  0.00     0.014 C 
ENDBRANCH   8  16
ENDBRANCH   2   7
BRANCH   2  18
HETATM   18  C   UNK N   1      28.693  25.483  -5.684  0.00  0.00     0.198 C 
BRANCH  18  19
HETATM   19  O   UNK N   1      29.110  25.560  -7.022  0.00  0.00    -0.393 OA
HETATM   20  C   UNK N   1      30.109  26.530  -7.063  0.00  0.00     0.201 C 
ENDBRANCH  18  19
ENDBRANCH   2  18
BRANCH   1  21
HETATM   21  C   UNK N   1      25.887  25.701  -6.101  0.00  0.00     0.277 C 
BRANCH  21  22
HETATM   22  C   UNK N   1      25.112  26.934  -5.664  0.00  0.00     0.068 C 
BRANCH  22  23
HETATM   23  C   UNK N   1      25.997  28.050  -5.212  0.00  0.00    -0.057 A 
HETATM   24  C   UNK N   1      27.034  28.540  -6.024  0.00  0.00     0.007 A 
HETATM   25  C   UNK N   1      27.844  29.584  -5.573  0.00  0.00     0.001 A 
HETATM   26  C   UNK N   1      27.632  30.133  -4.304  0.00  0.00     0.000 A 
HETATM   27  C   UNK N   1      26.613  29.636  -3.489  0.00  0.00     0.001 A 
HETATM   28  C   UNK N   1      25.796  28.599  -3.943  0.00  0.00     0.007 A 
ENDBRANCH  22  23
ENDBRANCH  21  22
ENDBRANCH   1  21
TORSDOF 8
ENDMDL
MODEL 4
REMARK VINA RESULT:      -6.1     11.997     15.448
REMARK  8 active torsions:
REMARK  status: ('A' for Active; 'I' for Inactive)
REMARK    1  A    between atoms: O_1  and  C_10 
REMARK    2  A    between atoms: N_3  and  C_11 
REMARK    3  A    between atoms: N_4  and  C_5 
REMARK    4  A    between atoms: N_4  and  C_12 
REMARK       I    between atoms: N_4  and  C_13 
REMARK    5  A    between atoms: C_5  and  C_10 
REMARK    6  A    between atoms: C_11  and  C_14 
REMARK    7  A    between atoms: C_13  and  C_15 
REMARK    8  A    between atoms: C_14  and  C_18 
ROOT
HETATM    1  N   UNK N   1      25.641  24.617  -5.206  0.00  0.00     0.088 N 
HETATM    2  C   UNK N   1      28.210  23.609  -6.090  0.00  0.00     0.065 C 
HETATM    3  C   UNK N   1      27.982  23.820  -4.573  0.00  0.00     0.064 C 
HETATM    4  C   UNK N   1      26.899  22.914  -6.557  0.00  0.00     0.064 C 
HETATM    5  C   UNK N   1      26.779  24.755  -4.275  0.00  0.00     0.275 C 
HETATM    6  C   UNK N   1      25.596  23.291  -5.823  0.00  0.00     0.275 C 
ENDROOT
BRANCH   2   7
HETATM    7  N   UNK N   1      29.394  22.760  -6.427  0.00  0.00    -0.306 N 
HETATM    8  C   UNK N   1      29.468  22.129  -7.665  0.00  0.00     0.224 C 
HETATM    9  O   UNK N   1      28.644  22.358  -8.535  0.00  0.00    -0.273 OA
BRANCH   7  10
HETATM   10  C   UNK N   1      30.360  22.442  -5.380  0.00  0.00     0.038 A 
HETATM   11  C   UNK N   1      30.178  21.340  -4.519  0.00  0.00     0.030 A 
HETATM   12  C   UNK N   1      31.125  21.021  -3.541  0.00  0.00     0.002 A 
HETATM   13  C   UNK N   1      32.278  21.795  -3.404  0.00  0.00     0.000 A 
HETATM   14  C   UNK N   1      32.480  22.891  -4.241  0.00  0.00     0.002 A 
HETATM   15  C   UNK N   1      31.533  23.208  -5.216  0.00  0.00     0.030 A 
ENDBRANCH   7  10
BRANCH   8  16
HETATM   16  C   UNK N   1      30.487  21.056  -7.960  0.00  0.00     0.099 C 
HETATM   17  C   UNK N   1      29.892  19.668  -7.845  0.00  0.00     0.014 C 
ENDBRANCH   8  16
ENDBRANCH   2   7
BRANCH   2  18
HETATM   18  C   UNK N   1      28.404  24.951  -6.837  0.00  0.00     0.198 C 
BRANCH  18  19
HETATM   19  O   UNK N   1      29.386  25.768  -6.255  0.00  0.00    -0.393 OA
HETATM   20  C   UNK N   1      30.208  26.191  -7.296  0.00  0.00     0.201 C 
ENDBRANCH  18  19
ENDBRANCH   2  18
BRANCH   1  21
HETATM   21  C   UNK N   1      25.701  25.626  -6.262  0.00  0.00     0.277 C 
BRANCH  21  22
HETATM   22  C   UNK N   1      25.015  26.927  -5.875  0.00  0.00     0.068 C 
BRANCH  22  23
HETATM   23  C   UNK N   1      25.966  27.955  -5.352  0.00  0.00    -0.057 A 
HETATM   24  C   UNK N   1      27.060  28.397  -6.114  0.00  0.00     0.007 A 
HETATM   25  C   UNK N   1      27.931  29.359  -5.597  0.00  0.00     0.001 A 
HETATM   26  C   UNK N   1      27.722  29.871  -4.312  0.00  0.00     0.000 A 
HETATM   27  C   UNK N   1      26.644  29.420  -3.546  0.00  0.00     0.001 A 
HETATM   28  C   UNK N   1      25.767  28.465  -4.067  0.00  0.00     0.007 A 
ENDBRANCH  22  23
ENDBRANCH  21  22
ENDBRANCH   1  21
TORSDOF 8
ENDMDL
MODEL 5
REMARK VINA RESULT:      -6.0      8.077     10.298
REMARK  8 active torsions:
REMARK  status: ('A' for Active; 'I' for Inactive)
REMARK    1  A    between atoms: O_1  and  C_10 
REMARK    2  A    between atoms: N_3  and  C_11 
REMARK    3  A    between atoms: N_4  and  C_5 
REMARK    4  A    between atoms: N_4  and  C_12 
REMARK       I    between atoms: N_4  and  C_13 
REMARK    5  A    between atoms: C_5  and  C_10 
REMARK    6  A    between atoms: C_11  and  C_14 
REMARK    7  A    between atoms: C_13  and  C_15 
REMARK    8  A    between atoms: C_14  and  C_18 
ROOT
HETATM    1  N   UNK N   1      19.775  16.609   8.444  0.00  0.00     0.088 N 
HETATM    2  C   UNK N   1      20.762  16.366   5.731  0.00  0.00     0.065 C 
HETATM    3  C   UNK N   1      19.238  16.248   5.975  0.00  0.00     0.064 C 
HETATM    4  C   UNK N   1      21.172  17.588   6.601  0.00  0.00     0.064 C 
HETATM    5  C   UNK N   1      18.893  15.952   7.458  0.00  0.00     0.275 C 
HETATM    6  C   UNK N   1      20.385  17.825   7.906  0.00  0.00     0.275 C 
ENDROOT
BRANCH   2   7
HETATM    7  N   UNK N   1      21.146  16.594   4.303  0.00  0.00    -0.306 N 
HETATM    8  C   UNK N   1      20.911  15.606   3.352  0.00  0.00     0.224 C 
HETATM    9  O   UNK N   1      20.278  14.602   3.636  0.00  0.00    -0.273 OA
BRANCH   7  10
HETATM   10  C   UNK N   1      21.945  17.767   3.963  0.00  0.00     0.038 A 
HETATM   11  C   UNK N   1      23.338  17.799   4.175  0.00  0.00     0.030 A 
HETATM   12  C   UNK N   1      24.101  18.913   3.814  0.00  0.00     0.002 A 
HETATM   13  C   UNK N   1      23.488  20.021   3.229  0.00  0.00     0.000 A 
HETATM   14  C   UNK N   1      22.112  20.017   3.009  0.00  0.00     0.002 A 
HETATM   15  C   UNK N   1      21.352  18.903   3.371  0.00  0.00     0.030 A 
ENDBRANCH   7  10
BRANCH   8  16
HETATM   16  C   UNK N   1      21.513  15.661   1.970  0.00  0.00     0.099 C 
HETATM   17  C   UNK N   1      20.487  16.047   0.925  0.00  0.00     0.014 C 
ENDBRANCH   8  16
ENDBRANCH   2   7
BRANCH   2  18
HETATM   18  C   UNK N   1      21.520  15.097   6.192  0.00  0.00     0.198 C 
BRANCH  18  19
HETATM   19  O   UNK N   1      22.903  15.301   6.329  0.00  0.00    -0.393 OA
HETATM   20  C   UNK N   1      23.519  14.184   5.771  0.00  0.00     0.201 C 
ENDBRANCH  18  19
ENDBRANCH   2  18
BRANCH   1  21
HETATM   21  C   UNK N   1      20.835  15.705   8.885  0.00  0.00     0.277 C 
BRANCH  21  22
HETATM   22  C   UNK N   1      20.299  14.399   9.450  0.00  0.00     0.068 C 
BRANCH  22  23
HETATM   23  C   UNK N   1      21.373  13.515   9.997  0.00  0.00    -0.057 A 
HETATM   24  C   UNK N   1      22.679  13.539   9.479  0.00  0.00     0.007 A 
HETATM   25  C   UNK N   1      23.659  12.700  10.013  0.00  0.00     0.001 A 
HETATM   26  C   UNK N   1      23.337  11.823  11.054  0.00  0.00     0.000 A 
HETATM   27  C   UNK N   1      22.035  11.787  11.559  0.00  0.00     0.001 A 
HETATM   28  C   UNK N   1      21.056  12.633  11.033  0.00  0.00     0.007 A 
ENDBRANCH  22  23
ENDBRANCH  21  22
ENDBRANCH   1  21
TORSDOF 8
ENDMDL
MODEL 6
REMARK VINA RESULT:      -6.0     10.730     14.398
REMARK  8 active torsions:
REMARK  status: ('A' for Active; 'I' for Inactive)
REMARK    1  A    between atoms: O_1  and  C_10 
REMARK    2  A    between atoms: N_3  and  C_11 
REMARK    3  A    between atoms: N_4  and  C_5 
REMARK    4  A    between atoms: N_4  and  C_12 
REMARK       I    between atoms: N_4  and  C_13 
REMARK    5  A    between atoms: C_5  and  C_10 
REMARK    6  A    between atoms: C_11  and  C_14 
REMARK    7  A    between atoms: C_13  and  C_15 
REMARK    8  A    between atoms: C_14  and  C_18 
ROOT
HETATM    1  N   UNK N   1      29.179  24.332  -3.154  0.00  0.00     0.088 N 
HETATM    2  C   UNK N   1      31.116  22.524  -4.327  0.00  0.00     0.065 C 
HETATM    3  C   UNK N   1      31.599  23.917  -3.852  0.00  0.00     0.064 C 
HETATM    4  C   UNK N   1      30.208  22.041  -3.160  0.00  0.00     0.064 C 
HETATM    5  C   UNK N   1      30.431  24.922  -3.669  0.00  0.00     0.275 C 
HETATM    6  C   UNK N   1      29.426  23.116  -2.378  0.00  0.00     0.275 C 
ENDROOT
BRANCH   2   7
HETATM    7  N   UNK N   1      32.213  21.537  -4.573  0.00  0.00    -0.306 N 
HETATM    8  C   UNK N   1      32.988  21.079  -3.511  0.00  0.00     0.224 C 
HETATM    9  O   UNK N   1      32.706  21.370  -2.360  0.00  0.00    -0.273 OA
BRANCH   7  10
HETATM   10  C   UNK N   1      32.587  21.221  -5.947  0.00  0.00     0.038 A 
HETATM   11  C   UNK N   1      33.296  22.139  -6.749  0.00  0.00     0.030 A 
HETATM   12  C   UNK N   1      33.682  21.815  -8.053  0.00  0.00     0.002 A 
HETATM   13  C   UNK N   1      33.371  20.564  -8.584  0.00  0.00     0.000 A 
HETATM   14  C   UNK N   1      32.669  19.638  -7.814  0.00  0.00     0.002 A 
HETATM   15  C   UNK N   1      32.284  19.964  -6.512  0.00  0.00     0.030 A 
ENDBRANCH   7  10
BRANCH   8  16
HETATM   16  C   UNK N   1      34.265  20.306  -3.724  0.00  0.00     0.099 C 
HETATM   17  C   UNK N   1      35.455  21.225  -3.906  0.00  0.00     0.014 C 
ENDBRANCH   8  16
ENDBRANCH   2   7
BRANCH   2  18
HETATM   18  C   UNK N   1      30.302  22.613  -5.641  0.00  0.00     0.198 C 
BRANCH  18  19
HETATM   19  O   UNK N   1      29.380  21.565  -5.789  0.00  0.00    -0.393 OA
HETATM   20  C   UNK N   1      28.951  21.607  -7.114  0.00  0.00     0.201 C 
ENDBRANCH  18  19
ENDBRANCH   2  18
BRANCH   1  21
HETATM   21  C   UNK N   1      28.259  24.016  -4.245  0.00  0.00     0.277 C 
BRANCH  21  22
HETATM   22  C   UNK N   1      26.799  24.145  -3.840  0.00  0.00     0.068 C 
BRANCH  22  23
HETATM   23  C   UNK N   1      26.205  25.466  -4.207  0.00  0.00    -0.057 A 
HETATM   24  C   UNK N   1      25.512  25.649  -5.415  0.00  0.00     0.007 A 
HETATM   25  C   UNK N   1      24.969  26.897  -5.729  0.00  0.00     0.001 A 
HETATM   26  C   UNK N   1      25.130  27.970  -4.846  0.00  0.00     0.000 A 
HETATM   27  C   UNK N   1      25.833  27.794  -3.652  0.00  0.00     0.001 A 
HETATM   28  C   UNK N   1      26.368  26.544  -3.333  0.00  0.00     0.007 A 
ENDBRANCH  22  23
ENDBRANCH  21  22
ENDBRANCH   1  21
TORSDOF 8
ENDMDL
MODEL 7
REMARK VINA RESULT:      -6.0      5.375      8.900
REMARK  8 active torsions:
REMARK  status: ('A' for Active; 'I' for Inactive)
REMARK    1  A    between atoms: O_1  and  C_10 
REMARK    2  A    between atoms: N_3  and  C_11 
REMARK    3  A    between atoms: N_4  and  C_5 
REMARK    4  A    between atoms: N_4  and  C_12 
REMARK       I    between atoms: N_4  and  C_13 
REMARK    5  A    between atoms: C_5  and  C_10 
REMARK    6  A    between atoms: C_11  and  C_14 
REMARK    7  A    between atoms: C_13  and  C_15 
REMARK    8  A    between atoms: C_14  and  C_18 
ROOT
HETATM    1  N   UNK N   1      21.073  16.509   6.246  0.00  0.00     0.088 N 
HETATM    2  C   UNK N   1      23.508  16.354   4.684  0.00  0.00     0.065 C 
HETATM    3  C   UNK N   1      22.161  16.059   3.981  0.00  0.00     0.064 C 
HETATM    4  C   UNK N   1      23.204  17.626   5.525  0.00  0.00     0.064 C 
HETATM    5  C   UNK N   1      21.022  15.741   4.986  0.00  0.00     0.275 C 
HETATM    6  C   UNK N   1      21.774  17.783   6.081  0.00  0.00     0.275 C 
ENDROOT
BRANCH   2   7
HETATM    7  N   UNK N   1      24.651  16.610   3.752  0.00  0.00    -0.306 N 
HETATM    8  C   UNK N   1      25.051  15.625   2.855  0.00  0.00     0.224 C 
HETATM    9  O   UNK N   1      24.405  14.599   2.722  0.00  0.00    -0.273 OA
BRANCH   7  10
HETATM   10  C   UNK N   1      25.458  17.812   3.934  0.00  0.00     0.038 A 
HETATM   11  C   UNK N   1      26.600  17.815   4.761  0.00  0.00     0.030 A 
HETATM   12  C   UNK N   1      27.389  18.961   4.903  0.00  0.00     0.002 A 
HETATM   13  C   UNK N   1      27.055  20.130   4.218  0.00  0.00     0.000 A 
HETATM   14  C   UNK N   1      25.930  20.154   3.396  0.00  0.00     0.002 A 
HETATM   15  C   UNK N   1      25.143  19.009   3.256  0.00  0.00     0.030 A 
ENDBRANCH   7  10
BRANCH   8  16
HETATM   16  C   UNK N   1      26.348  15.715   2.090  0.00  0.00     0.099 C 
HETATM   17  C   UNK N   1      27.391  14.763   2.636  0.00  0.00     0.014 C 
ENDBRANCH   8  16
ENDBRANCH   2   7
BRANCH   2  18
HETATM   18  C   UNK N   1      23.946  15.190   5.606  0.00  0.00     0.198 C 
BRANCH  18  19
HETATM   19  O   UNK N   1      24.957  15.554   6.510  0.00  0.00    -0.393 OA
HETATM   20  C   UNK N   1      25.712  14.405   6.733  0.00  0.00     0.201 C 
ENDBRANCH  18  19
ENDBRANCH   2  18
BRANCH   1  21
HETATM   21  C   UNK N   1      21.731  15.743   7.303  0.00  0.00     0.277 C 
BRANCH  21  22
HETATM   22  C   UNK N   1      20.748  15.149   8.298  0.00  0.00     0.068 C 
BRANCH  22  23
HETATM   23  C   UNK N   1      21.344  14.056   9.127  0.00  0.00    -0.057 A 
HETATM   24  C   UNK N   1      22.640  13.573   8.881  0.00  0.00     0.007 A 
HETATM   25  C   UNK N   1      23.168  12.551   9.674  0.00  0.00     0.001 A 
HETATM   26  C   UNK N   1      22.399  11.998  10.703  0.00  0.00     0.000 A 
HETATM   27  C   UNK N   1      21.104  12.466  10.937  0.00  0.00     0.001 A 
HETATM   28  C   UNK N   1      20.579  13.495  10.153  0.00  0.00     0.007 A 
ENDBRANCH  22  23
ENDBRANCH  21  22
ENDBRANCH   1  21
TORSDOF 8
ENDMDL
MODEL 8
REMARK VINA RESULT:      -5.9      6.049     10.502
REMARK  8 active torsions:
REMARK  status: ('A' for Active; 'I' for Inactive)
REMARK    1  A    between atoms: O_1  and  C_10 
REMARK    2  A    between atoms: N_3  and  C_11 
REMARK    3  A    between atoms: N_4  and  C_5 
REMARK    4  A    between atoms: N_4  and  C_12 
REMARK       I    between atoms: N_4  and  C_13 
REMARK    5  A    between atoms: C_5  and  C_10 
REMARK    6  A    between atoms: C_11  and  C_14 
REMARK    7  A    between atoms: C_13  and  C_15 
REMARK    8  A    between atoms: C_14  and  C_18 
ROOT
HETATM    1  N   UNK N   1      35.648  14.996  10.149  0.00  0.00     0.088 N 
HETATM    2  C   UNK N   1      36.237  13.390  12.488  0.00  0.00     0.065 C 
HETATM    3  C   UNK N   1      37.147  13.243  11.243  0.00  0.00     0.064 C 
HETATM    4  C   UNK N   1      36.063  14.929  12.625  0.00  0.00     0.064 C 
HETATM    5  C   UNK N   1      36.484  13.795   9.953  0.00  0.00     0.275 C 
HETATM    6  C   UNK N   1      36.058  15.761  11.327  0.00  0.00     0.275 C 
ENDROOT
BRANCH   2   7
HETATM    7  N   UNK N   1      36.811  12.819  13.746  0.00  0.00    -0.306 N 
HETATM    8  C   UNK N   1      37.562  11.648  13.700  0.00  0.00     0.224 C 
HETATM    9  O   UNK N   1      37.871  11.144  12.633  0.00  0.00    -0.273 OA
BRANCH   7  10
HETATM   10  C   UNK N   1      36.410  13.385  15.029  0.00  0.00     0.038 A 
HETATM   11  C   UNK N   1      35.292  12.894  15.735  0.00  0.00     0.030 A 
HETATM   12  C   UNK N   1      34.935  13.419  16.981  0.00  0.00     0.002 A 
HETATM   13  C   UNK N   1      35.688  14.445  17.551  0.00  0.00     0.000 A 
HETATM   14  C   UNK N   1      36.796  14.951  16.873  0.00  0.00     0.002 A 
HETATM   15  C   UNK N   1      37.151  14.426  15.629  0.00  0.00     0.030 A 
ENDBRANCH   7  10
BRANCH   8  16
HETATM   16  C   UNK N   1      37.932  10.882  14.946  0.00  0.00     0.099 C 
HETATM   17  C   UNK N   1      37.268   9.522  14.989  0.00  0.00     0.014 C 
ENDBRANCH   8  16
ENDBRANCH   2   7
BRANCH   2  18
HETATM   18  C   UNK N   1      34.863  12.708  12.283  0.00  0.00     0.198 C 
BRANCH  18  19
HETATM   19  O   UNK N   1      34.964  11.419  11.736  0.00  0.00    -0.393 OA
HETATM   20  C   UNK N   1      34.184  10.592  12.541  0.00  0.00     0.201 C 
ENDBRANCH  18  19
ENDBRANCH   2  18
BRANCH   1  21
HETATM   21  C   UNK N   1      34.238  14.638  10.289  0.00  0.00     0.277 C 
BRANCH  21  22
HETATM   22  C   UNK N   1      33.597  14.240   8.968  0.00  0.00     0.068 C 
BRANCH  22  23
HETATM   23  C   UNK N   1      33.458  15.386   8.018  0.00  0.00    -0.057 A 
HETATM   24  C   UNK N   1      34.324  15.539   6.922  0.00  0.00     0.007 A 
HETATM   25  C   UNK N   1      34.167  16.620   6.052  0.00  0.00     0.001 A 
HETATM   26  C   UNK N   1      33.158  17.561   6.282  0.00  0.00     0.000 A 
HETATM   27  C   UNK N   1      32.307  17.419   7.381  0.00  0.00     0.001 A 
HETATM   28  C   UNK N   1      32.456  16.332   8.246  0.00  0.00     0.007 A 
ENDBRANCH  22  23
ENDBRANCH  21  22
ENDBRANCH   1  21
TORSDOF 8
ENDMDL
MODEL 9
REMARK VINA RESULT:      -5.9      5.030      8.573
REMARK  8 active torsions:
REMARK  status: ('A' for Active; 'I' for Inactive)
REMARK    1  A    between atoms: O_1  and  C_10 
REMARK    2  A    between atoms: N_3  and  C_11 
REMARK    3  A    between atoms: N_4  and  C_5 
REMARK    4  A    between atoms: N_4  and  C_12 
REMARK       I    between atoms: N_4  and  C_13 
REMARK    5  A    between atoms: C_5  and  C_10 
REMARK    6  A    between atoms: C_11  and  C_14 
REMARK    7  A    between atoms: C_13  and  C_15 
REMARK    8  A    between atoms: C_14  and  C_18 
ROOT
HETATM    1  N   UNK N   1      35.373  12.769  12.039  0.00  0.00     0.088 N 
HETATM    2  C   UNK N   1      35.404  14.635   9.823  0.00  0.00     0.065 C 
HETATM    3  C   UNK N   1      34.978  13.172   9.550  0.00  0.00     0.064 C 
HETATM    4  C   UNK N   1      34.641  14.993  11.130  0.00  0.00     0.064 C 
HETATM    5  C   UNK N   1      35.422  12.202  10.677  0.00  0.00     0.275 C 
HETATM    6  C   UNK N   1      34.399  13.856  12.144  0.00  0.00     0.275 C 
ENDROOT
BRANCH   2   7
HETATM    7  N   UNK N   1      35.047  15.598   8.736  0.00  0.00    -0.306 N 
HETATM    8  C   UNK N   1      34.961  16.960   9.012  0.00  0.00     0.224 C 
HETATM    9  O   UNK N   1      35.298  17.400  10.099  0.00  0.00    -0.273 OA
BRANCH   7  10
HETATM   10  C   UNK N   1      34.598  15.080   7.448  0.00  0.00     0.038 A 
HETATM   11  C   UNK N   1      35.484  14.938   6.360  0.00  0.00     0.030 A 
HETATM   12  C   UNK N   1      35.053  14.408   5.140  0.00  0.00     0.002 A 
HETATM   13  C   UNK N   1      33.728  14.004   4.981  0.00  0.00     0.000 A 
HETATM   14  C   UNK N   1      32.831  14.135   6.040  0.00  0.00     0.002 A 
HETATM   15  C   UNK N   1      33.263  14.665   7.257  0.00  0.00     0.030 A 
ENDBRANCH   7  10
BRANCH   8  16
HETATM   16  C   UNK N   1      34.349  17.939   8.042  0.00  0.00     0.099 C 
HETATM   17  C   UNK N   1      32.872  18.145   8.307  0.00  0.00     0.014 C 
ENDBRANCH   8  16
ENDBRANCH   2   7
BRANCH   2  18
HETATM   18  C   UNK N   1      36.932  14.762  10.039  0.00  0.00     0.198 C 
BRANCH  18  19
HETATM   19  O   UNK N   1      37.683  14.167   9.012  0.00  0.00    -0.393 OA
HETATM   20  C   UNK N   1      38.868  13.730   9.600  0.00  0.00     0.201 C 
ENDBRANCH  18  19
ENDBRANCH   2  18
BRANCH   1  21
HETATM   21  C   UNK N   1      36.684  13.269  12.448  0.00  0.00     0.277 C 
BRANCH  21  22
HETATM   22  C   UNK N   1      36.676  13.871  13.844  0.00  0.00     0.068 C 
BRANCH  22  23
HETATM   23  C   UNK N   1      36.407  12.861  14.913  0.00  0.00    -0.057 A 
HETATM   24  C   UNK N   1      37.032  11.603  14.908  0.00  0.00     0.007 A 
HETATM   25  C   UNK N   1      36.760  10.682  15.922  0.00  0.00     0.001 A 
HETATM   26  C   UNK N   1      35.852  11.006  16.935  0.00  0.00     0.000 A 
HETATM   27  C   UNK N   1      35.217  12.251  16.932  0.00  0.00     0.001 A 
HETATM   28  C   UNK N   1      35.497  13.177  15.925  0.00  0.00     0.007 A 
ENDBRANCH  22  23
ENDBRANCH  21  22
ENDBRANCH   1  21
TORSDOF 8
ENDMDL
