MODEL 1
REMARK VINA RESULT:      -6.2      0.000      0.000
REMARK  8 active torsions:
REMARK  status: ('A' for Active; 'I' for Inactive)
REMARK    1  A    between atoms: C_13  and  C_11 
REMARK    2  A    between atoms: N_22  and  C_11 
REMARK    3  A    between atoms: C_16  and  C_12 
REMARK    4  A    between atoms: O_23  and  C_12 
REMARK    5  A    between atoms: C_16  and  C_14 
REMARK    6  A    between atoms: C_15  and  O_25 
REMARK    7  A    between atoms: C_21  and  C_16 
REMARK    8  A    between atoms: O_25  and  C_21 
ROOT
HETATM    1  C   UNK N   1      34.883  15.732   6.226  0.00  0.00     0.273 C 
HETATM    2  C   UNK N   1      32.704  18.063   8.372  0.00  0.00     0.069 C 
HETATM    3  C   UNK N   1      32.018  15.643   8.747  0.00  0.00     0.069 C 
HETATM    4  C   UNK N   1      31.521  17.092   8.577  0.00  0.00     0.136 C 
HETATM    5  C   UNK N   1      33.972  17.438   7.698  0.00  0.00     0.224 C 
HETATM    6  C   UNK N   1      33.356  15.303   8.032  0.00  0.00     0.224 C 
HETATM    7  C   UNK N   1      34.917  16.957   8.820  0.00  0.00     0.184 A 
HETATM    8  C   UNK N   1      34.493  15.518   9.054  0.00  0.00     0.184 A 
HETATM    9  N   UNK N   1      33.679  16.217   6.920  0.00  0.00    -0.057 N 
HETATM   10  O   UNK N   1      34.324  16.527  10.021  0.00  0.00    -0.371 OA
ENDROOT
BRANCH   4  11
HETATM   11  O   UNK N   1      30.734  17.174   7.446  0.00  0.00    -0.315 OA
BRANCH  11  12
HETATM   12  C   UNK N   1      29.376  17.137   7.346  0.00  0.00     0.270 C 
HETATM   13  O   UNK N   1      28.731  17.095   8.380  0.00  0.00    -0.264 OA
BRANCH  12  14
HETATM   14  C   UNK N   1      28.627  17.116   6.024  0.00  0.00     0.142 C 
BRANCH  14  15
HETATM   15  C   UNK N   1      27.549  16.017   6.093  0.00  0.00     0.183 C 
BRANCH  15  16
HETATM   16  O   UNK N   1      26.460  16.396   6.888  0.00  0.00    -0.400 OA
HETATM   17  H   UNK N   1      25.868  16.179   7.625  0.00  0.00     0.209 HD
ENDBRANCH  15  16
ENDBRANCH  14  15
BRANCH  14  18
HETATM   18  C   UNK N   1      28.052  18.489   5.702  0.00  0.00    -0.043 A 
HETATM   19  C   UNK N   1      27.641  18.839   4.403  0.00  0.00     0.008 A 
HETATM   20  C   UNK N   1      27.120  20.109   4.137  0.00  0.00     0.001 A 
HETATM   21  C   UNK N   1      27.020  21.051   5.164  0.00  0.00     0.000 A 
HETATM   22  C   UNK N   1      27.436  20.720   6.456  0.00  0.00     0.001 A 
HETATM   23  C   UNK N   1      27.944  19.447   6.721  0.00  0.00     0.008 A 
ENDBRANCH  14  18
ENDBRANCH  12  14
ENDBRANCH  11  12
ENDBRANCH   4  11
BRANCH   9  24
HETATM   24  C   UNK N   1      32.631  16.315   5.887  0.00  0.00     0.242 C 
BRANCH  24  25
HETATM   25  C   UNK N   1      32.938  17.338   4.786  0.00  0.00     0.012 A 
HETATM   26  C   UNK N   1      32.603  16.724   3.441  0.00  0.00     0.007 A 
HETATM   27  C   UNK N   1      31.672  17.746   4.058  0.00  0.00     0.007 A 
ENDBRANCH  24  25
ENDBRANCH   9  24
TORSDOF 8
ENDMDL
MODEL 2
REMARK VINA RESULT:      -6.2     11.345     13.926
REMARK  8 active torsions:
REMARK  status: ('A' for Active; 'I' for Inactive)
REMARK    1  A    between atoms: C_13  and  C_11 
REMARK    2  A    between atoms: N_22  and  C_11 
REMARK    3  A    between atoms: C_16  and  C_12 
REMARK    4  A    between atoms: O_23  and  C_12 
REMARK    5  A    between atoms: C_16  and  C_14 
REMARK    6  A    between atoms: C_15  and  O_25 
REMARK    7  A    between atoms: C_21  and  C_16 
REMARK    8  A    between atoms: O_25  and  C_21 
ROOT
HETATM    1  C   UNK N   1      31.161  21.800  -6.166  0.00  0.00     0.273 C 
HETATM    2  C   UNK N   1      30.666  24.413  -3.389  0.00  0.00     0.069 C 
HETATM    3  C   UNK N   1      29.173  22.400  -2.963  0.00  0.00     0.069 C 
HETATM    4  C   UNK N   1      29.275  23.937  -2.916  0.00  0.00     0.136 C 
HETATM    5  C   UNK N   1      31.381  23.472  -4.416  0.00  0.00     0.224 C 
HETATM    6  C   UNK N   1      30.055  21.698  -4.034  0.00  0.00     0.224 C 
HETATM    7  C   UNK N   1      32.285  22.505  -3.623  0.00  0.00     0.184 A 
HETATM    8  C   UNK N   1      31.386  21.311  -3.354  0.00  0.00     0.184 A 
HETATM    9  N   UNK N   1      30.450  22.586  -5.144  0.00  0.00    -0.057 N 
HETATM   10  O   UNK N   1      31.866  22.147  -2.329  0.00  0.00    -0.371 OA
ENDROOT
BRANCH   4  11
HETATM   11  O   UNK N   1      28.348  24.481  -3.782  0.00  0.00    -0.315 OA
BRANCH  11  12
HETATM   12  C   UNK N   1      27.032  24.755  -3.563  0.00  0.00     0.270 C 
HETATM   13  O   UNK N   1      26.378  23.937  -2.938  0.00  0.00    -0.264 OA
BRANCH  12  14
HETATM   14  C   UNK N   1      26.332  26.002  -4.075  0.00  0.00     0.142 C 
BRANCH  14  15
HETATM   15  C   UNK N   1      26.778  27.200  -3.213  0.00  0.00     0.183 C 
BRANCH  15  16
HETATM   16  O   UNK N   1      25.719  28.075  -2.938  0.00  0.00    -0.400 OA
HETATM   17  H   UNK N   1      24.872  28.452  -3.223  0.00  0.00     0.209 HD
ENDBRANCH  15  16
ENDBRANCH  14  15
BRANCH  14  18
HETATM   18  C   UNK N   1      26.605  26.208  -5.560  0.00  0.00    -0.043 A 
HETATM   19  C   UNK N   1      27.837  26.697  -6.030  0.00  0.00     0.008 A 
HETATM   20  C   UNK N   1      28.056  26.878  -7.399  0.00  0.00     0.001 A 
HETATM   21  C   UNK N   1      27.041  26.587  -8.314  0.00  0.00     0.000 A 
HETATM   22  C   UNK N   1      25.809  26.112  -7.859  0.00  0.00     0.001 A 
HETATM   23  C   UNK N   1      25.596  25.921  -6.491  0.00  0.00     0.008 A 
ENDBRANCH  14  18
ENDBRANCH  12  14
ENDBRANCH  11  12
ENDBRANCH   4  11
BRANCH   9  24
HETATM   24  C   UNK N   1      29.322  23.229  -5.844  0.00  0.00     0.242 C 
BRANCH  24  25
HETATM   25  C   UNK N   1      28.516  22.274  -6.732  0.00  0.00     0.012 A 
HETATM   26  C   UNK N   1      27.056  22.680  -6.688  0.00  0.00     0.007 A 
HETATM   27  C   UNK N   1      27.896  23.014  -7.902  0.00  0.00     0.007 A 
ENDBRANCH  24  25
ENDBRANCH   9  24
TORSDOF 8
ENDMDL
MODEL 3
REMARK VINA RESULT:      -6.1     11.677     14.254
REMARK  8 active torsions:
REMARK  status: ('A' for Active; 'I' for Inactive)
REMARK    1  A    between atoms: C_13  and  C_11 
REMARK    2  A    between atoms: N_22  and  C_11 
REMARK    3  A    between atoms: C_16  and  C_12 
REMARK    4  A    between atoms: O_23  and  C_12 
REMARK    5  A    between atoms: C_16  and  C_14 
REMARK    6  A    between atoms: C_15  and  O_25 
REMARK    7  A    between atoms: C_21  and  C_16 
REMARK    8  A    between atoms: O_25  and  C_21 
ROOT
HETATM    1  C   UNK N   1      32.691  24.101  -4.817  0.00  0.00     0.273 C 
HETATM    2  C   UNK N   1      29.549  23.540  -2.674  0.00  0.00     0.069 C 
HETATM    3  C   UNK N   1      29.053  22.983  -5.104  0.00  0.00     0.069 C 
HETATM    4  C   UNK N   1      28.513  23.632  -3.815  0.00  0.00     0.136 C 
HETATM    5  C   UNK N   1      31.046  23.504  -3.131  0.00  0.00     0.224 C 
HETATM    6  C   UNK N   1      30.598  23.014  -5.278  0.00  0.00     0.224 C 
HETATM    7  C   UNK N   1      31.466  22.025  -3.263  0.00  0.00     0.184 A 
HETATM    8  C   UNK N   1      31.153  21.689  -4.710  0.00  0.00     0.184 A 
HETATM    9  N   UNK N   1      31.258  24.065  -4.481  0.00  0.00    -0.057 N 
HETATM   10  O   UNK N   1      30.469  21.102  -3.629  0.00  0.00    -0.371 OA
ENDROOT
BRANCH   4  11
HETATM   11  O   UNK N   1      28.284  24.974  -4.042  0.00  0.00    -0.315 OA
BRANCH  11  12
HETATM   12  C   UNK N   1      27.097  25.639  -4.112  0.00  0.00     0.270 C 
HETATM   13  O   UNK N   1      26.327  25.525  -3.173  0.00  0.00    -0.264 OA
BRANCH  12  14
HETATM   14  C   UNK N   1      26.671  26.484  -5.300  0.00  0.00     0.142 C 
BRANCH  14  15
HETATM   15  C   UNK N   1      25.199  26.163  -5.623  0.00  0.00     0.183 C 
BRANCH  15  16
HETATM   16  O   UNK N   1      24.943  24.786  -5.602  0.00  0.00    -0.400 OA
HETATM   17  H   UNK N   1      25.277  23.887  -5.749  0.00  0.00     0.209 HD
ENDBRANCH  15  16
ENDBRANCH  14  15
BRANCH  14  18
HETATM   18  C   UNK N   1      26.908  27.964  -5.027  0.00  0.00    -0.043 A 
HETATM   19  C   UNK N   1      26.211  28.657  -4.020  0.00  0.00     0.008 A 
HETATM   20  C   UNK N   1      26.448  30.016  -3.795  0.00  0.00     0.001 A 
HETATM   21  C   UNK N   1      27.372  30.704  -4.585  0.00  0.00     0.000 A 
HETATM   22  C   UNK N   1      28.062  30.031  -5.596  0.00  0.00     0.001 A 
HETATM   23  C   UNK N   1      27.832  28.669  -5.811  0.00  0.00     0.008 A 
ENDBRANCH  14  18
ENDBRANCH  12  14
ENDBRANCH  11  12
ENDBRANCH   4  11
BRANCH   9  24
HETATM   24  C   UNK N   1      30.752  25.428  -4.728  0.00  0.00     0.242 C 
BRANCH  24  25
HETATM   25  C   UNK N   1      31.448  26.510  -3.895  0.00  0.00     0.012 A 
HETATM   26  C   UNK N   1      31.289  27.845  -4.595  0.00  0.00     0.007 A 
HETATM   27  C   UNK N   1      30.447  27.526  -3.379  0.00  0.00     0.007 A 
ENDBRANCH  24  25
ENDBRANCH   9  24
TORSDOF 8
ENDMDL
MODEL 4
REMARK VINA RESULT:      -6.0     14.380     16.662
REMARK  8 active torsions:
REMARK  status: ('A' for Active; 'I' for Inactive)
REMARK    1  A    between atoms: C_13  and  C_11 
REMARK    2  A    between atoms: N_22  and  C_11 
REMARK    3  A    between atoms: C_16  and  C_12 
REMARK    4  A    between atoms: O_23  and  C_12 
REMARK    5  A    between atoms: C_16  and  C_14 
REMARK    6  A    between atoms: C_15  and  O_25 
REMARK    7  A    between atoms: C_21  and  C_16 
REMARK    8  A    between atoms: O_25  and  C_21 
ROOT
HETATM    1  C   UNK N   1      27.688  29.453  -5.554  0.00  0.00     0.273 C 
HETATM    2  C   UNK N   1      25.005  26.708  -5.348  0.00  0.00     0.069 C 
HETATM    3  C   UNK N   1      27.288  25.734  -4.795  0.00  0.00     0.069 C 
HETATM    4  C   UNK N   1      25.948  25.497  -5.519  0.00  0.00     0.136 C 
HETATM    5  C   UNK N   1      25.718  28.089  -5.155  0.00  0.00     0.224 C 
HETATM    6  C   UNK N   1      27.732  27.219  -4.669  0.00  0.00     0.224 C 
HETATM    7  C   UNK N   1      25.867  28.338  -3.640  0.00  0.00     0.184 A 
HETATM    8  C   UNK N   1      27.222  27.740  -3.308  0.00  0.00     0.184 A 
HETATM    9  N   UNK N   1      27.104  28.107  -5.666  0.00  0.00    -0.057 N 
HETATM   10  O   UNK N   1      26.017  27.210  -2.813  0.00  0.00    -0.371 OA
ENDROOT
BRANCH   4  11
HETATM   11  O   UNK N   1      26.181  25.359  -6.873  0.00  0.00    -0.315 OA
BRANCH  11  12
HETATM   12  C   UNK N   1      26.585  24.254  -7.561  0.00  0.00     0.270 C 
HETATM   13  O   UNK N   1      27.151  24.425  -8.627  0.00  0.00    -0.264 OA
BRANCH  12  14
HETATM   14  C   UNK N   1      26.343  22.831  -7.090  0.00  0.00     0.142 C 
BRANCH  14  15
HETATM   15  C   UNK N   1      25.205  22.225  -7.934  0.00  0.00     0.183 C 
BRANCH  15  16
HETATM   16  O   UNK N   1      24.431  23.210  -8.560  0.00  0.00    -0.400 OA
HETATM   17  H   UNK N   1      24.164  24.142  -8.598  0.00  0.00     0.209 HD
ENDBRANCH  15  16
ENDBRANCH  14  15
BRANCH  14  18
HETATM   18  C   UNK N   1      27.626  22.012  -7.152  0.00  0.00    -0.043 A 
HETATM   19  C   UNK N   1      27.772  20.922  -8.028  0.00  0.00     0.008 A 
HETATM   20  C   UNK N   1      28.962  20.187  -8.060  0.00  0.00     0.001 A 
HETATM   21  C   UNK N   1      30.014  20.523  -7.205  0.00  0.00     0.000 A 
HETATM   22  C   UNK N   1      29.876  21.596  -6.321  0.00  0.00     0.001 A 
HETATM   23  C   UNK N   1      28.692  22.336  -6.299  0.00  0.00     0.008 A 
ENDBRANCH  14  18
ENDBRANCH  12  14
ENDBRANCH  11  12
ENDBRANCH   4  11
BRANCH   9  24
HETATM   24  C   UNK N   1      27.308  27.695  -7.067  0.00  0.00     0.242 C 
BRANCH  24  25
HETATM   25  C   UNK N   1      28.565  28.289  -7.713  0.00  0.00     0.012 A 
HETATM   26  C   UNK N   1      29.517  27.161  -8.057  0.00  0.00     0.007 A 
HETATM   27  C   UNK N   1      28.707  27.825  -9.150  0.00  0.00     0.007 A 
ENDBRANCH  24  25
ENDBRANCH   9  24
TORSDOF 8
ENDMDL
MODEL 5
REMARK VINA RESULT:      -5.9      7.193     10.505
REMARK  8 active torsions:
REMARK  status: ('A' for Active; 'I' for Inactive)
REMARK    1  A    between atoms: C_13  and  C_11 
REMARK    2  A    between atoms: N_22  and  C_11 
REMARK    3  A    between atoms: C_16  and  C_12 
REMARK    4  A    between atoms: O_23  and  C_12 
REMARK    5  A    between atoms: C_16  and  C_14 
REMARK    6  A    between atoms: C_15  and  O_25 
REMARK    7  A    between atoms: C_21  and  C_16 
REMARK    8  A    between atoms: O_25  and  C_21 
ROOT
HETATM    1  C   UNK N   1      24.212  17.532   4.415  0.00  0.00     0.273 C 
HETATM    2  C   UNK N   1      20.974  15.523   4.925  0.00  0.00     0.069 C 
HETATM    3  C   UNK N   1      21.103  17.409   6.626  0.00  0.00     0.069 C 
HETATM    4  C   UNK N   1      20.716  15.936   6.391  0.00  0.00     0.136 C 
HETATM    5  C   UNK N   1      22.129  16.299   4.206  0.00  0.00     0.224 C 
HETATM    6  C   UNK N   1      22.237  17.960   5.715  0.00  0.00     0.224 C 
HETATM    7  C   UNK N   1      21.505  17.502   3.469  0.00  0.00     0.184 A 
HETATM    8  C   UNK N   1      21.566  18.622   4.492  0.00  0.00     0.184 A 
HETATM    9  N   UNK N   1      23.097  16.906   5.143  0.00  0.00    -0.057 N 
HETATM   10  O   UNK N   1      20.352  18.077   4.036  0.00  0.00    -0.371 OA
ENDROOT
BRANCH   4  11
HETATM   11  O   UNK N   1      21.505  15.125   7.182  0.00  0.00    -0.315 OA
BRANCH  11  12
HETATM   12  C   UNK N   1      21.199  14.532   8.369  0.00  0.00     0.270 C 
HETATM   13  O   UNK N   1      20.866  15.252   9.295  0.00  0.00    -0.264 OA
BRANCH  12  14
HETATM   14  C   UNK N   1      21.277  13.033   8.609  0.00  0.00     0.142 C 
BRANCH  14  15
HETATM   15  C   UNK N   1      21.501  12.335   7.254  0.00  0.00     0.183 C 
BRANCH  15  16
HETATM   16  O   UNK N   1      20.366  12.394   6.436  0.00  0.00    -0.400 OA
HETATM   17  H   UNK N   1      19.431  12.167   6.313  0.00  0.00     0.209 HD
ENDBRANCH  15  16
ENDBRANCH  14  15
BRANCH  14  18
HETATM   18  C   UNK N   1      22.355  12.702   9.632  0.00  0.00    -0.043 A 
HETATM   19  C   UNK N   1      23.725  12.830   9.338  0.00  0.00     0.008 A 
HETATM   20  C   UNK N   1      24.693  12.515  10.297  0.00  0.00     0.001 A 
HETATM   21  C   UNK N   1      24.303  12.052  11.556  0.00  0.00     0.000 A 
HETATM   22  C   UNK N   1      22.947  11.909  11.856  0.00  0.00     0.001 A 
HETATM   23  C   UNK N   1      21.982  12.236  10.901  0.00  0.00     0.008 A 
ENDBRANCH  14  18
ENDBRANCH  12  14
ENDBRANCH  11  12
ENDBRANCH   4  11
BRANCH   9  24
HETATM   24  C   UNK N   1      23.716  16.014   6.140  0.00  0.00     0.242 C 
BRANCH  24  25
HETATM   25  C   UNK N   1      25.083  15.462   5.717  0.00  0.00     0.012 A 
HETATM   26  C   UNK N   1      25.868  15.095   6.960  0.00  0.00     0.007 A 
HETATM   27  C   UNK N   1      25.230  14.009   6.121  0.00  0.00     0.007 A 
ENDBRANCH  24  25
ENDBRANCH   9  24
TORSDOF 8
ENDMDL
MODEL 6
REMARK VINA RESULT:      -5.9      1.954      3.342
REMARK  8 active torsions:
REMARK  status: ('A' for Active; 'I' for Inactive)
REMARK    1  A    between atoms: C_13  and  C_11 
REMARK    2  A    between atoms: N_22  and  C_11 
REMARK    3  A    between atoms: C_16  and  C_12 
REMARK    4  A    between atoms: O_23  and  C_12 
REMARK    5  A    between atoms: C_16  and  C_14 
REMARK    6  A    between atoms: C_15  and  O_25 
REMARK    7  A    between atoms: C_21  and  C_16 
REMARK    8  A    between atoms: O_25  and  C_21 
ROOT
HETATM    1  C   UNK N   1      33.038  17.149   8.797  0.00  0.00     0.273 C 
HETATM    2  C   UNK N   1      31.672  14.758   6.113  0.00  0.00     0.069 C 
HETATM    3  C   UNK N   1      31.683  17.142   5.228  0.00  0.00     0.069 C 
HETATM    4  C   UNK N   1      30.907  15.811   5.283  0.00  0.00     0.136 C 
HETATM    5  C   UNK N   1      32.592  15.336   7.242  0.00  0.00     0.224 C 
HETATM    6  C   UNK N   1      32.594  17.440   6.453  0.00  0.00     0.224 C 
HETATM    7  C   UNK N   1      34.010  15.505   6.657  0.00  0.00     0.184 A 
HETATM    8  C   UNK N   1      34.009  16.922   6.113  0.00  0.00     0.184 A 
HETATM    9  N   UNK N   1      32.209  16.698   7.668  0.00  0.00    -0.057 N 
HETATM   10  O   UNK N   1      34.111  15.791   5.283  0.00  0.00    -0.371 OA
ENDROOT
BRANCH   4  11
HETATM   11  O   UNK N   1      29.696  16.016   5.912  0.00  0.00    -0.315 OA
BRANCH  11  12
HETATM   12  C   UNK N   1      28.447  16.052   5.369  0.00  0.00     0.270 C 
HETATM   13  O   UNK N   1      27.540  15.532   5.996  0.00  0.00    -0.264 OA
BRANCH  12  14
HETATM   14  C   UNK N   1      28.131  16.675   4.020  0.00  0.00     0.142 C 
BRANCH  14  15
HETATM   15  C   UNK N   1      27.227  15.705   3.235  0.00  0.00     0.183 C 
BRANCH  15  16
HETATM   16  O   UNK N   1      27.742  14.402   3.217  0.00  0.00    -0.400 OA
HETATM   17  H   UNK N   1      28.023  13.639   2.688  0.00  0.00     0.209 HD
ENDBRANCH  15  16
ENDBRANCH  14  15
BRANCH  14  18
HETATM   18  C   UNK N   1      27.510  18.056   4.190  0.00  0.00    -0.043 A 
HETATM   19  C   UNK N   1      26.212  18.350   3.735  0.00  0.00     0.008 A 
HETATM   20  C   UNK N   1      25.670  19.628   3.903  0.00  0.00     0.001 A 
HETATM   21  C   UNK N   1      26.426  20.632   4.514  0.00  0.00     0.000 A 
HETATM   22  C   UNK N   1      27.720  20.356   4.959  0.00  0.00     0.001 A 
HETATM   23  C   UNK N   1      28.255  19.075   4.801  0.00  0.00     0.008 A 
ENDBRANCH  14  18
ENDBRANCH  12  14
ENDBRANCH  11  12
ENDBRANCH   4  11
BRANCH   9  24
HETATM   24  C   UNK N   1      30.810  16.899   8.090  0.00  0.00     0.242 C 
BRANCH  24  25
HETATM   25  C   UNK N   1      30.515  18.311   8.610  0.00  0.00     0.012 A 
HETATM   26  C   UNK N   1      29.054  18.629   8.360  0.00  0.00     0.007 A 
HETATM   27  C   UNK N   1      29.522  18.271   9.755  0.00  0.00     0.007 A 
ENDBRANCH  24  25
ENDBRANCH   9  24
TORSDOF 8
ENDMDL
MODEL 7
REMARK VINA RESULT:      -5.9     12.788     15.848
REMARK  8 active torsions:
REMARK  status: ('A' for Active; 'I' for Inactive)
REMARK    1  A    between atoms: C_13  and  C_11 
REMARK    2  A    between atoms: N_22  and  C_11 
REMARK    3  A    between atoms: C_16  and  C_12 
REMARK    4  A    between atoms: O_23  and  C_12 
REMARK    5  A    between atoms: C_16  and  C_14 
REMARK    6  A    between atoms: C_15  and  O_25 
REMARK    7  A    between atoms: C_21  and  C_16 
REMARK    8  A    between atoms: O_25  and  C_21 
ROOT
HETATM    1  C   UNK N   1      29.603  29.550  -2.584  0.00  0.00     0.273 C 
HETATM    2  C   UNK N   1      27.463  29.117  -5.748  0.00  0.00     0.069 C 
HETATM    3  C   UNK N   1      26.169  28.320  -3.710  0.00  0.00     0.069 C 
HETATM    4  C   UNK N   1      26.500  28.047  -5.190  0.00  0.00     0.136 C 
HETATM    5  C   UNK N   1      28.420  29.770  -4.694  0.00  0.00     0.224 C 
HETATM    6  C   UNK N   1      27.272  29.059  -2.899  0.00  0.00     0.224 C 
HETATM    7  C   UNK N   1      27.740  31.051  -4.166  0.00  0.00     0.184 A 
HETATM    8  C   UNK N   1      26.954  30.569  -2.959  0.00  0.00     0.184 A 
HETATM    9  N   UNK N   1      28.618  28.938  -3.490  0.00  0.00    -0.057 N 
HETATM   10  O   UNK N   1      26.334  31.062  -4.122  0.00  0.00    -0.371 OA
ENDROOT
BRANCH   4  11
HETATM   11  O   UNK N   1      27.146  26.831  -5.296  0.00  0.00    -0.315 OA
BRANCH  11  12
HETATM   12  C   UNK N   1      26.888  25.798  -6.146  0.00  0.00     0.270 C 
HETATM   13  O   UNK N   1      26.903  26.031  -7.343  0.00  0.00    -0.264 OA
BRANCH  12  14
HETATM   14  C   UNK N   1      26.558  24.389  -5.685  0.00  0.00     0.142 C 
BRANCH  14  15
HETATM   15  C   UNK N   1      26.309  23.516  -6.931  0.00  0.00     0.183 C 
BRANCH  15  16
HETATM   16  O   UNK N   1      25.121  23.861  -7.588  0.00  0.00    -0.400 OA
HETATM   17  H   UNK N   1      24.446  23.620  -8.242  0.00  0.00     0.209 HD
ENDBRANCH  15  16
ENDBRANCH  14  15
BRANCH  14  18
HETATM   18  C   UNK N   1      27.657  23.839  -4.786  0.00  0.00    -0.043 A 
HETATM   19  C   UNK N   1      28.760  23.135  -5.304  0.00  0.00     0.008 A 
HETATM   20  C   UNK N   1      29.752  22.639  -4.452  0.00  0.00     0.001 A 
HETATM   21  C   UNK N   1      29.645  22.825  -3.072  0.00  0.00     0.000 A 
HETATM   22  C   UNK N   1      28.549  23.511  -2.545  0.00  0.00     0.001 A 
HETATM   23  C   UNK N   1      27.565  24.017  -3.398  0.00  0.00     0.008 A 
ENDBRANCH  14  18
ENDBRANCH  12  14
ENDBRANCH  11  12
ENDBRANCH   4  11
BRANCH   9  24
HETATM   24  C   UNK N   1      29.071  27.551  -3.700  0.00  0.00     0.242 C 
BRANCH  24  25
HETATM   25  C   UNK N   1      30.523  27.436  -4.179  0.00  0.00     0.012 A 
HETATM   26  C   UNK N   1      31.104  26.132  -3.672  0.00  0.00     0.007 A 
HETATM   27  C   UNK N   1      30.692  26.261  -5.122  0.00  0.00     0.007 A 
ENDBRANCH  24  25
ENDBRANCH   9  24
TORSDOF 8
ENDMDL
MODEL 8
REMARK VINA RESULT:      -5.8     11.274     13.682
REMARK  8 active torsions:
REMARK  status: ('A' for Active; 'I' for Inactive)
REMARK    1  A    between atoms: C_13  and  C_11 
REMARK    2  A    between atoms: N_22  and  C_11 
REMARK    3  A    between atoms: C_16  and  C_12 
REMARK    4  A    between atoms: O_23  and  C_12 
REMARK    5  A    between atoms: C_16  and  C_14 
REMARK    6  A    between atoms: C_15  and  O_25 
REMARK    7  A    between atoms: C_21  and  C_16 
REMARK    8  A    between atoms: O_25  and  C_21 
ROOT
HETATM    1  C   UNK N   1      31.548  21.569  -6.166  0.00  0.00     0.273 C 
HETATM    2  C   UNK N   1      30.739  24.273  -3.556  0.00  0.00     0.069 C 
HETATM    3  C   UNK N   1      29.282  22.226  -3.165  0.00  0.00     0.069 C 
HETATM    4  C   UNK N   1      29.330  23.767  -3.178  0.00  0.00     0.136 C 
HETATM    5  C   UNK N   1      31.568  23.317  -4.479  0.00  0.00     0.224 C 
HETATM    6  C   UNK N   1      30.273  21.514  -4.130  0.00  0.00     0.224 C 
HETATM    7  C   UNK N   1      32.433  22.417  -3.573  0.00  0.00     0.184 A 
HETATM    8  C   UNK N   1      31.555  21.203  -3.327  0.00  0.00     0.184 A 
HETATM    9  N   UNK N   1      30.729  22.370  -5.242  0.00  0.00    -0.057 N 
HETATM   10  O   UNK N   1      31.920  22.097  -2.303  0.00  0.00    -0.371 OA
ENDROOT
BRANCH   4  11
HETATM   11  O   UNK N   1      28.461  24.242  -4.140  0.00  0.00    -0.315 OA
BRANCH  11  12
HETATM   12  C   UNK N   1      27.327  24.979  -3.976  0.00  0.00     0.270 C 
HETATM   13  O   UNK N   1      26.604  24.707  -3.033  0.00  0.00    -0.264 OA
BRANCH  12  14
HETATM   14  C   UNK N   1      26.902  26.094  -4.917  0.00  0.00     0.142 C 
BRANCH  14  15
HETATM   15  C   UNK N   1      25.425  25.873  -5.298  0.00  0.00     0.183 C 
BRANCH  15  16
HETATM   16  O   UNK N   1      25.113  24.514  -5.433  0.00  0.00    -0.400 OA
HETATM   17  H   UNK N   1      24.573  23.764  -5.139  0.00  0.00     0.209 HD
ENDBRANCH  15  16
ENDBRANCH  14  15
BRANCH  14  18
HETATM   18  C   UNK N   1      27.154  27.459  -4.290  0.00  0.00    -0.043 A 
HETATM   19  C   UNK N   1      28.409  27.818  -3.765  0.00  0.00     0.008 A 
HETATM   20  C   UNK N   1      28.608  29.078  -3.193  0.00  0.00     0.001 A 
HETATM   21  C   UNK N   1      27.552  29.989  -3.124  0.00  0.00     0.000 A 
HETATM   22  C   UNK N   1      26.297  29.640  -3.630  0.00  0.00     0.001 A 
HETATM   23  C   UNK N   1      26.103  28.385  -4.212  0.00  0.00     0.008 A 
ENDBRANCH  14  18
ENDBRANCH  12  14
ENDBRANCH  11  12
ENDBRANCH   4  11
BRANCH   9  24
HETATM   24  C   UNK N   1      29.643  22.942  -6.058  0.00  0.00     0.242 C 
BRANCH  24  25
HETATM   25  C   UNK N   1      28.832  21.898  -6.834  0.00  0.00     0.012 A 
HETATM   26  C   UNK N   1      27.451  22.458  -7.112  0.00  0.00     0.007 A 
HETATM   27  C   UNK N   1      28.481  22.404  -8.220  0.00  0.00     0.007 A 
ENDBRANCH  24  25
ENDBRANCH   9  24
TORSDOF 8
ENDMDL
MODEL 9
REMARK VINA RESULT:      -5.8     10.071     14.169
REMARK  8 active torsions:
REMARK  status: ('A' for Active; 'I' for Inactive)
REMARK    1  A    between atoms: C_13  and  C_11 
REMARK    2  A    between atoms: N_22  and  C_11 
REMARK    3  A    between atoms: C_16  and  C_12 
REMARK    4  A    between atoms: O_23  and  C_12 
REMARK    5  A    between atoms: C_16  and  C_14 
REMARK    6  A    between atoms: C_15  and  O_25 
REMARK    7  A    between atoms: C_21  and  C_16 
REMARK    8  A    between atoms: O_25  and  C_21 
ROOT
HETATM    1  C   UNK N   1      37.440  10.703  13.233  0.00  0.00     0.273 C 
HETATM    2  C   UNK N   1      34.279  11.695  15.184  0.00  0.00     0.069 C 
HETATM    3  C   UNK N   1      36.185  13.277  15.757  0.00  0.00     0.069 C 
HETATM    4  C   UNK N   1      34.982  12.487  16.308  0.00  0.00     0.136 C 
HETATM    5  C   UNK N   1      35.201  11.261  13.995  0.00  0.00     0.224 C 
HETATM    6  C   UNK N   1      36.882  12.660  14.510  0.00  0.00     0.224 C 
HETATM    7  C   UNK N   1      35.115  12.351  12.906  0.00  0.00     0.184 A 
HETATM    8  C   UNK N   1      36.243  13.303  13.260  0.00  0.00     0.184 A 
HETATM    9  N   UNK N   1      36.633  11.215  14.353  0.00  0.00    -0.057 N 
HETATM   10  O   UNK N   1      34.887  13.672  13.333  0.00  0.00    -0.371 OA
ENDROOT
BRANCH   4  11
HETATM   11  O   UNK N   1      35.427  11.563  17.232  0.00  0.00    -0.315 OA
BRANCH  11  12
HETATM   12  C   UNK N   1      35.370  11.620  18.592  0.00  0.00     0.270 C 
HETATM   13  O   UNK N   1      35.137  12.700  19.106  0.00  0.00    -0.264 OA
BRANCH  12  14
HETATM   14  C   UNK N   1      35.606  10.423  19.497  0.00  0.00     0.142 C 
BRANCH  14  15
HETATM   15  C   UNK N   1      36.581  10.843  20.614  0.00  0.00     0.183 C 
BRANCH  15  16
HETATM   16  O   UNK N   1      37.578   9.883  20.832  0.00  0.00    -0.400 OA
HETATM   17  H   UNK N   1      38.063   9.114  20.496  0.00  0.00     0.209 HD
ENDBRANCH  15  16
ENDBRANCH  14  15
BRANCH  14  18
HETATM   18  C   UNK N   1      34.289   9.879  20.035  0.00  0.00    -0.043 A 
HETATM   19  C   UNK N   1      33.782  10.261  21.290  0.00  0.00     0.008 A 
HETATM   20  C   UNK N   1      32.571   9.741  21.758  0.00  0.00     0.001 A 
HETATM   21  C   UNK N   1      31.860   8.821  20.984  0.00  0.00     0.000 A 
HETATM   22  C   UNK N   1      32.359   8.425  19.741  0.00  0.00     0.001 A 
HETATM   23  C   UNK N   1      33.563   8.954  19.270  0.00  0.00     0.008 A 
ENDBRANCH  14  18
ENDBRANCH  12  14
ENDBRANCH  11  12
ENDBRANCH   4  11
BRANCH   9  24
HETATM   24  C   UNK N   1      37.006  10.399  15.524  0.00  0.00     0.242 C 
BRANCH  24  25
HETATM   25  C   UNK N   1      36.849   8.890  15.306  0.00  0.00     0.012 A 
HETATM   26  C   UNK N   1      37.150   8.174  16.607  0.00  0.00     0.007 A 
HETATM   27  C   UNK N   1      35.717   8.335  16.148  0.00  0.00     0.007 A 
ENDBRANCH  24  25
ENDBRANCH   9  24
TORSDOF 8
ENDMDL
