REMARK  2 active torsions:
REMARK  status: ('A' for Active; 'I' for Inactive)
REMARK    1  A    between atoms: C_1  and  C_6 
REMARK    2  A    between atoms: C_7  and  N_8 
ROOT
HETATM    1  C   UNK N   1       0.210   0.459   0.357  0.00  0.00     0.054 C 
HETATM    2  C   UNK N   1      -1.153   1.137   0.231  0.00  0.00    -0.043 A 
HETATM    3  C   UNK N   1      -1.219   2.539   0.023  0.00  0.00    -0.049 A 
HETATM    4  C   UNK N   1       1.271   1.228  -0.422  0.00  0.00     0.039 C 
HETATM    5  C   UNK N   1       0.018   3.385  -0.131  0.00  0.00     0.063 C 
HETATM    6  C   UNK N   1       1.327   2.641   0.141  0.00  0.00     0.081 C 
HETATM    7  C   UNK N   1      -2.347   0.413   0.352  0.00  0.00     0.008 A 
HETATM    8  C   UNK N   1      -2.465   3.168  -0.083  0.00  0.00     0.007 A 
HETATM    9  C   UNK N   1      -3.585   1.052   0.247  0.00  0.00     0.001 A 
HETATM   10  C   UNK N   1      -3.643   2.429   0.028  0.00  0.00     0.001 A 
ENDROOT
BRANCH   1  11
HETATM   11  C   UNK N   1       0.348  -1.037   0.148  0.00  0.00    -0.050 A 
HETATM   12  C   UNK N   1      -0.705  -1.842  -0.315  0.00  0.00     0.008 A 
HETATM   13  C   UNK N   1      -0.530  -3.220  -0.476  0.00  0.00     0.001 A 
HETATM   14  C   UNK N   1       0.704  -3.806  -0.183  0.00  0.00     0.000 A 
HETATM   15  C   UNK N   1       1.761  -3.016   0.271  0.00  0.00     0.001 A 
HETATM   16  C   UNK N   1       1.583  -1.640   0.440  0.00  0.00     0.008 A 
ENDBRANCH   1  11
BRANCH   6  17
HETATM   17  N   UNK N   1       2.434   3.382  -0.442  0.00  0.00    -0.421 N 
HETATM   18  C   UNK N   1       3.650   2.982   0.249  0.00  0.00     0.140 C 
HETATM   19  H   UNK N   1       2.370   4.061  -1.200  0.00  0.00     0.153 HD
ENDBRANCH   6  17
TORSDOF 2
