MODEL 1
REMARK VINA RESULT:      -6.5      0.000      0.000
REMARK  1 active torsions:
REMARK  status: ('A' for Active; 'I' for Inactive)
REMARK    1  A    between atoms: C_9  and  O_12 
ROOT
HETATM    1  C   UNK N   1      26.414  16.823   5.151  0.00  0.00     0.151 C 
HETATM    2  N   UNK N   1      27.822  17.008   5.388  0.00  0.00    -0.368 N 
HETATM    3  C   UNK N   1      28.731  16.942   4.241  0.00  0.00     0.144 A 
HETATM    4  C   UNK N   1      30.263  17.049   4.521  0.00  0.00     0.149 A 
HETATM    5  N   UNK N   1      30.601  17.239   5.929  0.00  0.00    -0.341 N 
HETATM    6  C   UNK N   1      31.808  17.326   6.523  0.00  0.00     0.046 A 
HETATM    7  C   UNK N   1      31.650  17.478   7.886  0.00  0.00     0.002 A 
HETATM    8  C   UNK N   1      32.739  17.559   8.747  0.00  0.00     0.051 A 
HETATM    9  C   UNK N   1      34.030  17.470   8.189  0.00  0.00     0.069 A 
HETATM   10  C   UNK N   1      34.185  17.321   6.781  0.00  0.00     0.039 A 
HETATM   11  C   UNK N   1      33.064  17.252   5.933  0.00  0.00     0.033 A 
HETATM   12  C   UNK N   1      30.289  17.485   8.124  0.00  0.00    -0.013 A 
HETATM   13  C   UNK N   1      29.703  17.329   6.910  0.00  0.00     0.086 A 
HETATM   14  C   UNK N   1      28.298  17.225   6.713  0.00  0.00     0.127 A 
HETATM   15  N   UNK N   1      27.502  17.295   7.732  0.00  0.00    -0.374 N 
ATOM     16  HN  UNK N   1      26.500  17.204   7.562  1.00  0.00     0.161 HD
HETATM   17  C   UNK N   1      27.951  17.497   9.119  0.00  0.00     0.126 A 
HETATM   18  C   UNK N   1      29.490  17.588   9.377  0.00  0.00     0.061 A 
ENDROOT
BRANCH   9  19
HETATM   19  O   UNK N   1      35.101  17.506   9.016  0.00  0.00    -0.356 OA
HETATM   20  C   UNK N   1      35.205  16.730  10.147  0.00  0.00     0.210 C 
ENDBRANCH   9  19
TORSDOF 1
ENDMDL
MODEL 2
REMARK VINA RESULT:      -6.1     13.668     15.866
REMARK  1 active torsions:
REMARK  status: ('A' for Active; 'I' for Inactive)
REMARK    1  A    between atoms: C_9  and  O_12 
ROOT
HETATM    1  C   UNK N   1      28.501  20.917  -8.197  0.00  0.00     0.151 C 
HETATM    2  N   UNK N   1      27.786  22.029  -7.626  0.00  0.00    -0.368 N 
HETATM    3  C   UNK N   1      26.618  22.544  -8.347  0.00  0.00     0.144 A 
HETATM    4  C   UNK N   1      25.908  23.808  -7.770  0.00  0.00     0.149 A 
HETATM    5  N   UNK N   1      26.496  24.311  -6.531  0.00  0.00    -0.341 N 
HETATM    6  C   UNK N   1      26.168  25.393  -5.796  0.00  0.00     0.046 A 
HETATM    7  C   UNK N   1      27.016  25.499  -4.713  0.00  0.00     0.002 A 
HETATM    8  C   UNK N   1      26.921  26.548  -3.806  0.00  0.00     0.051 A 
HETATM    9  C   UNK N   1      25.928  27.524  -4.027  0.00  0.00     0.069 A 
HETATM   10  C   UNK N   1      25.052  27.403  -5.142  0.00  0.00     0.039 A 
HETATM   11  C   UNK N   1      25.165  26.324  -6.039  0.00  0.00     0.033 A 
HETATM   12  C   UNK N   1      27.893  24.434  -4.797  0.00  0.00    -0.013 A 
HETATM   13  C   UNK N   1      27.541  23.755  -5.917  0.00  0.00     0.086 A 
HETATM   14  C   UNK N   1      28.233  22.613  -6.406  0.00  0.00     0.127 A 
HETATM   15  N   UNK N   1      29.256  22.158  -5.756  0.00  0.00    -0.374 N 
ATOM     16  HN  UNK N   1      29.742  21.346  -6.137  1.00  0.00     0.161 HD
HETATM   17  C   UNK N   1      29.766  22.741  -4.503  0.00  0.00     0.126 A 
HETATM   18  C   UNK N   1      29.046  24.015  -3.952  0.00  0.00     0.061 A 
ENDROOT
BRANCH   9  19
HETATM   19  O   UNK N   1      25.847  28.574  -3.176  0.00  0.00    -0.356 OA
HETATM   20  C   UNK N   1      26.550  29.743  -3.355  0.00  0.00     0.210 C 
ENDBRANCH   9  19
TORSDOF 1
ENDMDL
MODEL 3
REMARK VINA RESULT:      -5.9      5.767      8.777
REMARK  1 active torsions:
REMARK  status: ('A' for Active; 'I' for Inactive)
REMARK    1  A    between atoms: C_9  and  O_12 
ROOT
HETATM    1  C   UNK N   1      35.888   9.454  14.063  0.00  0.00     0.151 C 
HETATM    2  N   UNK N   1      35.528  10.528  13.174  0.00  0.00    -0.368 N 
HETATM    3  C   UNK N   1      34.868  10.188  11.910  0.00  0.00     0.144 A 
HETATM    4  C   UNK N   1      34.569  11.349  10.911  0.00  0.00     0.149 A 
HETATM    5  N   UNK N   1      34.967  12.669  11.393  0.00  0.00    -0.341 N 
HETATM    6  C   UNK N   1      34.897  13.869  10.782  0.00  0.00     0.046 A 
HETATM    7  C   UNK N   1      35.415  14.846  11.607  0.00  0.00     0.002 A 
HETATM    8  C   UNK N   1      35.497  16.176  11.208  0.00  0.00     0.051 A 
HETATM    9  C   UNK N   1      35.041  16.508   9.916  0.00  0.00     0.069 A 
HETATM   10  C   UNK N   1      34.500  15.495   9.074  0.00  0.00     0.039 A 
HETATM   11  C   UNK N   1      34.421  14.159   9.509  0.00  0.00     0.033 A 
HETATM   12  C   UNK N   1      35.813  14.210  12.767  0.00  0.00    -0.013 A 
HETATM   13  C   UNK N   1      35.528  12.896  12.581  0.00  0.00     0.086 A 
HETATM   14  C   UNK N   1      35.835  11.875  13.522  0.00  0.00     0.127 A 
HETATM   15  N   UNK N   1      36.408  12.187  14.641  0.00  0.00    -0.374 N 
ATOM     16  HN  UNK N   1      36.628  11.432  15.291  1.00  0.00     0.161 HD
HETATM   17  C   UNK N   1      36.762  13.561  15.033  0.00  0.00     0.126 A 
HETATM   18  C   UNK N   1      36.464  14.705  14.011  0.00  0.00     0.061 A 
ENDROOT
BRANCH   9  19
HETATM   19  O   UNK N   1      35.149  17.790   9.497  0.00  0.00    -0.356 OA
HETATM   20  C   UNK N   1      34.569  18.254   8.338  0.00  0.00     0.210 C 
ENDBRANCH   9  19
TORSDOF 1
ENDMDL
MODEL 4
REMARK VINA RESULT:      -5.9     11.982     14.163
REMARK  1 active torsions:
REMARK  status: ('A' for Active; 'I' for Inactive)
REMARK    1  A    between atoms: C_9  and  O_12 
ROOT
HETATM    1  C   UNK N   1      25.594  24.112  -8.554  0.00  0.00     0.151 C 
HETATM    2  N   UNK N   1      26.394  23.900  -7.376  0.00  0.00    -0.368 N 
HETATM    3  C   UNK N   1      26.133  24.739  -6.204  0.00  0.00     0.144 A 
HETATM    4  C   UNK N   1      27.068  24.568  -4.966  0.00  0.00     0.149 A 
HETATM    5  N   UNK N   1      28.093  23.540  -5.128  0.00  0.00    -0.341 N 
HETATM    6  C   UNK N   1      29.079  23.163  -4.290  0.00  0.00     0.046 A 
HETATM    7  C   UNK N   1      29.832  22.164  -4.871  0.00  0.00     0.002 A 
HETATM    8  C   UNK N   1      30.939  21.614  -4.234  0.00  0.00     0.051 A 
HETATM    9  C   UNK N   1      31.287  22.116  -2.964  0.00  0.00     0.069 A 
HETATM   10  C   UNK N   1      30.500  23.141  -2.367  0.00  0.00     0.039 A 
HETATM   11  C   UNK N   1      29.379  23.672  -3.032  0.00  0.00     0.033 A 
HETATM   12  C   UNK N   1      29.276  21.926  -6.113  0.00  0.00    -0.013 A 
HETATM   13  C   UNK N   1      28.235  22.790  -6.221  0.00  0.00     0.086 A 
HETATM   14  C   UNK N   1      27.421  22.913  -7.380  0.00  0.00     0.127 A 
HETATM   15  N   UNK N   1      27.651  22.159  -8.408  0.00  0.00    -0.374 N 
ATOM     16  HN  UNK N   1      27.060  22.279  -9.231  1.00  0.00     0.161 HD
HETATM   17  C   UNK N   1      28.714  21.141  -8.464  0.00  0.00     0.126 A 
HETATM   18  C   UNK N   1      29.645  20.997  -7.217  0.00  0.00     0.061 A 
ENDROOT
BRANCH   9  19
HETATM   19  O   UNK N   1      32.385  21.620  -2.346  0.00  0.00    -0.356 OA
HETATM   20  C   UNK N   1      33.360  20.905  -3.004  0.00  0.00     0.210 C 
ENDBRANCH   9  19
TORSDOF 1
ENDMDL
MODEL 5
REMARK VINA RESULT:      -5.8      9.508     12.155
REMARK  1 active torsions:
REMARK  status: ('A' for Active; 'I' for Inactive)
REMARK    1  A    between atoms: C_9  and  O_12 
ROOT
HETATM    1  C   UNK N   1      37.680  12.745  10.778  0.00  0.00     0.151 C 
HETATM    2  N   UNK N   1      37.102  12.769  12.097  0.00  0.00    -0.368 N 
HETATM    3  C   UNK N   1      36.427  13.994  12.533  0.00  0.00     0.144 A 
HETATM    4  C   UNK N   1      35.889  14.045  13.998  0.00  0.00     0.149 A 
HETATM    5  N   UNK N   1      36.105  12.815  14.756  0.00  0.00    -0.341 N 
HETATM    6  C   UNK N   1      35.811  12.530  16.041  0.00  0.00     0.046 A 
HETATM    7  C   UNK N   1      36.220  11.248  16.342  0.00  0.00     0.002 A 
HETATM    8  C   UNK N   1      36.069  10.708  17.614  0.00  0.00     0.051 A 
HETATM    9  C   UNK N   1      35.487  11.518  18.610  0.00  0.00     0.069 A 
HETATM   10  C   UNK N   1      35.060  12.839  18.290  0.00  0.00     0.039 A 
HETATM   11  C   UNK N   1      35.217  13.354  16.990  0.00  0.00     0.033 A 
HETATM   12  C   UNK N   1      36.783  10.735  15.189  0.00  0.00    -0.013 A 
HETATM   13  C   UNK N   1      36.696  11.726  14.266  0.00  0.00     0.086 A 
HETATM   14  C   UNK N   1      37.216  11.631  12.945  0.00  0.00     0.127 A 
HETATM   15  N   UNK N   1      37.801  10.540  12.565  0.00  0.00    -0.374 N 
ATOM     16  HN  UNK N   1      38.177  10.505  11.617  1.00  0.00     0.161 HD
HETATM   17  C   UNK N   1      37.960   9.348  13.414  0.00  0.00     0.126 A 
HETATM   18  C   UNK N   1      37.425   9.427  14.880  0.00  0.00     0.061 A 
ENDROOT
BRANCH   9  19
HETATM   19  O   UNK N   1      35.368  11.024  19.865  0.00  0.00    -0.356 OA
HETATM   20  C   UNK N   1      34.639   9.894  20.162  0.00  0.00     0.210 C 
ENDBRANCH   9  19
TORSDOF 1
ENDMDL
MODEL 6
REMARK VINA RESULT:      -5.8      7.574     10.364
REMARK  1 active torsions:
REMARK  status: ('A' for Active; 'I' for Inactive)
REMARK    1  A    between atoms: C_9  and  O_12 
ROOT
HETATM    1  C   UNK N   1      35.588  14.093   9.577  0.00  0.00     0.151 C 
HETATM    2  N   UNK N   1      35.493  13.784  10.980  0.00  0.00    -0.368 N 
HETATM    3  C   UNK N   1      36.037  14.749  11.939  0.00  0.00     0.144 A 
HETATM    4  C   UNK N   1      36.016  14.362  13.451  0.00  0.00     0.149 A 
HETATM    5  N   UNK N   1      35.406  13.063  13.726  0.00  0.00    -0.341 N 
HETATM    6  C   UNK N   1      35.262  12.408  14.896  0.00  0.00     0.046 A 
HETATM    7  C   UNK N   1      34.649  11.191  14.679  0.00  0.00     0.002 A 
HETATM    8  C   UNK N   1      34.408  10.295  15.714  0.00  0.00     0.051 A 
HETATM    9  C   UNK N   1      34.821  10.659  17.012  0.00  0.00     0.069 A 
HETATM   10  C   UNK N   1      35.447  11.920  17.229  0.00  0.00     0.039 A 
HETATM   11  C   UNK N   1      35.668  12.811  16.162  0.00  0.00     0.033 A 
HETATM   12  C   UNK N   1      34.410  11.110  13.320  0.00  0.00    -0.013 A 
HETATM   13  C   UNK N   1      34.896  12.261  12.792  0.00  0.00     0.086 A 
HETATM   14  C   UNK N   1      34.902  12.558  11.401  0.00  0.00     0.127 A 
HETATM   15  N   UNK N   1      34.408  11.705  10.562  0.00  0.00    -0.374 N 
ATOM     16  HN  UNK N   1      34.438  11.938   9.570  1.00  0.00     0.161 HD
HETATM   17  C   UNK N   1      33.807  10.417  10.950  0.00  0.00     0.126 A 
HETATM   18  C   UNK N   1      33.808  10.046  12.469  0.00  0.00     0.061 A 
ENDROOT
BRANCH   9  19
HETATM   19  O   UNK N   1      34.631   9.782  18.026  0.00  0.00    -0.356 OA
HETATM   20  C   UNK N   1      35.156   9.963  19.285  0.00  0.00     0.210 C 
ENDBRANCH   9  19
TORSDOF 1
ENDMDL
MODEL 7
REMARK VINA RESULT:      -5.8      3.065      5.747
REMARK  1 active torsions:
REMARK  status: ('A' for Active; 'I' for Inactive)
REMARK    1  A    between atoms: C_9  and  O_12 
ROOT
HETATM    1  C   UNK N   1      33.229  16.285   8.960  0.00  0.00     0.151 C 
HETATM    2  N   UNK N   1      32.183  16.399   7.976  0.00  0.00    -0.368 N 
HETATM    3  C   UNK N   1      32.382  15.750   6.678  0.00  0.00     0.144 A 
HETATM    4  C   UNK N   1      31.287  15.960   5.586  0.00  0.00     0.149 A 
HETATM    5  N   UNK N   1      30.155  16.774   6.023  0.00  0.00    -0.341 N 
HETATM    6  C   UNK N   1      29.070  17.184   5.336  0.00  0.00     0.046 A 
HETATM    7  C   UNK N   1      28.269  17.962   6.146  0.00  0.00     0.002 A 
HETATM    8  C   UNK N   1      27.098  18.546   5.678  0.00  0.00     0.051 A 
HETATM    9  C   UNK N   1      26.745  18.330   4.330  0.00  0.00     0.069 A 
HETATM   10  C   UNK N   1      27.573  17.519   3.502  0.00  0.00     0.039 A 
HETATM   11  C   UNK N   1      28.749  16.933   4.007  0.00  0.00     0.033 A 
HETATM   12  C   UNK N   1      28.896  18.022   7.376  0.00  0.00    -0.013 A 
HETATM   13  C   UNK N   1      30.034  17.296   7.243  0.00  0.00     0.086 A 
HETATM   14  C   UNK N   1      31.008  17.147   8.270  0.00  0.00     0.127 A 
HETATM   15  N   UNK N   1      30.818  17.715   9.418  0.00  0.00    -0.374 N 
ATOM     16  HN  UNK N   1      31.539  17.603  10.132  1.00  0.00     0.161 HD
HETATM   17  C   UNK N   1      29.629  18.514   9.759  0.00  0.00     0.126 A 
HETATM   18  C   UNK N   1      28.552  18.721   8.646  0.00  0.00     0.061 A 
ENDROOT
BRANCH   9  19
HETATM   19  O   UNK N   1      25.629  18.923   3.845  0.00  0.00    -0.356 OA
HETATM   20  C   UNK N   1      25.652  20.094   3.122  0.00  0.00     0.210 C 
ENDBRANCH   9  19
TORSDOF 1
ENDMDL
MODEL 8
REMARK VINA RESULT:      -5.7      9.139     11.871
REMARK  1 active torsions:
REMARK  status: ('A' for Active; 'I' for Inactive)
REMARK    1  A    between atoms: C_9  and  O_12 
ROOT
HETATM    1  C   UNK N   1      36.691  13.591  11.091  0.00  0.00     0.151 C 
HETATM    2  N   UNK N   1      36.424  12.770  12.243  0.00  0.00    -0.368 N 
HETATM    3  C   UNK N   1      36.059  11.368  12.023  0.00  0.00     0.144 A 
HETATM    4  C   UNK N   1      35.679  10.511  13.271  0.00  0.00     0.149 A 
HETATM    5  N   UNK N   1      35.771  11.230  14.539  0.00  0.00    -0.341 N 
HETATM    6  C   UNK N   1      35.479  10.817  15.789  0.00  0.00     0.046 A 
HETATM    7  C   UNK N   1      35.691  11.846  16.684  0.00  0.00     0.002 A 
HETATM    8  C   UNK N   1      35.434  11.701  18.043  0.00  0.00     0.051 A 
HETATM    9  C   UNK N   1      34.933  10.463  18.492  0.00  0.00     0.069 A 
HETATM   10  C   UNK N   1      34.724   9.403  17.563  0.00  0.00     0.039 A 
HETATM   11  C   UNK N   1      35.003   9.576  16.195  0.00  0.00     0.033 A 
HETATM   12  C   UNK N   1      36.132  12.925  15.943  0.00  0.00    -0.013 A 
HETATM   13  C   UNK N   1      36.153  12.502  14.654  0.00  0.00     0.086 A 
HETATM   14  C   UNK N   1      36.496  13.330  13.550  0.00  0.00     0.127 A 
HETATM   15  N   UNK N   1      36.829  14.565  13.756  0.00  0.00    -0.374 N 
ATOM     16  HN  UNK N   1      37.058  15.139  12.944  1.00  0.00     0.161 HD
HETATM   17  C   UNK N   1      36.897  15.192  15.086  0.00  0.00     0.126 A 
HETATM   18  C   UNK N   1      36.499  14.319  16.320  0.00  0.00     0.061 A 
ENDROOT
BRANCH   9  19
HETATM   19  O   UNK N   1      34.640  10.317  19.806  0.00  0.00    -0.356 OA
HETATM   20  C   UNK N   1      33.846   9.302  20.291  0.00  0.00     0.210 C 
ENDBRANCH   9  19
TORSDOF 1
ENDMDL
MODEL 9
REMARK VINA RESULT:      -5.6     12.050     14.411
REMARK  1 active torsions:
REMARK  status: ('A' for Active; 'I' for Inactive)
REMARK    1  A    between atoms: C_9  and  O_12 
ROOT
HETATM    1  C   UNK N   1      31.914  19.945  -6.638  0.00  0.00     0.151 C 
HETATM    2  N   UNK N   1      30.798  20.811  -6.359  0.00  0.00    -0.368 N 
HETATM    3  C   UNK N   1      29.769  20.966  -7.391  0.00  0.00     0.144 A 
HETATM    4  C   UNK N   1      28.613  21.979  -7.118  0.00  0.00     0.149 A 
HETATM    5  N   UNK N   1      28.691  22.637  -5.816  0.00  0.00    -0.341 N 
HETATM    6  C   UNK N   1      27.896  23.585  -5.279  0.00  0.00     0.046 A 
HETATM    7  C   UNK N   1      28.364  23.935  -4.029  0.00  0.00     0.002 A 
HETATM    8  C   UNK N   1      27.749  24.920  -3.264  0.00  0.00     0.051 A 
HETATM    9  C   UNK N   1      26.623  25.571  -3.808  0.00  0.00     0.069 A 
HETATM   10  C   UNK N   1      26.141  25.198  -5.095  0.00  0.00     0.039 A 
HETATM   11  C   UNK N   1      26.779  24.190  -5.842  0.00  0.00     0.033 A 
HETATM   12  C   UNK N   1      29.488  23.165  -3.801  0.00  0.00    -0.013 A 
HETATM   13  C   UNK N   1      29.645  22.406  -4.915  0.00  0.00     0.086 A 
HETATM   14  C   UNK N   1      30.727  21.505  -5.118  0.00  0.00     0.127 A 
HETATM   15  N   UNK N   1      31.626  21.366  -4.195  0.00  0.00    -0.374 N 
ATOM     16  HN  UNK N   1      32.397  20.723  -4.373  1.00  0.00     0.161 HD
HETATM   17  C   UNK N   1      31.605  22.079  -2.906  0.00  0.00     0.126 A 
HETATM   18  C   UNK N   1      30.445  23.097  -2.661  0.00  0.00     0.061 A 
ENDROOT
BRANCH   9  19
HETATM   19  O   UNK N   1      26.034  26.560  -3.094  0.00  0.00    -0.356 OA
HETATM   20  C   UNK N   1      25.676  27.771  -3.640  0.00  0.00     0.210 C 
ENDBRANCH   9  19
TORSDOF 1
ENDMDL
