MODEL 1
REMARK VINA RESULT:      -7.4      0.000      0.000
REMARK  15 active torsions:
REMARK  status: ('A' for Active; 'I' for Inactive)
REMARK    1  A    between atoms: C_16  and  O_1 
REMARK    2  A    between atoms: C_22  and  O_1 
REMARK    3  A    between atoms: C_19  and  O_3 
REMARK    4  A    between atoms: C_26  and  O_3 
REMARK    5  A    between atoms: C_23  and  O_5 
REMARK    6  A    between atoms: O_5  and  C_32 
REMARK    7  A    between atoms: C_20  and  O_7 
REMARK    8  A    between atoms: C_27  and  O_8 
REMARK    9  A    between atoms: C_31  and  O_9 
REMARK   10  A    between atoms: C_41  and  O_12 
REMARK   11  A    between atoms: C_17  and  N_15 
REMARK   12  A    between atoms: C_28  and  C_37 
REMARK   13  A    between atoms: C_32  and  C_40 
REMARK   14  A    between atoms: C_37  and  C_43 
REMARK   15  A    between atoms: C_40  and  C_44 
ROOT
HETATM    1  O   UNK N   1      35.336  14.163  11.045  0.00  0.00    -0.351 OA
HETATM    2  O   UNK N   1      33.781  12.000  10.622  0.00  0.00    -0.388 OA
HETATM    3  C   UNK N   1      35.885  12.254  12.596  0.00  0.00     0.189 C 
HETATM    4  C   UNK N   1      35.981  11.367  11.338  0.00  0.00     0.286 C 
HETATM    5  C   UNK N   1      35.127  11.916  10.231  0.00  0.00     0.209 C 
HETATM    6  C   UNK N   1      35.666  13.286   9.986  0.00  0.00     0.291 C 
HETATM    7  C   UNK N   1      36.118  13.742  12.162  0.00  0.00     0.152 C 
HETATM    8  C   UNK N   1      35.945  14.696  13.331  0.00  0.00     0.042 C 
HETATM    9  H   UNK N   1      32.859  12.120  10.899  0.00  0.00     0.210 HD
ENDROOT
BRANCH   4  10
HETATM   10  N   UNK N   1      35.885   9.912  11.539  0.00  0.00     0.089 N 
HETATM   11  C   UNK N   1      37.150   9.481  12.108  0.00  0.00     0.310 C 
HETATM   12  C   UNK N   1      35.721   9.160  10.294  0.00  0.00     0.310 C 
ENDBRANCH   4  10
BRANCH   6  13
HETATM   13  O   UNK N   1      35.517  13.761   8.661  0.00  0.00    -0.350 OA
BRANCH  13  14
HETATM   14  C   UNK N   1      34.528  13.065   7.929  0.00  0.00     0.160 C 
HETATM   15  C   UNK N   1      33.463  14.114   7.499  0.00  0.00     0.179 C 
HETATM   16  C   UNK N   1      32.952  15.047   8.622  0.00  0.00     0.159 C 
HETATM   17  C   UNK N   1      31.736  15.891   8.213  0.00  0.00     0.145 C 
HETATM   18  C   UNK N   1      31.955  16.829   7.056  0.00  0.00     0.261 C 
HETATM   19  O   UNK N   1      31.150  16.725   5.966  0.00  0.00    -0.316 OA
HETATM   20  O   UNK N   1      32.815  17.697   7.122  0.00  0.00    -0.265 OA
HETATM   21  C   UNK N   1      31.243  17.513   4.831  0.00  0.00     0.131 C 
HETATM   22  C   UNK N   1      32.505  17.214   4.014  0.00  0.00     0.059 C 
HETATM   23  C   UNK N   1      30.015  17.289   3.970  0.00  0.00     0.040 C 
HETATM   24  C   UNK N   1      32.710  15.743   3.856  0.00  0.00    -0.024 C 
HETATM   25  C   UNK N   1      33.869  15.265   3.421  0.00  0.00    -0.004 C 
HETATM   26  C   UNK N   1      34.099  13.827   3.515  0.00  0.00    -0.002 C 
HETATM   27  C   UNK N   1      35.330  13.334   3.406  0.00  0.00     0.005 C 
HETATM   28  C   UNK N   1      35.646  11.895   3.713  0.00  0.00     0.144 C 
HETATM   29  C   UNK N   1      34.529  11.105   4.432  0.00  0.00     0.014 C 
HETATM   30  C   UNK N   1      34.029  11.755   5.749  0.00  0.00     0.014 C 
HETATM   31  C   UNK N   1      34.967   9.670   4.690  0.00  0.00     0.012 C 
HETATM   32  C   UNK N   1      35.120  12.376   6.639  0.00  0.00     0.024 C 
BRANCH  15  33
HETATM   33  O   UNK N   1      33.851  14.839   6.349  0.00  0.00    -0.386 OA
HETATM   34  C   UNK N   1      35.038  15.551   6.599  0.00  0.00     0.202 C 
ENDBRANCH  15  33
BRANCH  16  35
HETATM   35  O   UNK N   1      32.604  14.295   9.745  0.00  0.00    -0.392 OA
HETATM   36  H   UNK N   1      32.325  13.367   9.802  0.00  0.00     0.210 HD
ENDBRANCH  16  35
BRANCH  28  37
HETATM   37  O   UNK N   1      36.052  11.245   2.547  0.00  0.00    -0.391 OA
HETATM   38  H   UNK N   1      35.930  11.663   1.680  0.00  0.00     0.210 HD
ENDBRANCH  28  37
BRANCH  32  39
HETATM   39  C   UNK N   1      36.197  11.329   6.880  0.00  0.00     0.076 C 
BRANCH  39  40
HETATM   40  C   UNK N   1      37.563  11.891   6.692  0.00  0.00     0.231 C 
HETATM   41  O   UNK N   1      37.695  13.045   6.320  0.00  0.00    -0.307 OA
ENDBRANCH  39  40
ENDBRANCH  32  39
ENDBRANCH  13  14
ENDBRANCH   6  13
BRANCH   3  42
HETATM   42  O   UNK N   1      34.675  12.063  13.288  0.00  0.00    -0.351 OA
BRANCH  42  43
HETATM   43  C   UNK N   1      35.096  11.689  14.569  0.00  0.00     0.264 C 
HETATM   44  O   UNK N   1      34.589  12.519  15.575  0.00  0.00    -0.354 OA
HETATM   45  C   UNK N   1      35.513  12.389  16.629  0.00  0.00     0.153 C 
HETATM   46  C   UNK N   1      35.416  10.973  17.243  0.00  0.00     0.194 C 
HETATM   47  C   UNK N   1      35.245  13.459  17.669  0.00  0.00     0.042 C 
HETATM   48  C   UNK N   1      35.672   9.898  16.165  0.00  0.00     0.087 C 
HETATM   49  C   UNK N   1      34.839  10.222  14.914  0.00  0.00     0.101 C 
HETATM   50  C   UNK N   1      37.155   9.848  15.812  0.00  0.00     0.049 C 
BRANCH  46  51
HETATM   51  O   UNK N   1      36.329  10.845  18.268  0.00  0.00    -0.310 OA
BRANCH  51  52
HETATM   52  C   UNK N   1      36.014  10.282  19.455  0.00  0.00     0.259 C 
HETATM   53  O   UNK N   1      36.719   9.413  19.942  0.00  0.00    -0.265 OA
BRANCH  52  54
HETATM   54  C   UNK N   1      34.776  10.741  20.166  0.00  0.00     0.115 C 
BRANCH  54  55
HETATM   55  C   UNK N   1      33.930   9.584  20.698  0.00  0.00    -0.013 C 
HETATM   56  C   UNK N   1      33.225   8.845  19.576  0.00  0.00     0.010 C 
HETATM   57  C   UNK N   1      32.926  10.045  21.743  0.00  0.00     0.010 C 
ENDBRANCH  54  55
ENDBRANCH  52  54
ENDBRANCH  51  52
ENDBRANCH  46  51
BRANCH  48  58
HETATM   58  O   UNK N   1      35.302   8.646  16.654  0.00  0.00    -0.387 OA
HETATM   59  H   UNK N   1      35.760   7.901  17.072  0.00  0.00     0.210 HD
ENDBRANCH  48  58
ENDBRANCH  42  43
ENDBRANCH   3  42
TORSDOF 15
ENDMDL
MODEL 2
REMARK VINA RESULT:      -7.0      6.122     10.716
REMARK  15 active torsions:
REMARK  status: ('A' for Active; 'I' for Inactive)
REMARK    1  A    between atoms: C_16  and  O_1 
REMARK    2  A    between atoms: C_22  and  O_1 
REMARK    3  A    between atoms: C_19  and  O_3 
REMARK    4  A    between atoms: C_26  and  O_3 
REMARK    5  A    between atoms: C_23  and  O_5 
REMARK    6  A    between atoms: O_5  and  C_32 
REMARK    7  A    between atoms: C_20  and  O_7 
REMARK    8  A    between atoms: C_27  and  O_8 
REMARK    9  A    between atoms: C_31  and  O_9 
REMARK   10  A    between atoms: C_41  and  O_12 
REMARK   11  A    between atoms: C_17  and  N_15 
REMARK   12  A    between atoms: C_28  and  C_37 
REMARK   13  A    between atoms: C_32  and  C_40 
REMARK   14  A    between atoms: C_37  and  C_43 
REMARK   15  A    between atoms: C_40  and  C_44 
ROOT
HETATM    1  O   UNK N   1      28.774  15.004   4.209  0.00  0.00    -0.351 OA
HETATM    2  O   UNK N   1      28.929  17.695   4.296  0.00  0.00    -0.388 OA
HETATM    3  C   UNK N   1      30.038  15.838   6.223  0.00  0.00     0.189 C 
HETATM    4  C   UNK N   1      28.829  16.754   6.500  0.00  0.00     0.286 C 
HETATM    5  C   UNK N   1      28.091  17.065   5.230  0.00  0.00     0.209 C 
HETATM    6  C   UNK N   1      27.668  15.732   4.706  0.00  0.00     0.291 C 
HETATM    7  C   UNK N   1      29.546  14.633   5.350  0.00  0.00     0.152 C 
HETATM    8  C   UNK N   1      30.699  13.729   4.949  0.00  0.00     0.042 C 
HETATM    9  H   UNK N   1      29.511  18.076   3.620  0.00  0.00     0.210 HD
ENDROOT
BRANCH   4  10
HETATM   10  N   UNK N   1      29.054  17.905   7.389  0.00  0.00     0.089 N 
HETATM   11  C   UNK N   1      29.060  17.394   8.749  0.00  0.00     0.310 C 
HETATM   12  C   UNK N   1      27.986  18.904   7.334  0.00  0.00     0.310 C 
ENDBRANCH   4  10
BRANCH   6  13
HETATM   13  O   UNK N   1      26.479  15.738   3.940  0.00  0.00    -0.350 OA
BRANCH  13  14
HETATM   14  C   UNK N   1      25.712  14.561   4.094  0.00  0.00     0.160 C 
HETATM   15  C   UNK N   1      24.342  14.991   4.692  0.00  0.00     0.179 C 
HETATM   16  C   UNK N   1      24.414  15.926   5.922  0.00  0.00     0.159 C 
HETATM   17  C   UNK N   1      23.061  16.123   6.622  0.00  0.00     0.145 C 
HETATM   18  C   UNK N   1      21.975  16.739   5.781  0.00  0.00     0.261 C 
HETATM   19  O   UNK N   1      20.807  16.064   5.622  0.00  0.00    -0.316 OA
HETATM   20  O   UNK N   1      22.133  17.848   5.288  0.00  0.00    -0.265 OA
HETATM   21  C   UNK N   1      19.730  16.506   4.871  0.00  0.00     0.131 C 
HETATM   22  C   UNK N   1      20.022  16.492   3.367  0.00  0.00     0.059 C 
HETATM   23  C   UNK N   1      18.529  15.627   5.163  0.00  0.00     0.040 C 
HETATM   24  C   UNK N   1      20.678  15.215   2.956  0.00  0.00    -0.024 C 
HETATM   25  C   UNK N   1      21.253  15.103   1.764  0.00  0.00    -0.004 C 
HETATM   26  C   UNK N   1      22.083  13.930   1.509  0.00  0.00    -0.002 C 
HETATM   27  C   UNK N   1      22.932  13.917   0.484  0.00  0.00     0.005 C 
HETATM   28  C   UNK N   1      23.959  12.830   0.310  0.00  0.00     0.144 C 
HETATM   29  C   UNK N   1      24.161  11.901   1.527  0.00  0.00     0.014 C 
HETATM   30  C   UNK N   1      24.497  12.639   2.850  0.00  0.00     0.014 C 
HETATM   31  C   UNK N   1      25.222  10.850   1.230  0.00  0.00     0.012 C 
HETATM   32  C   UNK N   1      25.465  13.829   2.719  0.00  0.00     0.024 C 
BRANCH  15  33
HETATM   33  O   UNK N   1      23.452  15.480   3.710  0.00  0.00    -0.386 OA
HETATM   34  C   UNK N   1      23.967  16.651   3.125  0.00  0.00     0.202 C 
ENDBRANCH  15  33
BRANCH  16  35
HETATM   35  O   UNK N   1      25.319  15.420   6.855  0.00  0.00    -0.392 OA
HETATM   36  H   UNK N   1      25.377  14.529   7.235  0.00  0.00     0.210 HD
ENDBRANCH  16  35
BRANCH  28  37
HETATM   37  O   UNK N   1      23.673  12.097  -0.843  0.00  0.00    -0.391 OA
HETATM   38  H   UNK N   1      22.756  11.959  -1.126  0.00  0.00     0.210 HD
ENDBRANCH  28  37
BRANCH  32  39
HETATM   39  C   UNK N   1      26.710  13.356   1.985  0.00  0.00     0.076 C 
BRANCH  39  40
HETATM   40  C   UNK N   1      27.580  12.520   2.856  0.00  0.00     0.231 C 
HETATM   41  O   UNK N   1      28.618  12.059   2.410  0.00  0.00    -0.307 OA
ENDBRANCH  39  40
ENDBRANCH  32  39
ENDBRANCH  13  14
ENDBRANCH   6  13
BRANCH   3  42
HETATM   42  O   UNK N   1      31.111  16.539   5.642  0.00  0.00    -0.351 OA
BRANCH  42  43
HETATM   43  C   UNK N   1      32.143  16.369   6.572  0.00  0.00     0.264 C 
HETATM   44  O   UNK N   1      32.527  17.567   7.186  0.00  0.00    -0.354 OA
HETATM   45  C   UNK N   1      33.855  17.336   7.594  0.00  0.00     0.153 C 
HETATM   46  C   UNK N   1      33.880  16.310   8.750  0.00  0.00     0.194 C 
HETATM   47  C   UNK N   1      34.490  18.648   8.008  0.00  0.00     0.042 C 
HETATM   48  C   UNK N   1      33.211  14.989   8.315  0.00  0.00     0.087 C 
HETATM   49  C   UNK N   1      31.871  15.297   7.628  0.00  0.00     0.101 C 
HETATM   50  C   UNK N   1      34.127  14.222   7.365  0.00  0.00     0.049 C 
BRANCH  46  51
HETATM   51  O   UNK N   1      35.182  16.078   9.140  0.00  0.00    -0.310 OA
BRANCH  51  52
HETATM   52  C   UNK N   1      35.577  16.150  10.430  0.00  0.00     0.259 C 
HETATM   53  O   UNK N   1      35.277  17.108  11.124  0.00  0.00    -0.265 OA
BRANCH  52  54
HETATM   54  C   UNK N   1      36.400  15.032  10.997  0.00  0.00     0.115 C 
BRANCH  54  55
HETATM   55  C   UNK N   1      36.799  13.992   9.949  0.00  0.00    -0.013 C 
HETATM   56  C   UNK N   1      36.151  12.647  10.223  0.00  0.00     0.010 C 
HETATM   57  C   UNK N   1      38.308  13.842   9.840  0.00  0.00     0.010 C 
ENDBRANCH  54  55
ENDBRANCH  52  54
ENDBRANCH  51  52
ENDBRANCH  46  51
BRANCH  48  58
HETATM   58  O   UNK N   1      32.983  14.188   9.433  0.00  0.00    -0.387 OA
HETATM   59  H   UNK N   1      32.371  13.471   9.661  0.00  0.00     0.210 HD
ENDBRANCH  48  58
ENDBRANCH  42  43
ENDBRANCH   3  42
TORSDOF 15
ENDMDL
MODEL 3
REMARK VINA RESULT:      -7.0      3.495      6.338
REMARK  15 active torsions:
REMARK  status: ('A' for Active; 'I' for Inactive)
REMARK    1  A    between atoms: C_16  and  O_1 
REMARK    2  A    between atoms: C_22  and  O_1 
REMARK    3  A    between atoms: C_19  and  O_3 
REMARK    4  A    between atoms: C_26  and  O_3 
REMARK    5  A    between atoms: C_23  and  O_5 
REMARK    6  A    between atoms: O_5  and  C_32 
REMARK    7  A    between atoms: C_20  and  O_7 
REMARK    8  A    between atoms: C_27  and  O_8 
REMARK    9  A    between atoms: C_31  and  O_9 
REMARK   10  A    between atoms: C_41  and  O_12 
REMARK   11  A    between atoms: C_17  and  N_15 
REMARK   12  A    between atoms: C_28  and  C_37 
REMARK   13  A    between atoms: C_32  and  C_40 
REMARK   14  A    between atoms: C_37  and  C_43 
REMARK   15  A    between atoms: C_40  and  C_44 
ROOT
HETATM    1  O   UNK N   1      31.976  14.391   7.229  0.00  0.00    -0.351 OA
HETATM    2  O   UNK N   1      32.940  12.404   5.681  0.00  0.00    -0.388 OA
HETATM    3  C   UNK N   1      34.451  14.031   7.542  0.00  0.00     0.189 C 
HETATM    4  C   UNK N   1      34.576  14.128   6.009  0.00  0.00     0.286 C 
HETATM    5  C   UNK N   1      33.294  13.719   5.340  0.00  0.00     0.209 C 
HETATM    6  C   UNK N   1      32.274  14.669   5.875  0.00  0.00     0.291 C 
HETATM    7  C   UNK N   1      33.136  14.768   7.971  0.00  0.00     0.152 C 
HETATM    8  C   UNK N   1      32.885  14.636   9.463  0.00  0.00     0.042 C 
HETATM    9  H   UNK N   1      32.653  11.519   5.956  0.00  0.00     0.210 HD
ENDROOT
BRANCH   4  10
HETATM   10  N   UNK N   1      35.799  13.578   5.403  0.00  0.00     0.089 N 
HETATM   11  C   UNK N   1      36.881  14.486   5.739  0.00  0.00     0.310 C 
HETATM   12  C   UNK N   1      35.753  13.522   3.942  0.00  0.00     0.310 C 
ENDBRANCH   4  10
BRANCH   6  13
HETATM   13  O   UNK N   1      31.195  14.944   5.002  0.00  0.00    -0.350 OA
BRANCH  13  14
HETATM   14  C   UNK N   1      29.957  14.452   5.476  0.00  0.00     0.160 C 
HETATM   15  C   UNK N   1      29.012  15.679   5.624  0.00  0.00     0.179 C 
HETATM   16  C   UNK N   1      29.603  16.890   6.384  0.00  0.00     0.159 C 
HETATM   17  C   UNK N   1      28.564  17.970   6.719  0.00  0.00     0.145 C 
HETATM   18  C   UNK N   1      27.878  18.603   5.538  0.00  0.00     0.261 C 
HETATM   19  O   UNK N   1      26.522  18.559   5.466  0.00  0.00    -0.316 OA
HETATM   20  O   UNK N   1      28.534  19.184   4.684  0.00  0.00    -0.265 OA
HETATM   21  C   UNK N   1      25.763  19.090   4.436  0.00  0.00     0.131 C 
HETATM   22  C   UNK N   1      25.927  18.310   3.127  0.00  0.00     0.059 C 
HETATM   23  C   UNK N   1      24.303  19.091   4.847  0.00  0.00     0.040 C 
HETATM   24  C   UNK N   1      25.844  16.837   3.362  0.00  0.00    -0.024 C 
HETATM   25  C   UNK N   1      26.224  15.981   2.421  0.00  0.00    -0.004 C 
HETATM   26  C   UNK N   1      26.352  14.573   2.785  0.00  0.00    -0.002 C 
HETATM   27  C   UNK N   1      27.026  13.735   2.002  0.00  0.00     0.005 C 
HETATM   28  C   UNK N   1      27.373  12.336   2.437  0.00  0.00     0.144 C 
HETATM   29  C   UNK N   1      27.157  12.031   3.937  0.00  0.00     0.014 C 
HETATM   30  C   UNK N   1      27.886  13.004   4.901  0.00  0.00     0.014 C 
HETATM   31  C   UNK N   1      27.545  10.593   4.252  0.00  0.00     0.012 C 
HETATM   32  C   UNK N   1      29.306  13.421   4.476  0.00  0.00     0.024 C 
BRANCH  15  33
HETATM   33  O   UNK N   1      28.426  16.063   4.397  0.00  0.00    -0.386 OA
HETATM   34  C   UNK N   1      29.423  16.420   3.471  0.00  0.00     0.202 C 
ENDBRANCH  15  33
BRANCH  16  35
HETATM   35  O   UNK N   1      30.191  16.465   7.575  0.00  0.00    -0.392 OA
HETATM   36  H   UNK N   1      30.887  16.887   8.103  0.00  0.00     0.210 HD
ENDBRANCH  16  35
BRANCH  28  37
HETATM   37  O   UNK N   1      26.700  11.416   1.633  0.00  0.00    -0.391 OA
HETATM   38  H   UNK N   1      27.187  10.856   1.008  0.00  0.00     0.210 HD
ENDBRANCH  28  37
BRANCH  32  39
HETATM   39  C   UNK N   1      30.114  12.162   4.200  0.00  0.00     0.076 C 
BRANCH  39  40
HETATM   40  C   UNK N   1      30.841  12.247   2.904  0.00  0.00     0.231 C 
HETATM   41  O   UNK N   1      30.749  13.256   2.225  0.00  0.00    -0.307 OA
ENDBRANCH  39  40
ENDBRANCH  32  39
ENDBRANCH  13  14
ENDBRANCH   6  13
BRANCH   3  42
HETATM   42  O   UNK N   1      34.511  12.701   7.995  0.00  0.00    -0.351 OA
BRANCH  42  43
HETATM   43  C   UNK N   1      35.068  12.825   9.274  0.00  0.00     0.264 C 
HETATM   44  O   UNK N   1      34.850  11.699  10.076  0.00  0.00    -0.354 OA
HETATM   45  C   UNK N   1      34.930  12.191  11.392  0.00  0.00     0.153 C 
HETATM   46  C   UNK N   1      36.387  12.592  11.717  0.00  0.00     0.194 C 
HETATM   47  C   UNK N   1      34.422  11.138  12.356  0.00  0.00     0.042 C 
HETATM   48  C   UNK N   1      36.893  13.651  10.713  0.00  0.00     0.087 C 
HETATM   49  C   UNK N   1      36.549  13.203   9.283  0.00  0.00     0.101 C 
HETATM   50  C   UNK N   1      36.256  15.005  11.009  0.00  0.00     0.049 C 
BRANCH  46  51
HETATM   51  O   UNK N   1      36.461  13.085  13.003  0.00  0.00    -0.310 OA
BRANCH  51  52
HETATM   52  C   UNK N   1      37.046  12.401  14.009  0.00  0.00     0.259 C 
HETATM   53  O   UNK N   1      37.784  11.456  13.779  0.00  0.00    -0.265 OA
BRANCH  52  54
HETATM   54  C   UNK N   1      36.771  12.819  15.423  0.00  0.00     0.115 C 
BRANCH  54  55
HETATM   55  C   UNK N   1      35.345  12.502  15.873  0.00  0.00    -0.013 C 
HETATM   56  C   UNK N   1      34.978  13.255  17.139  0.00  0.00     0.010 C 
HETATM   57  C   UNK N   1      35.124  11.009  16.061  0.00  0.00     0.010 C 
ENDBRANCH  54  55
ENDBRANCH  52  54
ENDBRANCH  51  52
ENDBRANCH  46  51
BRANCH  48  58
HETATM   58  O   UNK N   1      38.275  13.789  10.833  0.00  0.00    -0.387 OA
HETATM   59  H   UNK N   1      38.959  14.327  10.406  0.00  0.00     0.210 HD
ENDBRANCH  48  58
ENDBRANCH  42  43
ENDBRANCH   3  42
TORSDOF 15
ENDMDL
MODEL 4
REMARK VINA RESULT:      -6.9      7.473     12.942
REMARK  15 active torsions:
REMARK  status: ('A' for Active; 'I' for Inactive)
REMARK    1  A    between atoms: C_16  and  O_1 
REMARK    2  A    between atoms: C_22  and  O_1 
REMARK    3  A    between atoms: C_19  and  O_3 
REMARK    4  A    between atoms: C_26  and  O_3 
REMARK    5  A    between atoms: C_23  and  O_5 
REMARK    6  A    between atoms: O_5  and  C_32 
REMARK    7  A    between atoms: C_20  and  O_7 
REMARK    8  A    between atoms: C_27  and  O_8 
REMARK    9  A    between atoms: C_31  and  O_9 
REMARK   10  A    between atoms: C_41  and  O_12 
REMARK   11  A    between atoms: C_17  and  N_15 
REMARK   12  A    between atoms: C_28  and  C_37 
REMARK   13  A    between atoms: C_32  and  C_40 
REMARK   14  A    between atoms: C_37  and  C_43 
REMARK   15  A    between atoms: C_40  and  C_44 
ROOT
HETATM    1  O   UNK N   1      27.485  13.371   4.101  0.00  0.00    -0.351 OA
HETATM    2  O   UNK N   1      26.957  15.708   2.863  0.00  0.00    -0.388 OA
HETATM    3  C   UNK N   1      28.710  15.316   5.135  0.00  0.00     0.189 C 
HETATM    4  C   UNK N   1      27.346  16.031   5.208  0.00  0.00     0.286 C 
HETATM    5  C   UNK N   1      26.417  15.519   4.145  0.00  0.00     0.209 C 
HETATM    6  C   UNK N   1      26.293  14.058   4.427  0.00  0.00     0.291 C 
HETATM    7  C   UNK N   1      28.448  13.772   5.075  0.00  0.00     0.152 C 
HETATM    8  C   UNK N   1      29.742  12.994   4.904  0.00  0.00     0.042 C 
HETATM    9  H   UNK N   1      27.344  15.778   1.976  0.00  0.00     0.210 HD
ENDROOT
BRANCH   4  10
HETATM   10  N   UNK N   1      27.367  17.493   5.368  0.00  0.00     0.089 N 
HETATM   11  C   UNK N   1      27.593  17.761   6.777  0.00  0.00     0.310 C 
HETATM   12  C   UNK N   1      26.097  18.136   5.030  0.00  0.00     0.310 C 
ENDBRANCH   4  10
BRANCH   6  13
HETATM   13  O   UNK N   1      25.064  13.474   4.038  0.00  0.00    -0.350 OA
BRANCH  13  14
HETATM   14  C   UNK N   1      23.998  14.400   3.993  0.00  0.00     0.160 C 
HETATM   15  C   UNK N   1      23.074  13.967   2.819  0.00  0.00     0.179 C 
HETATM   16  C   UNK N   1      23.788  13.681   1.477  0.00  0.00     0.159 C 
HETATM   17  C   UNK N   1      22.824  13.500   0.296  0.00  0.00     0.145 C 
HETATM   18  C   UNK N   1      21.849  12.359   0.420  0.00  0.00     0.261 C 
HETATM   19  O   UNK N   1      20.518  12.622   0.334  0.00  0.00    -0.316 OA
HETATM   20  O   UNK N   1      22.256  11.213   0.551  0.00  0.00    -0.265 OA
HETATM   21  C   UNK N   1      19.512  11.676   0.438  0.00  0.00     0.131 C 
HETATM   22  C   UNK N   1      19.381  11.119   1.860  0.00  0.00     0.059 C 
HETATM   23  C   UNK N   1      18.197  12.301   0.014  0.00  0.00     0.040 C 
HETATM   24  C   UNK N   1      19.411  12.214   2.874  0.00  0.00    -0.024 C 
HETATM   25  C   UNK N   1      19.580  11.938   4.162  0.00  0.00    -0.004 C 
HETATM   26  C   UNK N   1      19.844  13.047   5.074  0.00  0.00    -0.002 C 
HETATM   27  C   UNK N   1      20.337  12.817   6.288  0.00  0.00     0.005 C 
HETATM   28  C   UNK N   1      20.829  13.929   7.175  0.00  0.00     0.144 C 
HETATM   29  C   UNK N   1      20.996  15.304   6.492  0.00  0.00     0.014 C 
HETATM   30  C   UNK N   1      21.903  15.290   5.233  0.00  0.00     0.014 C 
HETATM   31  C   UNK N   1      21.501  16.340   7.488  0.00  0.00     0.012 C 
HETATM   32  C   UNK N   1      23.160  14.407   5.329  0.00  0.00     0.024 C 
BRANCH  15  33
HETATM   33  O   UNK N   1      22.193  12.922   3.180  0.00  0.00    -0.386 OA
HETATM   34  C   UNK N   1      22.921  11.788   3.582  0.00  0.00     0.202 C 
ENDBRANCH  15  33
BRANCH  16  35
HETATM   35  O   UNK N   1      24.664  14.723   1.171  0.00  0.00    -0.392 OA
HETATM   36  H   UNK N   1      25.030  14.986   0.312  0.00  0.00     0.210 HD
ENDBRANCH  16  35
BRANCH  28  37
HETATM   37  O   UNK N   1      20.015  14.021   8.304  0.00  0.00    -0.391 OA
HETATM   38  H   UNK N   1      20.270  13.591   9.135  0.00  0.00     0.210 HD
ENDBRANCH  28  37
BRANCH  32  39
HETATM   39  C   UNK N   1      23.921  14.792   6.589  0.00  0.00     0.076 C 
BRANCH  39  40
HETATM   40  C   UNK N   1      24.185  13.611   7.456  0.00  0.00     0.231 C 
HETATM   41  O   UNK N   1      25.321  13.181   7.562  0.00  0.00    -0.307 OA
ENDBRANCH  39  40
ENDBRANCH  32  39
ENDBRANCH  13  14
ENDBRANCH   6  13
BRANCH   3  42
HETATM   42  O   UNK N   1      29.497  15.784   4.068  0.00  0.00    -0.351 OA
BRANCH  42  43
HETATM   43  C   UNK N   1      30.613  16.332   4.711  0.00  0.00     0.264 C 
HETATM   44  O   UNK N   1      30.487  16.347   6.105  0.00  0.00    -0.354 OA
HETATM   45  C   UNK N   1      31.342  17.387   6.518  0.00  0.00     0.153 C 
HETATM   46  C   UNK N   1      32.816  16.979   6.291  0.00  0.00     0.194 C 
HETATM   47  C   UNK N   1      31.078  17.707   7.975  0.00  0.00     0.042 C 
HETATM   48  C   UNK N   1      33.059  16.639   4.805  0.00  0.00     0.087 C 
HETATM   49  C   UNK N   1      31.947  15.701   4.307  0.00  0.00     0.101 C 
HETATM   50  C   UNK N   1      33.087  17.915   3.969  0.00  0.00     0.049 C 
BRANCH  46  51
HETATM   51  O   UNK N   1      33.650  18.004   6.685  0.00  0.00    -0.310 OA
BRANCH  51  52
HETATM   52  C   UNK N   1      34.456  17.908   7.764  0.00  0.00     0.259 C 
HETATM   53  O   UNK N   1      34.933  18.906   8.280  0.00  0.00    -0.265 OA
BRANCH  52  54
HETATM   54  C   UNK N   1      34.763  16.549   8.319  0.00  0.00     0.115 C 
BRANCH  54  55
HETATM   55  C   UNK N   1      34.220  16.345   9.735  0.00  0.00    -0.013 C 
HETATM   56  C   UNK N   1      35.319  16.457  10.776  0.00  0.00     0.010 C 
HETATM   57  C   UNK N   1      33.486  15.021   9.878  0.00  0.00     0.010 C 
ENDBRANCH  54  55
ENDBRANCH  52  54
ENDBRANCH  51  52
ENDBRANCH  46  51
BRANCH  48  58
HETATM   58  O   UNK N   1      34.293  16.005   4.665  0.00  0.00    -0.387 OA
HETATM   59  H   UNK N   1      35.037  16.061   4.046  0.00  0.00     0.210 HD
ENDBRANCH  48  58
ENDBRANCH  42  43
ENDBRANCH   3  42
TORSDOF 15
ENDMDL
MODEL 5
REMARK VINA RESULT:      -6.9      5.433     12.796
REMARK  15 active torsions:
REMARK  status: ('A' for Active; 'I' for Inactive)
REMARK    1  A    between atoms: C_16  and  O_1 
REMARK    2  A    between atoms: C_22  and  O_1 
REMARK    3  A    between atoms: C_19  and  O_3 
REMARK    4  A    between atoms: C_26  and  O_3 
REMARK    5  A    between atoms: C_23  and  O_5 
REMARK    6  A    between atoms: O_5  and  C_32 
REMARK    7  A    between atoms: C_20  and  O_7 
REMARK    8  A    between atoms: C_27  and  O_8 
REMARK    9  A    between atoms: C_31  and  O_9 
REMARK   10  A    between atoms: C_41  and  O_12 
REMARK   11  A    between atoms: C_17  and  N_15 
REMARK   12  A    between atoms: C_28  and  C_37 
REMARK   13  A    between atoms: C_32  and  C_40 
REMARK   14  A    between atoms: C_37  and  C_43 
REMARK   15  A    between atoms: C_40  and  C_44 
ROOT
HETATM    1  O   UNK N   1      30.481  17.495   6.758  0.00  0.00    -0.351 OA
HETATM    2  O   UNK N   1      30.669  17.936   4.104  0.00  0.00    -0.388 OA
HETATM    3  C   UNK N   1      28.244  17.414   5.600  0.00  0.00     0.189 C 
HETATM    4  C   UNK N   1      28.883  16.417   4.613  0.00  0.00     0.286 C 
HETATM    5  C   UNK N   1      30.367  16.630   4.523  0.00  0.00     0.209 C 
HETATM    6  C   UNK N   1      30.860  16.423   5.917  0.00  0.00     0.291 C 
HETATM    7  C   UNK N   1      29.070  17.378   6.932  0.00  0.00     0.152 C 
HETATM    8  C   UNK N   1      28.563  18.405   7.929  0.00  0.00     0.042 C 
HETATM    9  H   UNK N   1      30.893  18.851   3.873  0.00  0.00     0.210 HD
ENDROOT
BRANCH   4  10
HETATM   10  N   UNK N   1      28.201  16.225   3.323  0.00  0.00     0.089 N 
HETATM   11  C   UNK N   1      27.197  15.196   3.527  0.00  0.00     0.310 C 
HETATM   12  C   UNK N   1      29.081  15.732   2.264  0.00  0.00     0.310 C 
ENDBRANCH   4  10
BRANCH   6  13
HETATM   13  O   UNK N   1      32.185  15.938   6.019  0.00  0.00    -0.350 OA
BRANCH  13  14
HETATM   14  C   UNK N   1      32.336  14.933   7.002  0.00  0.00     0.160 C 
HETATM   15  C   UNK N   1      32.709  13.622   6.252  0.00  0.00     0.179 C 
HETATM   16  C   UNK N   1      31.815  13.266   5.041  0.00  0.00     0.159 C 
HETATM   17  C   UNK N   1      32.063  11.854   4.490  0.00  0.00     0.145 C 
HETATM   18  C   UNK N   1      33.455  11.588   3.983  0.00  0.00     0.261 C 
HETATM   19  O   UNK N   1      34.161  10.557   4.516  0.00  0.00    -0.316 OA
HETATM   20  O   UNK N   1      33.919  12.265   3.075  0.00  0.00    -0.265 OA
HETATM   21  C   UNK N   1      35.450  10.204   4.153  0.00  0.00     0.131 C 
HETATM   22  C   UNK N   1      36.487  11.238   4.604  0.00  0.00     0.059 C 
HETATM   23  C   UNK N   1      35.783   8.854   4.757  0.00  0.00     0.040 C 
HETATM   24  C   UNK N   1      36.254  11.655   6.019  0.00  0.00    -0.024 C 
HETATM   25  C   UNK N   1      36.862  12.725   6.517  0.00  0.00    -0.004 C 
HETATM   26  C   UNK N   1      36.419  13.226   7.815  0.00  0.00    -0.002 C 
HETATM   27  C   UNK N   1      36.749  14.452   8.211  0.00  0.00     0.005 C 
HETATM   28  C   UNK N   1      36.139  15.091   9.430  0.00  0.00     0.144 C 
HETATM   29  C   UNK N   1      34.911  14.363  10.021  0.00  0.00     0.014 C 
HETATM   30  C   UNK N   1      33.761  14.120   9.008  0.00  0.00     0.014 C 
HETATM   31  C   UNK N   1      34.385  15.104  11.242  0.00  0.00     0.012 C 
HETATM   32  C   UNK N   1      33.477  15.277   8.034  0.00  0.00     0.024 C 
BRANCH  15  33
HETATM   33  O   UNK N   1      34.083  13.556   5.929  0.00  0.00    -0.386 OA
HETATM   34  C   UNK N   1      34.440  14.631   5.095  0.00  0.00     0.202 C 
ENDBRANCH  15  33
BRANCH  16  35
HETATM   35  O   UNK N   1      30.469  13.367   5.396  0.00  0.00    -0.392 OA
HETATM   36  H   UNK N   1      29.964  14.144   5.681  0.00  0.00     0.210 HD
ENDBRANCH  16  35
BRANCH  28  37
HETATM   37  O   UNK N   1      37.124  15.285  10.398  0.00  0.00    -0.391 OA
HETATM   38  H   UNK N   1      37.015  15.960  11.086  0.00  0.00     0.210 HD
ENDBRANCH  28  37
BRANCH  32  39
HETATM   39  C   UNK N   1      33.279  16.549   8.844  0.00  0.00     0.076 C 
BRANCH  39  40
HETATM   40  C   UNK N   1      33.963  17.714   8.217  0.00  0.00     0.231 C 
HETATM   41  O   UNK N   1      34.670  17.544   7.238  0.00  0.00    -0.307 OA
ENDBRANCH  39  40
ENDBRANCH  32  39
ENDBRANCH  13  14
ENDBRANCH   6  13
BRANCH   3  42
HETATM   42  O   UNK N   1      28.136  18.706   5.053  0.00  0.00    -0.351 OA
BRANCH  42  43
HETATM   43  C   UNK N   1      26.802  18.763   4.633  0.00  0.00     0.264 C 
HETATM   44  O   UNK N   1      25.955  17.949   5.393  0.00  0.00    -0.354 OA
HETATM   45  C   UNK N   1      24.873  17.679   4.534  0.00  0.00     0.153 C 
HETATM   46  C   UNK N   1      24.041  18.964   4.313  0.00  0.00     0.194 C 
HETATM   47  C   UNK N   1      24.025  16.570   5.125  0.00  0.00     0.042 C 
HETATM   48  C   UNK N   1      24.926  20.086   3.730  0.00  0.00     0.087 C 
HETATM   49  C   UNK N   1      26.232  20.179   4.537  0.00  0.00     0.101 C 
HETATM   50  C   UNK N   1      25.233  19.807   2.262  0.00  0.00     0.049 C 
BRANCH  46  51
HETATM   51  O   UNK N   1      22.989  18.699   3.462  0.00  0.00    -0.310 OA
BRANCH  51  52
HETATM   52  C   UNK N   1      21.717  19.048   3.751  0.00  0.00     0.259 C 
HETATM   53  O   UNK N   1      21.381  20.221   3.778  0.00  0.00    -0.265 OA
BRANCH  52  54
HETATM   54  C   UNK N   1      20.719  17.968   4.044  0.00  0.00     0.115 C 
BRANCH  54  55
HETATM   55  C   UNK N   1      20.678  16.884   2.965  0.00  0.00    -0.013 C 
HETATM   56  C   UNK N   1      20.047  17.395   1.683  0.00  0.00     0.010 C 
HETATM   57  C   UNK N   1      19.965  15.629   3.445  0.00  0.00     0.010 C 
ENDBRANCH  54  55
ENDBRANCH  52  54
ENDBRANCH  51  52
ENDBRANCH  46  51
BRANCH  48  58
HETATM   58  O   UNK N   1      24.250  21.303   3.805  0.00  0.00    -0.387 OA
HETATM   59  H   UNK N   1      23.349  21.610   3.620  0.00  0.00     0.210 HD
ENDBRANCH  48  58
ENDBRANCH  42  43
ENDBRANCH   3  42
TORSDOF 15
ENDMDL
MODEL 6
REMARK VINA RESULT:      -6.9      4.388     11.909
REMARK  15 active torsions:
REMARK  status: ('A' for Active; 'I' for Inactive)
REMARK    1  A    between atoms: C_16  and  O_1 
REMARK    2  A    between atoms: C_22  and  O_1 
REMARK    3  A    between atoms: C_19  and  O_3 
REMARK    4  A    between atoms: C_26  and  O_3 
REMARK    5  A    between atoms: C_23  and  O_5 
REMARK    6  A    between atoms: O_5  and  C_32 
REMARK    7  A    between atoms: C_20  and  O_7 
REMARK    8  A    between atoms: C_27  and  O_8 
REMARK    9  A    between atoms: C_31  and  O_9 
REMARK   10  A    between atoms: C_41  and  O_12 
REMARK   11  A    between atoms: C_17  and  N_15 
REMARK   12  A    between atoms: C_28  and  C_37 
REMARK   13  A    between atoms: C_32  and  C_40 
REMARK   14  A    between atoms: C_37  and  C_43 
REMARK   15  A    between atoms: C_40  and  C_44 
ROOT
HETATM    1  O   UNK N   1      32.881  15.930   4.894  0.00  0.00    -0.351 OA
HETATM    2  O   UNK N   1      31.473  14.487   6.685  0.00  0.00    -0.388 OA
HETATM    3  C   UNK N   1      30.665  16.987   5.465  0.00  0.00     0.189 C 
HETATM    4  C   UNK N   1      31.068  16.837   6.945  0.00  0.00     0.286 C 
HETATM    5  C   UNK N   1      32.030  15.698   7.125  0.00  0.00     0.209 C 
HETATM    6  C   UNK N   1      33.198  16.055   6.266  0.00  0.00     0.291 C 
HETATM    7  C   UNK N   1      31.974  16.993   4.602  0.00  0.00     0.152 C 
HETATM    8  C   UNK N   1      31.661  17.041   3.117  0.00  0.00     0.042 C 
HETATM    9  H   UNK N   1      31.123  13.655   6.329  0.00  0.00     0.210 HD
ENDROOT
BRANCH   4  10
HETATM   10  N   UNK N   1      29.986  16.904   7.941  0.00  0.00     0.089 N 
HETATM   11  C   UNK N   1      29.574  18.294   8.023  0.00  0.00     0.310 C 
HETATM   12  C   UNK N   1      30.408  16.524   9.289  0.00  0.00     0.310 C 
ENDBRANCH   4  10
BRANCH   6  13
HETATM   13  O   UNK N   1      34.444  15.550   6.707  0.00  0.00    -0.350 OA
BRANCH  13  14
HETATM   14  C   UNK N   1      34.334  14.317   7.389  0.00  0.00     0.160 C 
HETATM   15  C   UNK N   1      35.097  13.261   6.538  0.00  0.00     0.179 C 
HETATM   16  C   UNK N   1      34.752  13.242   5.031  0.00  0.00     0.159 C 
HETATM   17  C   UNK N   1      35.338  12.035   4.283  0.00  0.00     0.145 C 
HETATM   18  C   UNK N   1      36.839  11.926   4.297  0.00  0.00     0.261 C 
HETATM   19  O   UNK N   1      37.410  10.794   4.785  0.00  0.00    -0.316 OA
HETATM   20  O   UNK N   1      37.526  12.827   3.835  0.00  0.00    -0.265 OA
HETATM   21  C   UNK N   1      38.773  10.562   4.866  0.00  0.00     0.131 C 
HETATM   22  C   UNK N   1      39.453  11.442   5.920  0.00  0.00     0.059 C 
HETATM   23  C   UNK N   1      39.009   9.101   5.195  0.00  0.00     0.040 C 
HETATM   24  C   UNK N   1      38.675  11.456   7.195  0.00  0.00    -0.024 C 
HETATM   25  C   UNK N   1      38.937  12.355   8.136  0.00  0.00    -0.004 C 
HETATM   26  C   UNK N   1      37.998  12.481   9.247  0.00  0.00    -0.002 C 
HETATM   27  C   UNK N   1      38.024  13.555  10.030  0.00  0.00     0.005 C 
HETATM   28  C   UNK N   1      36.944  13.835  11.042  0.00  0.00     0.144 C 
HETATM   29  C   UNK N   1      35.673  12.965  10.918  0.00  0.00     0.014 C 
HETATM   30  C   UNK N   1      35.006  12.999   9.517  0.00  0.00     0.014 C 
HETATM   31  C   UNK N   1      34.658  13.343  11.988  0.00  0.00     0.012 C 
HETATM   32  C   UNK N   1      34.974  14.375   8.829  0.00  0.00     0.024 C 
BRANCH  15  33
HETATM   33  O   UNK N   1      36.492  13.295   6.759  0.00  0.00    -0.386 OA
HETATM   34  C   UNK N   1      37.025  14.523   6.326  0.00  0.00     0.202 C 
ENDBRANCH  15  33
BRANCH  16  35
HETATM   35  O   UNK N   1      33.368  13.233   4.858  0.00  0.00    -0.392 OA
HETATM   36  H   UNK N   1      32.821  13.748   4.244  0.00  0.00     0.210 HD
ENDBRANCH  16  35
BRANCH  28  37
HETATM   37  O   UNK N   1      37.479  13.765  12.328  0.00  0.00    -0.391 OA
HETATM   38  H   UNK N   1      37.407  14.519  12.935  0.00  0.00     0.210 HD
ENDBRANCH  28  37
BRANCH  32  39
HETATM   39  C   UNK N   1      34.355  15.378   9.791  0.00  0.00     0.076 C 
BRANCH  39  40
HETATM   40  C   UNK N   1      34.971  16.726   9.655  0.00  0.00     0.231 C 
HETATM   41  O   UNK N   1      35.711  17.143  10.531  0.00  0.00    -0.307 OA
ENDBRANCH  39  40
ENDBRANCH  32  39
ENDBRANCH  13  14
ENDBRANCH   6  13
BRANCH   3  42
HETATM   42  O   UNK N   1      29.744  16.002   5.064  0.00  0.00    -0.351 OA
BRANCH  42  43
HETATM   43  C   UNK N   1      28.566  16.731   4.861  0.00  0.00     0.264 C 
HETATM   44  O   UNK N   1      28.801  18.083   4.587  0.00  0.00    -0.354 OA
HETATM   45  C   UNK N   1      27.613  18.727   4.981  0.00  0.00     0.153 C 
HETATM   46  C   UNK N   1      26.465  18.353   4.016  0.00  0.00     0.194 C 
HETATM   47  C   UNK N   1      27.839  20.225   5.014  0.00  0.00     0.042 C 
HETATM   48  C   UNK N   1      26.263  16.823   3.982  0.00  0.00     0.087 C 
HETATM   49  C   UNK N   1      27.627  16.133   3.814  0.00  0.00     0.101 C 
HETATM   50  C   UNK N   1      25.588  16.352   5.266  0.00  0.00     0.049 C 
BRANCH  46  51
HETATM   51  O   UNK N   1      25.300  18.977   4.411  0.00  0.00    -0.310 OA
BRANCH  51  52
HETATM   52  C   UNK N   1      24.487  19.614   3.542  0.00  0.00     0.259 C 
HETATM   53  O   UNK N   1      24.945  20.330   2.666  0.00  0.00    -0.265 OA
BRANCH  52  54
HETATM   54  C   UNK N   1      23.004  19.433   3.673  0.00  0.00     0.115 C 
BRANCH  54  55
HETATM   55  C   UNK N   1      22.620  18.103   4.324  0.00  0.00    -0.013 C 
HETATM   56  C   UNK N   1      21.828  17.225   3.373  0.00  0.00     0.010 C 
HETATM   57  C   UNK N   1      21.855  18.304   5.623  0.00  0.00     0.010 C 
ENDBRANCH  54  55
ENDBRANCH  52  54
ENDBRANCH  51  52
ENDBRANCH  46  51
BRANCH  48  58
HETATM   58  O   UNK N   1      25.438  16.482   2.911  0.00  0.00    -0.387 OA
HETATM   59  H   UNK N   1      24.497  16.280   2.796  0.00  0.00     0.210 HD
ENDBRANCH  48  58
ENDBRANCH  42  43
ENDBRANCH   3  42
TORSDOF 15
ENDMDL
MODEL 7
REMARK VINA RESULT:      -6.6      3.949     11.665
REMARK  15 active torsions:
REMARK  status: ('A' for Active; 'I' for Inactive)
REMARK    1  A    between atoms: C_16  and  O_1 
REMARK    2  A    between atoms: C_22  and  O_1 
REMARK    3  A    between atoms: C_19  and  O_3 
REMARK    4  A    between atoms: C_26  and  O_3 
REMARK    5  A    between atoms: C_23  and  O_5 
REMARK    6  A    between atoms: O_5  and  C_32 
REMARK    7  A    between atoms: C_20  and  O_7 
REMARK    8  A    between atoms: C_27  and  O_8 
REMARK    9  A    between atoms: C_31  and  O_9 
REMARK   10  A    between atoms: C_41  and  O_12 
REMARK   11  A    between atoms: C_17  and  N_15 
REMARK   12  A    between atoms: C_28  and  C_37 
REMARK   13  A    between atoms: C_32  and  C_40 
REMARK   14  A    between atoms: C_37  and  C_43 
REMARK   15  A    between atoms: C_40  and  C_44 
ROOT
HETATM    1  O   UNK N   1      32.633  16.179   7.979  0.00  0.00    -0.351 OA
HETATM    2  O   UNK N   1      33.410  17.042   5.545  0.00  0.00    -0.388 OA
HETATM    3  C   UNK N   1      30.749  16.185   6.304  0.00  0.00     0.189 C 
HETATM    4  C   UNK N   1      31.683  15.386   5.374  0.00  0.00     0.286 C 
HETATM    5  C   UNK N   1      33.124  15.675   5.685  0.00  0.00     0.209 C 
HETATM    6  C   UNK N   1      33.287  15.272   7.114  0.00  0.00     0.291 C 
HETATM    7  C   UNK N   1      31.234  15.974   7.779  0.00  0.00     0.152 C 
HETATM    8  C   UNK N   1      30.424  16.808   8.757  0.00  0.00     0.042 C 
HETATM    9  H   UNK N   1      33.607  17.991   5.510  0.00  0.00     0.210 HD
ENDROOT
BRANCH   4  10
HETATM   10  N   UNK N   1      31.345  15.371   3.942  0.00  0.00     0.089 N 
HETATM   11  C   UNK N   1      30.500  14.211   3.720  0.00  0.00     0.310 C 
HETATM   12  C   UNK N   1      32.507  15.201   3.068  0.00  0.00     0.310 C 
ENDBRANCH   4  10
BRANCH   6  13
HETATM   13  O   UNK N   1      34.584  14.834   7.470  0.00  0.00    -0.350 OA
BRANCH  13  14
HETATM   14  C   UNK N   1      34.596  13.551   8.062  0.00  0.00     0.160 C 
HETATM   15  C   UNK N   1      35.530  12.662   7.192  0.00  0.00     0.179 C 
HETATM   16  C   UNK N   1      35.269  12.710   5.668  0.00  0.00     0.159 C 
HETATM   17  C   UNK N   1      36.041  11.640   4.880  0.00  0.00     0.145 C 
HETATM   18  C   UNK N   1      37.542  11.716   4.978  0.00  0.00     0.261 C 
HETATM   19  O   UNK N   1      38.225  10.630   5.425  0.00  0.00    -0.316 OA
HETATM   20  O   UNK N   1      38.132  12.726   4.618  0.00  0.00    -0.265 OA
HETATM   21  C   UNK N   1      39.601  10.562   5.573  0.00  0.00     0.131 C 
HETATM   22  C   UNK N   1      40.108  11.440   6.722  0.00  0.00     0.059 C 
HETATM   23  C   UNK N   1      40.002   9.121   5.820  0.00  0.00     0.040 C 
HETATM   24  C   UNK N   1      39.269  11.267   7.945  0.00  0.00    -0.024 C 
HETATM   25  C   UNK N   1      39.366  12.120   8.958  0.00  0.00    -0.004 C 
HETATM   26  C   UNK N   1      38.361  12.049  10.015  0.00  0.00    -0.002 C 
HETATM   27  C   UNK N   1      38.210  13.059  10.867  0.00  0.00     0.005 C 
HETATM   28  C   UNK N   1      37.052  13.130  11.827  0.00  0.00     0.144 C 
HETATM   29  C   UNK N   1      35.910  12.123  11.569  0.00  0.00     0.014 C 
HETATM   30  C   UNK N   1      35.318  12.175  10.136  0.00  0.00     0.014 C 
HETATM   31  C   UNK N   1      34.801  12.294  12.599  0.00  0.00     0.012 C 
HETATM   32  C   UNK N   1      35.147  13.584   9.539  0.00  0.00     0.024 C 
BRANCH  15  33
HETATM   33  O   UNK N   1      36.897  12.850   7.498  0.00  0.00    -0.386 OA
HETATM   34  C   UNK N   1      37.278  14.177   7.228  0.00  0.00     0.202 C 
ENDBRANCH  15  33
BRANCH  16  35
HETATM   35  O   UNK N   1      33.908  12.543   5.411  0.00  0.00    -0.392 OA
HETATM   36  H   UNK N   1      33.464  12.287   4.588  0.00  0.00     0.210 HD
ENDBRANCH  16  35
BRANCH  28  37
HETATM   37  O   UNK N   1      37.524  13.034  13.136  0.00  0.00    -0.391 OA
HETATM   38  H   UNK N   1      36.906  12.971  13.881  0.00  0.00     0.210 HD
ENDBRANCH  28  37
BRANCH  32  39
HETATM   39  C   UNK N   1      34.357  14.430  10.525  0.00  0.00     0.076 C 
BRANCH  39  40
HETATM   40  C   UNK N   1      34.947  15.788  10.681  0.00  0.00     0.231 C 
HETATM   41  O   UNK N   1      36.044  16.029  10.205  0.00  0.00    -0.307 OA
ENDBRANCH  39  40
ENDBRANCH  32  39
ENDBRANCH  13  14
ENDBRANCH   6  13
BRANCH   3  42
HETATM   42  O   UNK N   1      30.670  17.541   5.938  0.00  0.00    -0.351 OA
BRANCH  42  43
HETATM   43  C   UNK N   1      29.344  17.679   5.512  0.00  0.00     0.264 C 
HETATM   44  O   UNK N   1      28.650  16.464   5.485  0.00  0.00    -0.354 OA
HETATM   45  C   UNK N   1      27.626  16.672   4.541  0.00  0.00     0.153 C 
HETATM   46  C   UNK N   1      26.588  17.671   5.102  0.00  0.00     0.194 C 
HETATM   47  C   UNK N   1      26.981  15.345   4.197  0.00  0.00     0.042 C 
HETATM   48  C   UNK N   1      27.267  19.009   5.465  0.00  0.00     0.087 C 
HETATM   49  C   UNK N   1      28.541  18.730   6.279  0.00  0.00     0.101 C 
HETATM   50  C   UNK N   1      27.610  19.787   4.198  0.00  0.00     0.049 C 
BRANCH  46  51
HETATM   51  O   UNK N   1      25.592  17.882   4.172  0.00  0.00    -0.310 OA
BRANCH  51  52
HETATM   52  C   UNK N   1      24.280  17.795   4.481  0.00  0.00     0.259 C 
HETATM   53  O   UNK N   1      23.736  18.657   5.152  0.00  0.00    -0.265 OA
BRANCH  52  54
HETATM   54  C   UNK N   1      23.498  16.614   3.989  0.00  0.00     0.115 C 
BRANCH  54  55
HETATM   55  C   UNK N   1      22.001  16.725   4.278  0.00  0.00    -0.013 C 
HETATM   56  C   UNK N   1      21.419  15.398   4.729  0.00  0.00     0.010 C 
HETATM   57  C   UNK N   1      21.228  17.266   3.085  0.00  0.00     0.010 C 
ENDBRANCH  54  55
ENDBRANCH  52  54
ENDBRANCH  51  52
ENDBRANCH  46  51
BRANCH  48  58
HETATM   58  O   UNK N   1      26.395  19.787   6.226  0.00  0.00    -0.387 OA
HETATM   59  H   UNK N   1      25.507  19.672   6.597  0.00  0.00     0.210 HD
ENDBRANCH  48  58
ENDBRANCH  42  43
ENDBRANCH   3  42
TORSDOF 15
ENDMDL
MODEL 8
REMARK VINA RESULT:      -6.5      2.477     11.825
REMARK  15 active torsions:
REMARK  status: ('A' for Active; 'I' for Inactive)
REMARK    1  A    between atoms: C_16  and  O_1 
REMARK    2  A    between atoms: C_22  and  O_1 
REMARK    3  A    between atoms: C_19  and  O_3 
REMARK    4  A    between atoms: C_26  and  O_3 
REMARK    5  A    between atoms: C_23  and  O_5 
REMARK    6  A    between atoms: O_5  and  C_32 
REMARK    7  A    between atoms: C_20  and  O_7 
REMARK    8  A    between atoms: C_27  and  O_8 
REMARK    9  A    between atoms: C_31  and  O_9 
REMARK   10  A    between atoms: C_41  and  O_12 
REMARK   11  A    between atoms: C_17  and  N_15 
REMARK   12  A    between atoms: C_28  and  C_37 
REMARK   13  A    between atoms: C_32  and  C_40 
REMARK   14  A    between atoms: C_37  and  C_43 
REMARK   15  A    between atoms: C_40  and  C_44 
ROOT
HETATM    1  O   UNK N   1      36.389  11.969  13.189  0.00  0.00    -0.351 OA
HETATM    2  O   UNK N   1      37.064  10.467  11.053  0.00  0.00    -0.388 OA
HETATM    3  C   UNK N   1      35.171  12.659  11.094  0.00  0.00     0.189 C 
HETATM    4  C   UNK N   1      34.775  11.177  10.934  0.00  0.00     0.286 C 
HETATM    5  C   UNK N   1      35.782  10.281  11.596  0.00  0.00     0.209 C 
HETATM    6  C   UNK N   1      35.777  10.705  13.028  0.00  0.00     0.291 C 
HETATM    7  C   UNK N   1      35.495  12.916  12.605  0.00  0.00     0.152 C 
HETATM    8  C   UNK N   1      35.988  14.334  12.835  0.00  0.00     0.042 C 
HETATM    9  H   UNK N   1      37.964  10.628  10.729  0.00  0.00     0.210 HD
ENDROOT
BRANCH   4  10
HETATM   10  N   UNK N   1      34.338  10.744   9.597  0.00  0.00     0.089 N 
HETATM   11  C   UNK N   1      32.957  11.170   9.447  0.00  0.00     0.310 C 
HETATM   12  C   UNK N   1      34.337   9.291   9.425  0.00  0.00     0.310 C 
ENDBRANCH   4  10
BRANCH   6  13
HETATM   13  O   UNK N   1      36.102   9.687  13.956  0.00  0.00    -0.350 OA
BRANCH  13  14
HETATM   14  C   UNK N   1      37.305   9.936  14.655  0.00  0.00     0.160 C 
HETATM   15  C   UNK N   1      36.938  10.033  16.164  0.00  0.00     0.179 C 
HETATM   16  C   UNK N   1      35.746  10.957  16.503  0.00  0.00     0.159 C 
HETATM   17  C   UNK N   1      35.578  11.213  18.009  0.00  0.00     0.145 C 
HETATM   18  C   UNK N   1      35.322   9.993  18.852  0.00  0.00     0.261 C 
HETATM   19  O   UNK N   1      36.166   9.718  19.881  0.00  0.00    -0.316 OA
HETATM   20  O   UNK N   1      34.343   9.291  18.637  0.00  0.00    -0.265 OA
HETATM   21  C   UNK N   1      36.056   8.629  20.730  0.00  0.00     0.131 C 
HETATM   22  C   UNK N   1      36.373   7.306  20.026  0.00  0.00     0.059 C 
HETATM   23  C   UNK N   1      36.998   8.819  21.903  0.00  0.00     0.040 C 
HETATM   24  C   UNK N   1      37.610   7.418  19.197  0.00  0.00    -0.024 C 
HETATM   25  C   UNK N   1      37.911   6.483  18.304  0.00  0.00    -0.004 C 
HETATM   26  C   UNK N   1      38.990   6.758  17.359  0.00  0.00    -0.002 C 
HETATM   27  C   UNK N   1      39.122   6.024  16.257  0.00  0.00     0.005 C 
HETATM   28  C   UNK N   1      40.072   6.403  15.152  0.00  0.00     0.144 C 
HETATM   29  C   UNK N   1      40.664   7.827  15.240  0.00  0.00     0.014 C 
HETATM   30  C   UNK N   1      39.605   8.957  15.339  0.00  0.00     0.014 C 
HETATM   31  C   UNK N   1      41.601   8.091  14.070  0.00  0.00     0.012 C 
HETATM   32  C   UNK N   1      38.357   8.779  14.456  0.00  0.00     0.024 C 
BRANCH  15  33
HETATM   33  O   UNK N   1      36.809   8.763  16.772  0.00  0.00    -0.386 OA
HETATM   34  C   UNK N   1      35.795   8.021  16.141  0.00  0.00     0.202 C 
ENDBRANCH  15  33
BRANCH  16  35
HETATM   35  O   UNK N   1      35.900  12.189  15.866  0.00  0.00    -0.392 OA
HETATM   36  H   UNK N   1      35.507  13.048  16.084  0.00  0.00     0.210 HD
ENDBRANCH  16  35
BRANCH  28  37
HETATM   37  O   UNK N   1      41.079   5.443  15.053  0.00  0.00    -0.391 OA
HETATM   38  H   UNK N   1      41.791   5.539  14.400  0.00  0.00     0.210 HD
ENDBRANCH  28  37
BRANCH  32  39
HETATM   39  C   UNK N   1      38.813   8.534  13.025  0.00  0.00     0.076 C 
BRANCH  39  40
HETATM   40  C   UNK N   1      38.066   7.413  12.393  0.00  0.00     0.231 C 
HETATM   41  O   UNK N   1      37.317   6.728  13.070  0.00  0.00    -0.307 OA
ENDBRANCH  39  40
ENDBRANCH  32  39
ENDBRANCH  13  14
ENDBRANCH   6  13
BRANCH   3  42
HETATM   42  O   UNK N   1      36.223  13.022  10.233  0.00  0.00    -0.351 OA
BRANCH  42  43
HETATM   43  C   UNK N   1      35.658  14.035   9.450  0.00  0.00     0.264 C 
HETATM   44  O   UNK N   1      35.601  13.707   8.091  0.00  0.00    -0.354 OA
HETATM   45  C   UNK N   1      35.578  14.952   7.435  0.00  0.00     0.153 C 
HETATM   46  C   UNK N   1      34.229  15.661   7.695  0.00  0.00     0.194 C 
HETATM   47  C   UNK N   1      35.813  14.745   5.952  0.00  0.00     0.042 C 
HETATM   48  C   UNK N   1      33.999  15.845   9.211  0.00  0.00     0.087 C 
HETATM   49  C   UNK N   1      34.292  14.521   9.936  0.00  0.00     0.101 C 
HETATM   50  C   UNK N   1      34.899  16.953   9.749  0.00  0.00     0.049 C 
BRANCH  46  51
HETATM   51  O   UNK N   1      34.214  16.885   7.061  0.00  0.00    -0.310 OA
BRANCH  51  52
HETATM   52  C   UNK N   1      33.138  17.336   6.380  0.00  0.00     0.259 C 
HETATM   53  O   UNK N   1      32.105  17.624   6.962  0.00  0.00    -0.265 OA
BRANCH  52  54
HETATM   54  C   UNK N   1      33.232  17.475   4.890  0.00  0.00     0.115 C 
BRANCH  54  55
HETATM   55  C   UNK N   1      32.206  16.619   4.144  0.00  0.00    -0.013 C 
HETATM   56  C   UNK N   1      32.547  15.142   4.226  0.00  0.00     0.010 C 
HETATM   57  C   UNK N   1      32.052  17.049   2.694  0.00  0.00     0.010 C 
ENDBRANCH  54  55
ENDBRANCH  52  54
ENDBRANCH  51  52
ENDBRANCH  46  51
BRANCH  48  58
HETATM   58  O   UNK N   1      32.674  16.214   9.443  0.00  0.00    -0.387 OA
HETATM   59  H   UNK N   1      32.183  17.049   9.483  0.00  0.00     0.210 HD
ENDBRANCH  48  58
ENDBRANCH  42  43
ENDBRANCH   3  42
TORSDOF 15
ENDMDL
MODEL 9
REMARK VINA RESULT:      -6.5      1.665      4.452
REMARK  15 active torsions:
REMARK  status: ('A' for Active; 'I' for Inactive)
REMARK    1  A    between atoms: C_16  and  O_1 
REMARK    2  A    between atoms: C_22  and  O_1 
REMARK    3  A    between atoms: C_19  and  O_3 
REMARK    4  A    between atoms: C_26  and  O_3 
REMARK    5  A    between atoms: C_23  and  O_5 
REMARK    6  A    between atoms: O_5  and  C_32 
REMARK    7  A    between atoms: C_20  and  O_7 
REMARK    8  A    between atoms: C_27  and  O_8 
REMARK    9  A    between atoms: C_31  and  O_9 
REMARK   10  A    between atoms: C_41  and  O_12 
REMARK   11  A    between atoms: C_17  and  N_15 
REMARK   12  A    between atoms: C_28  and  C_37 
REMARK   13  A    between atoms: C_32  and  C_40 
REMARK   14  A    between atoms: C_37  and  C_43 
REMARK   15  A    between atoms: C_40  and  C_44 
ROOT
HETATM    1  O   UNK N   1      36.753  13.208   9.594  0.00  0.00    -0.351 OA
HETATM    2  O   UNK N   1      34.464  13.160  11.018  0.00  0.00    -0.388 OA
HETATM    3  C   UNK N   1      36.903  11.719  11.622  0.00  0.00     0.189 C 
HETATM    4  C   UNK N   1      35.604  11.052  11.127  0.00  0.00     0.286 C 
HETATM    5  C   UNK N   1      34.798  12.006  10.292  0.00  0.00     0.209 C 
HETATM    6  C   UNK N   1      35.701  12.369   9.160  0.00  0.00     0.291 C 
HETATM    7  C   UNK N   1      37.607  12.388  10.391  0.00  0.00     0.152 C 
HETATM    8  C   UNK N   1      38.850  13.152  10.810  0.00  0.00     0.042 C 
HETATM    9  H   UNK N   1      34.277  13.988  11.488  0.00  0.00     0.210 HD
ENDROOT
BRANCH   4  10
HETATM   10  N   UNK N   1      34.832  10.281  12.114  0.00  0.00     0.089 N 
HETATM   11  C   UNK N   1      35.441   8.965  12.190  0.00  0.00     0.310 C 
HETATM   12  C   UNK N   1      33.438  10.062  11.724  0.00  0.00     0.310 C 
ENDBRANCH   4  10
BRANCH   6  13
HETATM   13  O   UNK N   1      35.045  12.700   7.951  0.00  0.00    -0.350 OA
BRANCH  13  14
HETATM   14  C   UNK N   1      35.436  13.955   7.431  0.00  0.00     0.160 C 
HETATM   15  C   UNK N   1      35.931  13.707   5.978  0.00  0.00     0.179 C 
HETATM   16  C   UNK N   1      36.943  12.550   5.805  0.00  0.00     0.159 C 
HETATM   17  C   UNK N   1      37.586  12.502   4.411  0.00  0.00     0.145 C 
HETATM   18  C   UNK N   1      36.635  12.305   3.261  0.00  0.00     0.261 C 
HETATM   19  O   UNK N   1      36.616  13.225   2.261  0.00  0.00    -0.316 OA
HETATM   20  O   UNK N   1      35.926  11.309   3.213  0.00  0.00    -0.265 OA
HETATM   21  C   UNK N   1      35.788  13.175   1.151  0.00  0.00     0.131 C 
HETATM   22  C   UNK N   1      34.320  13.429   1.506  0.00  0.00     0.059 C 
HETATM   23  C   UNK N   1      36.252  14.207   0.141  0.00  0.00     0.040 C 
HETATM   24  C   UNK N   1      34.180  14.598   2.424  0.00  0.00    -0.024 C 
HETATM   25  C   UNK N   1      33.038  14.824   3.062  0.00  0.00    -0.004 C 
HETATM   26  C   UNK N   1      33.029  15.827   4.122  0.00  0.00    -0.002 C 
HETATM   27  C   UNK N   1      32.030  15.869   5.000  0.00  0.00     0.005 C 
HETATM   28  C   UNK N   1      32.084  16.732   6.232  0.00  0.00     0.144 C 
HETATM   29  C   UNK N   1      33.466  17.337   6.564  0.00  0.00     0.014 C 
HETATM   30  C   UNK N   1      34.610  16.296   6.686  0.00  0.00     0.014 C 
HETATM   31  C   UNK N   1      33.392  18.183   7.828  0.00  0.00     0.012 C 
HETATM   32  C   UNK N   1      34.240  14.982   7.398  0.00  0.00     0.024 C 
BRANCH  15  33
HETATM   33  O   UNK N   1      34.868  13.619   5.051  0.00  0.00    -0.386 OA
HETATM   34  C   UNK N   1      34.007  12.562   5.396  0.00  0.00     0.202 C 
ENDBRANCH  15  33
BRANCH  16  35
HETATM   35  O   UNK N   1      37.962  12.662   6.752  0.00  0.00    -0.392 OA
HETATM   36  H   UNK N   1      38.251  12.023   7.423  0.00  0.00     0.210 HD
ENDBRANCH  16  35
BRANCH  28  37
HETATM   37  O   UNK N   1      31.105  17.724   6.152  0.00  0.00    -0.391 OA
HETATM   38  H   UNK N   1      30.878  18.259   6.928  0.00  0.00     0.210 HD
ENDBRANCH  28  37
BRANCH  32  39
HETATM   39  C   UNK N   1      33.620  15.324   8.744  0.00  0.00     0.076 C 
BRANCH  39  40
HETATM   40  C   UNK N   1      32.320  14.628   8.945  0.00  0.00     0.231 C 
HETATM   41  O   UNK N   1      31.938  13.812   8.122  0.00  0.00    -0.307 OA
ENDBRANCH  39  40
ENDBRANCH  32  39
ENDBRANCH  13  14
ENDBRANCH   6  13
BRANCH   3  42
HETATM   42  O   UNK N   1      36.668  12.617  12.679  0.00  0.00    -0.351 OA
BRANCH  42  43
HETATM   43  C   UNK N   1      36.579  11.779  13.796  0.00  0.00     0.264 C 
HETATM   44  O   UNK N   1      37.810  11.221  14.159  0.00  0.00    -0.354 OA
HETATM   45  C   UNK N   1      37.466  10.042  14.848  0.00  0.00     0.153 C 
HETATM   46  C   UNK N   1      36.813  10.397  16.204  0.00  0.00     0.194 C 
HETATM   47  C   UNK N   1      38.704   9.191  15.040  0.00  0.00     0.042 C 
HETATM   48  C   UNK N   1      35.565  11.280  15.988  0.00  0.00     0.087 C 
HETATM   49  C   UNK N   1      35.907  12.417  15.012  0.00  0.00     0.101 C 
HETATM   50  C   UNK N   1      34.414  10.442  15.440  0.00  0.00     0.049 C 
BRANCH  46  51
HETATM   51  O   UNK N   1      36.466   9.241  16.872  0.00  0.00    -0.310 OA
BRANCH  51  52
HETATM   52  C   UNK N   1      36.441   9.161  18.220  0.00  0.00     0.259 C 
HETATM   53  O   UNK N   1      36.888  10.064  18.909  0.00  0.00    -0.265 OA
BRANCH  52  54
HETATM   54  C   UNK N   1      35.858   7.938  18.860  0.00  0.00     0.115 C 
BRANCH  54  55
HETATM   55  C   UNK N   1      34.347   7.817  18.653  0.00  0.00    -0.013 C 
HETATM   56  C   UNK N   1      33.596   8.937  19.348  0.00  0.00     0.010 C 
HETATM   57  C   UNK N   1      33.816   6.464  19.100  0.00  0.00     0.010 C 
ENDBRANCH  54  55
ENDBRANCH  52  54
ENDBRANCH  51  52
ENDBRANCH  46  51
BRANCH  48  58
HETATM   58  O   UNK N   1      35.160  11.824  17.206  0.00  0.00    -0.387 OA
HETATM   59  H   UNK N   1      34.330  12.168  17.572  0.00  0.00     0.210 HD
ENDBRANCH  48  58
ENDBRANCH  42  43
ENDBRANCH   3  42
TORSDOF 15
ENDMDL
