REMARK  5 active torsions:
REMARK  status: ('A' for Active; 'I' for Inactive)
REMARK    1  A    between atoms: C_1  and  C_2 
REMARK    2  A    between atoms: C_2  and  C_3 
REMARK    3  A    between atoms: C_8  and  O_9 
REMARK    4  A    between atoms: O_9  and  C_10 
REMARK    5  A    between atoms: C_10  and  C_11 
ROOT
HETATM    1  C   UNK N   1       1.297   1.235  -0.776  0.00  0.00    -0.056 A 
HETATM    2  C   UNK N   1       0.516   1.654   0.304  0.00  0.00     0.010 A 
HETATM    3  C   UNK N   1       0.875   0.164  -1.572  0.00  0.00     0.010 A 
HETATM    4  C   UNK N   1      -0.663   0.983   0.608  0.00  0.00     0.037 A 
HETATM    5  C   UNK N   1      -0.313  -0.511  -1.267  0.00  0.00     0.037 A 
HETATM    6  C   UNK N   1      -1.076  -0.121  -0.160  0.00  0.00     0.068 A 
ENDROOT
BRANCH   1   7
HETATM    7  C   UNK N   1       2.643   1.840  -0.991  0.00  0.00     0.063 C 
BRANCH   7   8
HETATM    8  C   UNK N   1       3.526   1.572   0.235  0.00  0.00     0.153 A 
HETATM    9  C   UNK N   1       3.813   0.103   0.405  0.00  0.00     0.239 A 
HETATM   10  N   UNK N   1       5.096  -0.265   0.337  0.00  0.00    -0.287 N 
HETATM   11  O   UNK N   1       2.934  -0.723   0.607  0.00  0.00    -0.272 OA
HETATM   12  C   UNK N   1       5.924   0.764   0.134  0.00  0.00     0.287 A 
HETATM   13  H   UNK N   1       5.400  -1.197   0.426  0.00  0.00     0.172 HD
HETATM   14  S   UNK N   1       5.164   2.380   0.020  0.00  0.00    -0.054 SA
HETATM   15  O   UNK N   1       7.129   0.600   0.048  0.00  0.00    -0.260 OA
ENDBRANCH   7   8
ENDBRANCH   1   7
BRANCH   6  16
HETATM   16  O   UNK N   1      -2.180  -0.830   0.180  0.00  0.00    -0.350 OA
BRANCH  16  17
HETATM   17  C   UNK N   1      -2.894  -0.525   1.322  0.00  0.00     0.184 C 
BRANCH  17  18
HETATM   18  C   UNK N   1      -4.369  -0.266   1.050  0.00  0.00    -0.022 C 
HETATM   19  C   UNK N   1      -4.565   0.434  -0.310  0.00  0.00     0.011 C 
HETATM   20  C   UNK N   1      -5.930   0.111  -0.912  0.00  0.00     0.001 C 
HETATM   21  C   UNK N   1      -6.071  -1.399  -1.172  0.00  0.00     0.000 C 
HETATM   22  C   UNK N   1      -5.275  -2.274  -0.192  0.00  0.00     0.001 C 
HETATM   23  C   UNK N   1      -5.150  -1.584   1.160  0.00  0.00     0.011 C 
HETATM   24  C   UNK N   1      -4.866   0.651   2.148  0.00  0.00     0.017 C 
ENDBRANCH  17  18
ENDBRANCH  16  17
ENDBRANCH   6  16
TORSDOF 5
