MODEL 1
REMARK VINA RESULT:      -6.5      0.000      0.000
REMARK  11 active torsions:
REMARK  status: ('A' for Active; 'I' for Inactive)
REMARK    1  A    between atoms: C_4  and  N_1 
REMARK    2  A    between atoms: C_4  and  C_2 
REMARK       I    between atoms: N_5  and  C_2 
REMARK    3  A    between atoms: C_8  and  N_5 
REMARK    4  A    between atoms: C_19  and  N_10 
REMARK    5  A    between atoms: C_19  and  C_17 
REMARK    6  A    between atoms: C_17  and  O_25 
REMARK    7  A    between atoms: C_20  and  C_19 
REMARK    8  A    between atoms: C_20  and  C_21 
REMARK    9  A    between atoms: C_21  and  C_22 
REMARK   10  A    between atoms: C_22  and  C_23 
REMARK   11  A    between atoms: C_23  and  N_24 
ROOT
HETATM    1  C   UNK N   1      35.047  15.907  10.284  0.00  0.00     0.241 A 
HETATM    2  C   UNK N   1      36.160  13.366  10.040  0.00  0.00     0.093 A 
HETATM    3  C   UNK N   1      35.864  14.718  10.747  0.00  0.00     0.182 A 
HETATM    4  O   UNK N   1      34.959  16.874  11.030  0.00  0.00    -0.271 OA
HETATM    5  N   UNK N   1      34.425  15.915   9.080  0.00  0.00    -0.345 N 
HETATM    6  N   UNK N   1      34.876  13.710   7.865  0.00  0.00    -0.354 N 
ATOM      7  HN  UNK N   1      34.510  14.646   8.042  1.00  0.00     0.166 HD
HETATM    8  C   UNK N   1      35.649  12.976   8.675  0.00  0.00     0.028 A 
HETATM    9  N   UNK N   1      35.311  11.766   6.869  0.00  0.00    -0.360 N 
HETATM   10  C   UNK N   1      34.682  12.953   6.769  0.00  0.00     0.180 A 
HETATM   11  C   UNK N   1      35.923  11.774   8.068  0.00  0.00     0.114 A 
HETATM   12  H   UNK N   1      34.530  15.112   8.522  0.00  0.00     0.163 HD
HETATM   13  H   UNK N   1      35.322  11.041   6.202  0.00  0.00     0.166 HD
ENDROOT
BRANCH   5  14
HETATM   14  C   UNK N   1      33.617  16.993   8.529  0.00  0.00     0.182 C 
BRANCH  14  15
HETATM   15  C   UNK N   1      34.377  18.082   7.803  0.00  0.00     0.163 C 
HETATM   16  O   UNK N   1      34.407  18.096   6.584  0.00  0.00    -0.648 OA
BRANCH  15  17
HETATM   17  O   UNK N   1      35.029  19.045   8.482  0.00  0.00    -0.775 OA
HETATM   18  H   UNK N   1      34.629  19.883   8.604  0.00  0.00     0.167 HD
ENDBRANCH  15  17
ENDBRANCH  14  15
BRANCH  14  19
HETATM   19  C   UNK N   1      32.093  16.951   8.716  0.00  0.00     0.036 C 
BRANCH  19  20
HETATM   20  C   UNK N   1      31.370  18.218   8.323  0.00  0.00     0.004 C 
BRANCH  20  21
HETATM   21  C   UNK N   1      30.196  18.426   9.247  0.00  0.00     0.019 C 
BRANCH  21  22
HETATM   22  C   UNK N   1      28.958  18.661   8.414  0.00  0.00     0.111 C 
BRANCH  22  23
HETATM   23  N   UNK N   1      27.786  18.292   9.184  0.00  0.00    -0.430 N 
HETATM   24  H   UNK N   1      27.787  17.433   9.735  0.00  0.00     0.149 HD
HETATM   25  H   UNK N   1      26.960  18.891   9.173  0.00  0.00     0.149 HD
ENDBRANCH  22  23
ENDBRANCH  21  22
ENDBRANCH  20  21
ENDBRANCH  19  20
ENDBRANCH  14  19
ENDBRANCH   5  14
BRANCH   3  26
HETATM   26  N   UNK N   1      36.440  14.929  12.070  0.00  0.00    -0.346 N 
HETATM   27  C   UNK N   1      36.001  14.447  13.261  0.00  0.00     0.235 C 
HETATM   28  O   UNK N   1      35.007  13.739  13.330  0.00  0.00    -0.272 OA
HETATM   29  H   UNK N   1      37.247  15.491  12.104  0.00  0.00     0.163 HD
BRANCH  27  30
HETATM   30  C   UNK N   1      36.768  14.804  14.501  0.00  0.00     0.214 C 
BRANCH  30  31
HETATM   31  N   UNK N   1      37.313  13.626  15.155  0.00  0.00    -0.422 N 
HETATM   32  H   UNK N   1      36.818  13.201  15.939  0.00  0.00     0.150 HD
HETATM   33  H   UNK N   1      38.191  13.223  14.829  0.00  0.00     0.150 HD
ENDBRANCH  30  31
ENDBRANCH  27  30
ENDBRANCH   3  26
TORSDOF 11
ENDMDL
MODEL 2
REMARK VINA RESULT:      -6.3      1.652      1.990
REMARK  11 active torsions:
REMARK  status: ('A' for Active; 'I' for Inactive)
REMARK    1  A    between atoms: C_4  and  N_1 
REMARK    2  A    between atoms: C_4  and  C_2 
REMARK       I    between atoms: N_5  and  C_2 
REMARK    3  A    between atoms: C_8  and  N_5 
REMARK    4  A    between atoms: C_19  and  N_10 
REMARK    5  A    between atoms: C_19  and  C_17 
REMARK    6  A    between atoms: C_17  and  O_25 
REMARK    7  A    between atoms: C_20  and  C_19 
REMARK    8  A    between atoms: C_20  and  C_21 
REMARK    9  A    between atoms: C_21  and  C_22 
REMARK   10  A    between atoms: C_22  and  C_23 
REMARK   11  A    between atoms: C_23  and  N_24 
ROOT
HETATM    1  C   UNK N   1      34.909  15.945  10.300  0.00  0.00     0.241 A 
HETATM    2  C   UNK N   1      35.619  13.255  10.158  0.00  0.00     0.093 A 
HETATM    3  C   UNK N   1      35.566  14.673  10.795  0.00  0.00     0.182 A 
HETATM    4  O   UNK N   1      35.006  16.952  10.989  0.00  0.00    -0.271 OA
HETATM    5  N   UNK N   1      34.228  15.982   9.129  0.00  0.00    -0.345 N 
HETATM    6  N   UNK N   1      34.279  13.673   8.031  0.00  0.00    -0.354 N 
ATOM      7  HN  UNK N   1      34.066  14.661   8.167  1.00  0.00     0.166 HD
HETATM    8  C   UNK N   1      34.980  12.875   8.846  0.00  0.00     0.028 A 
HETATM    9  N   UNK N   1      34.366  11.636   7.135  0.00  0.00    -0.360 N 
HETATM   10  C   UNK N   1      33.914  12.897   6.993  0.00  0.00     0.180 A 
HETATM   11  C   UNK N   1      35.039  11.615   8.300  0.00  0.00     0.114 A 
HETATM   12  H   UNK N   1      34.181  15.143   8.616  0.00  0.00     0.163 HD
HETATM   13  H   UNK N   1      34.232  10.883   6.513  0.00  0.00     0.166 HD
ENDROOT
BRANCH   5  14
HETATM   14  C   UNK N   1      33.557  17.139   8.552  0.00  0.00     0.182 C 
BRANCH  14  15
HETATM   15  C   UNK N   1      34.445  18.111   7.807  0.00  0.00     0.163 C 
HETATM   16  O   UNK N   1      34.503  18.074   6.590  0.00  0.00    -0.648 OA
BRANCH  15  17
HETATM   17  O   UNK N   1      35.180  19.026   8.467  0.00  0.00    -0.775 OA
HETATM   18  H   UNK N   1      35.705  19.638   7.990  0.00  0.00     0.167 HD
ENDBRANCH  15  17
ENDBRANCH  14  15
BRANCH  14  19
HETATM   19  C   UNK N   1      32.039  17.286   8.734  0.00  0.00     0.036 C 
BRANCH  19  20
HETATM   20  C   UNK N   1      31.240  17.252   7.454  0.00  0.00     0.004 C 
BRANCH  20  21
HETATM   21  C   UNK N   1      31.442  15.918   6.778  0.00  0.00     0.019 C 
BRANCH  21  22
HETATM   22  C   UNK N   1      31.768  16.155   5.322  0.00  0.00     0.111 C 
BRANCH  22  23
HETATM   23  N   UNK N   1      33.177  15.897   5.099  0.00  0.00    -0.430 N 
HETATM   24  H   UNK N   1      33.861  16.641   5.245  0.00  0.00     0.149 HD
HETATM   25  H   UNK N   1      33.485  14.974   4.795  0.00  0.00     0.149 HD
ENDBRANCH  22  23
ENDBRANCH  21  22
ENDBRANCH  20  21
ENDBRANCH  19  20
ENDBRANCH  14  19
ENDBRANCH   5  14
BRANCH   3  26
HETATM   26  N   UNK N   1      36.241  14.865  12.073  0.00  0.00    -0.346 N 
HETATM   27  C   UNK N   1      35.888  14.373  13.289  0.00  0.00     0.235 C 
HETATM   28  O   UNK N   1      34.895  13.673  13.424  0.00  0.00    -0.272 OA
HETATM   29  H   UNK N   1      37.054  15.419  12.052  0.00  0.00     0.163 HD
BRANCH  27  30
HETATM   30  C   UNK N   1      36.748  14.711  14.472  0.00  0.00     0.214 C 
BRANCH  30  31
HETATM   31  N   UNK N   1      37.354  13.524  15.052  0.00  0.00    -0.422 N 
HETATM   32  H   UNK N   1      38.228  13.159  14.674  0.00  0.00     0.150 HD
HETATM   33  H   UNK N   1      36.905  13.056  15.840  0.00  0.00     0.150 HD
ENDBRANCH  30  31
ENDBRANCH  27  30
ENDBRANCH   3  26
TORSDOF 11
ENDMDL
MODEL 3
REMARK VINA RESULT:      -6.2      8.050     12.339
REMARK  11 active torsions:
REMARK  status: ('A' for Active; 'I' for Inactive)
REMARK    1  A    between atoms: C_4  and  N_1 
REMARK    2  A    between atoms: C_4  and  C_2 
REMARK       I    between atoms: N_5  and  C_2 
REMARK    3  A    between atoms: C_8  and  N_5 
REMARK    4  A    between atoms: C_19  and  N_10 
REMARK    5  A    between atoms: C_19  and  C_17 
REMARK    6  A    between atoms: C_17  and  O_25 
REMARK    7  A    between atoms: C_20  and  C_19 
REMARK    8  A    between atoms: C_20  and  C_21 
REMARK    9  A    between atoms: C_21  and  C_22 
REMARK   10  A    between atoms: C_22  and  C_23 
REMARK   11  A    between atoms: C_23  and  N_24 
ROOT
HETATM    1  C   UNK N   1      24.747  19.226   4.573  0.00  0.00     0.241 A 
HETATM    2  C   UNK N   1      23.159  16.943   4.712  0.00  0.00     0.093 A 
HETATM    3  C   UNK N   1      23.530  18.382   4.256  0.00  0.00     0.182 A 
HETATM    4  O   UNK N   1      24.815  20.348   4.087  0.00  0.00    -0.271 OA
HETATM    5  N   UNK N   1      25.742  18.767   5.370  0.00  0.00    -0.345 N 
HETATM    6  N   UNK N   1      25.187  16.397   6.155  0.00  0.00    -0.354 N 
ATOM      7  HN  UNK N   1      25.701  17.271   6.047  1.00  0.00     0.166 HD
HETATM    8  C   UNK N   1      24.005  16.078   5.613  0.00  0.00     0.028 A 
HETATM    9  N   UNK N   1      24.637  14.336   6.798  0.00  0.00    -0.360 N 
HETATM   10  C   UNK N   1      25.555  15.320   6.875  0.00  0.00     0.180 A 
HETATM   11  C   UNK N   1      23.658  14.808   6.004  0.00  0.00     0.114 A 
HETATM   12  H   UNK N   1      25.634  17.858   5.733  0.00  0.00     0.163 HD
HETATM   13  H   UNK N   1      24.675  13.453   7.234  0.00  0.00     0.166 HD
ENDROOT
BRANCH   5  14
HETATM   14  C   UNK N   1      26.953  19.481   5.745  0.00  0.00     0.182 C 
BRANCH  14  15
HETATM   15  C   UNK N   1      26.752  20.728   6.578  0.00  0.00     0.163 C 
HETATM   16  O   UNK N   1      27.047  21.819   6.123  0.00  0.00    -0.648 OA
BRANCH  15  17
HETATM   17  O   UNK N   1      26.249  20.656   7.825  0.00  0.00    -0.775 OA
HETATM   18  H   UNK N   1      26.817  20.742   8.565  0.00  0.00     0.167 HD
ENDBRANCH  15  17
ENDBRANCH  14  15
BRANCH  14  19
HETATM   19  C   UNK N   1      28.312  18.936   5.281  0.00  0.00     0.036 C 
BRANCH  19  20
HETATM   20  C   UNK N   1      28.746  17.657   5.957  0.00  0.00     0.004 C 
BRANCH  20  21
HETATM   21  C   UNK N   1      29.247  17.974   7.344  0.00  0.00     0.019 C 
BRANCH  21  22
HETATM   22  C   UNK N   1      28.322  17.335   8.353  0.00  0.00     0.111 C 
BRANCH  22  23
HETATM   23  N   UNK N   1      27.686  18.371   9.143  0.00  0.00    -0.430 N 
HETATM   24  H   UNK N   1      26.928  18.925   8.743  0.00  0.00     0.149 HD
HETATM   25  H   UNK N   1      27.996  18.545  10.099  0.00  0.00     0.149 HD
ENDBRANCH  22  23
ENDBRANCH  21  22
ENDBRANCH  20  21
ENDBRANCH  19  20
ENDBRANCH  14  19
ENDBRANCH   5  14
BRANCH   3  26
HETATM   26  N   UNK N   1      22.592  19.076   3.382  0.00  0.00    -0.346 N 
HETATM   27  C   UNK N   1      21.383  19.606   3.702  0.00  0.00     0.235 C 
HETATM   28  O   UNK N   1      20.944  19.539   4.842  0.00  0.00    -0.272 OA
HETATM   29  H   UNK N   1      22.869  19.174   2.443  0.00  0.00     0.163 HD
BRANCH  27  30
HETATM   30  C   UNK N   1      20.590  20.280   2.621  0.00  0.00     0.214 C 
BRANCH  30  31
HETATM   31  N   UNK N   1      19.648  19.367   1.995  0.00  0.00    -0.422 N 
HETATM   32  H   UNK N   1      19.206  18.631   2.546  0.00  0.00     0.150 HD
HETATM   33  H   UNK N   1      19.429  19.461   1.004  0.00  0.00     0.150 HD
ENDBRANCH  30  31
ENDBRANCH  27  30
ENDBRANCH   3  26
TORSDOF 11
ENDMDL
MODEL 4
REMARK VINA RESULT:      -6.1     11.583     14.163
REMARK  11 active torsions:
REMARK  status: ('A' for Active; 'I' for Inactive)
REMARK    1  A    between atoms: C_4  and  N_1 
REMARK    2  A    between atoms: C_4  and  C_2 
REMARK       I    between atoms: N_5  and  C_2 
REMARK    3  A    between atoms: C_8  and  N_5 
REMARK    4  A    between atoms: C_19  and  N_10 
REMARK    5  A    between atoms: C_19  and  C_17 
REMARK    6  A    between atoms: C_17  and  O_25 
REMARK    7  A    between atoms: C_20  and  C_19 
REMARK    8  A    between atoms: C_20  and  C_21 
REMARK    9  A    between atoms: C_21  and  C_22 
REMARK   10  A    between atoms: C_22  and  C_23 
REMARK   11  A    between atoms: C_23  and  N_24 
ROOT
HETATM    1  C   UNK N   1      20.965  17.724   6.948  0.00  0.00     0.241 A 
HETATM    2  C   UNK N   1      20.396  15.186   7.944  0.00  0.00     0.093 A 
HETATM    3  C   UNK N   1      20.355  16.740   7.925  0.00  0.00     0.182 A 
HETATM    4  O   UNK N   1      20.793  18.919   7.148  0.00  0.00    -0.271 OA
HETATM    5  N   UNK N   1      21.684  17.307   5.877  0.00  0.00    -0.345 N 
HETATM    6  N   UNK N   1      21.787  14.752   5.853  0.00  0.00    -0.354 N 
ATOM      7  HN  UNK N   1      21.945  15.717   5.563  1.00  0.00     0.166 HD
HETATM    8  C   UNK N   1      21.099  14.329   6.921  0.00  0.00     0.028 A 
HETATM    9  N   UNK N   1      21.834  12.525   5.898  0.00  0.00    -0.360 N 
HETATM   10  C   UNK N   1      22.227  13.635   5.243  0.00  0.00     0.180 A 
HETATM   11  C   UNK N   1      21.122  12.956   6.956  0.00  0.00     0.114 A 
HETATM   12  H   UNK N   1      21.790  16.335   5.766  0.00  0.00     0.163 HD
HETATM   13  H   UNK N   1      22.027  11.591   5.653  0.00  0.00     0.166 HD
ENDROOT
BRANCH   5  14
HETATM   14  C   UNK N   1      22.315  18.153   4.874  0.00  0.00     0.182 C 
BRANCH  14  15
HETATM   15  C   UNK N   1      21.375  18.856   3.919  0.00  0.00     0.163 C 
HETATM   16  O   UNK N   1      21.168  18.387   2.813  0.00  0.00    -0.648 OA
BRANCH  15  17
HETATM   17  O   UNK N   1      20.757  20.000   4.269  0.00  0.00    -0.775 OA
HETATM   18  H   UNK N   1      21.263  20.748   4.519  0.00  0.00     0.167 HD
ENDBRANCH  15  17
ENDBRANCH  14  15
BRANCH  14  19
HETATM   19  C   UNK N   1      23.847  18.269   4.856  0.00  0.00     0.036 C 
BRANCH  19  20
HETATM   20  C   UNK N   1      24.391  19.337   3.938  0.00  0.00     0.004 C 
BRANCH  20  21
HETATM   21  C   UNK N   1      25.879  19.466   4.155  0.00  0.00     0.019 C 
BRANCH  21  22
HETATM   22  C   UNK N   1      26.120  20.367   5.343  0.00  0.00     0.111 C 
BRANCH  22  23
HETATM   23  N   UNK N   1      26.834  19.628   6.367  0.00  0.00    -0.430 N 
HETATM   24  H   UNK N   1      27.454  18.862   6.104  0.00  0.00     0.149 HD
HETATM   25  H   UNK N   1      26.715  19.875   7.349  0.00  0.00     0.149 HD
ENDBRANCH  22  23
ENDBRANCH  21  22
ENDBRANCH  20  21
ENDBRANCH  19  20
ENDBRANCH  14  19
ENDBRANCH   5  14
BRANCH   3  26
HETATM   26  N   UNK N   1      19.627  17.410   8.996  0.00  0.00    -0.346 N 
HETATM   27  C   UNK N   1      18.285  17.446   9.202  0.00  0.00     0.235 C 
HETATM   28  O   UNK N   1      17.513  16.874   8.446  0.00  0.00    -0.272 OA
HETATM   29  H   UNK N   1      20.176  17.896   9.652  0.00  0.00     0.163 HD
BRANCH  27  30
HETATM   30  C   UNK N   1      17.765  18.208  10.386  0.00  0.00     0.214 C 
BRANCH  30  31
HETATM   31  N   UNK N   1      18.550  19.403  10.644  0.00  0.00    -0.422 N 
HETATM   32  H   UNK N   1      19.480  19.325  11.055  0.00  0.00     0.150 HD
HETATM   33  H   UNK N   1      18.172  20.322  10.413  0.00  0.00     0.150 HD
ENDBRANCH  30  31
ENDBRANCH  27  30
ENDBRANCH   3  26
TORSDOF 11
ENDMDL
MODEL 5
REMARK VINA RESULT:      -6.1     12.395     14.435
REMARK  11 active torsions:
REMARK  status: ('A' for Active; 'I' for Inactive)
REMARK    1  A    between atoms: C_4  and  N_1 
REMARK    2  A    between atoms: C_4  and  C_2 
REMARK       I    between atoms: N_5  and  C_2 
REMARK    3  A    between atoms: C_8  and  N_5 
REMARK    4  A    between atoms: C_19  and  N_10 
REMARK    5  A    between atoms: C_19  and  C_17 
REMARK    6  A    between atoms: C_17  and  O_25 
REMARK    7  A    between atoms: C_20  and  C_19 
REMARK    8  A    between atoms: C_20  and  C_21 
REMARK    9  A    between atoms: C_21  and  C_22 
REMARK   10  A    between atoms: C_22  and  C_23 
REMARK   11  A    between atoms: C_23  and  N_24 
ROOT
HETATM    1  C   UNK N   1      20.955  17.686   7.094  0.00  0.00     0.241 A 
HETATM    2  C   UNK N   1      20.383  15.174   8.152  0.00  0.00     0.093 A 
HETATM    3  C   UNK N   1      20.321  16.726   8.080  0.00  0.00     0.182 A 
HETATM    4  O   UNK N   1      20.758  18.884   7.247  0.00  0.00    -0.271 OA
HETATM    5  N   UNK N   1      21.721  17.246   6.067  0.00  0.00    -0.345 N 
HETATM    6  N   UNK N   1      21.861  14.693   6.132  0.00  0.00    -0.354 N 
ATOM      7  HN  UNK N   1      22.017  15.650   5.816  1.00  0.00     0.166 HD
HETATM    8  C   UNK N   1      21.138  14.295   7.186  0.00  0.00     0.028 A 
HETATM    9  N   UNK N   1      21.938  12.470   6.253  0.00  0.00    -0.360 N 
HETATM   10  C   UNK N   1      22.341  13.564   5.577  0.00  0.00     0.180 A 
HETATM   11  C   UNK N   1      21.179  12.924   7.269  0.00  0.00     0.114 A 
HETATM   12  H   UNK N   1      21.845  16.272   5.993  0.00  0.00     0.163 HD
HETATM   13  H   UNK N   1      22.154  11.531   6.047  0.00  0.00     0.166 HD
ENDROOT
BRANCH   5  14
HETATM   14  C   UNK N   1      22.379  18.068   5.061  0.00  0.00     0.182 C 
BRANCH  14  15
HETATM   15  C   UNK N   1      23.885  17.939   4.988  0.00  0.00     0.163 C 
HETATM   16  O   UNK N   1      24.523  18.668   4.248  0.00  0.00    -0.648 OA
BRANCH  15  17
HETATM   17  O   UNK N   1      24.541  17.028   5.731  0.00  0.00    -0.775 OA
HETATM   18  H   UNK N   1      25.381  16.717   5.456  0.00  0.00     0.167 HD
ENDBRANCH  15  17
ENDBRANCH  14  15
BRANCH  14  19
HETATM   19  C   UNK N   1      21.524  18.981   4.171  0.00  0.00     0.036 C 
BRANCH  19  20
HETATM   20  C   UNK N   1      20.983  18.324   2.923  0.00  0.00     0.004 C 
BRANCH  20  21
HETATM   21  C   UNK N   1      20.159  19.326   2.153  0.00  0.00     0.019 C 
BRANCH  21  22
HETATM   22  C   UNK N   1      21.088  20.335   1.519  0.00  0.00     0.111 C 
BRANCH  22  23
HETATM   23  N   UNK N   1      20.388  21.029   0.456  0.00  0.00    -0.430 N 
HETATM   24  H   UNK N   1      20.162  22.019   0.555  0.00  0.00     0.149 HD
HETATM   25  H   UNK N   1      20.123  20.528  -0.392  0.00  0.00     0.149 HD
ENDBRANCH  22  23
ENDBRANCH  21  22
ENDBRANCH  20  21
ENDBRANCH  19  20
ENDBRANCH  14  19
ENDBRANCH   5  14
BRANCH   3  26
HETATM   26  N   UNK N   1      19.542  17.419   9.099  0.00  0.00    -0.346 N 
HETATM   27  C   UNK N   1      18.192  17.452   9.243  0.00  0.00     0.235 C 
HETATM   28  O   UNK N   1      17.458  16.855   8.469  0.00  0.00    -0.272 OA
HETATM   29  H   UNK N   1      20.059  17.926   9.765  0.00  0.00     0.163 HD
BRANCH  27  30
HETATM   30  C   UNK N   1      17.615  18.242  10.382  0.00  0.00     0.214 C 
BRANCH  30  31
HETATM   31  N   UNK N   1      18.444  19.388  10.716  0.00  0.00    -0.422 N 
HETATM   32  H   UNK N   1      19.212  19.660  10.102  0.00  0.00     0.150 HD
HETATM   33  H   UNK N   1      18.258  19.921  11.565  0.00  0.00     0.150 HD
ENDBRANCH  30  31
ENDBRANCH  27  30
ENDBRANCH   3  26
TORSDOF 11
ENDMDL
MODEL 6
REMARK VINA RESULT:      -6.1     15.207     19.335
REMARK  11 active torsions:
REMARK  status: ('A' for Active; 'I' for Inactive)
REMARK    1  A    between atoms: C_4  and  N_1 
REMARK    2  A    between atoms: C_4  and  C_2 
REMARK       I    between atoms: N_5  and  C_2 
REMARK    3  A    between atoms: C_8  and  N_5 
REMARK    4  A    between atoms: C_19  and  N_10 
REMARK    5  A    between atoms: C_19  and  C_17 
REMARK    6  A    between atoms: C_17  and  O_25 
REMARK    7  A    between atoms: C_20  and  C_19 
REMARK    8  A    between atoms: C_20  and  C_21 
REMARK    9  A    between atoms: C_21  and  C_22 
REMARK   10  A    between atoms: C_22  and  C_23 
REMARK   11  A    between atoms: C_23  and  N_24 
ROOT
HETATM    1  C   UNK N   1      28.040  23.940  -5.308  0.00  0.00     0.241 A 
HETATM    2  C   UNK N   1      25.931  25.675  -5.856  0.00  0.00     0.093 A 
HETATM    3  C   UNK N   1      26.841  24.437  -6.091  0.00  0.00     0.182 A 
HETATM    4  O   UNK N   1      28.602  22.924  -5.695  0.00  0.00    -0.271 OA
HETATM    5  N   UNK N   1      28.488  24.592  -4.208  0.00  0.00    -0.345 N 
HETATM    6  N   UNK N   1      27.026  26.644  -3.770  0.00  0.00    -0.354 N 
ATOM      7  HN  UNK N   1      27.771  25.959  -3.646  1.00  0.00     0.166 HD
HETATM    8  C   UNK N   1      26.094  26.665  -4.731  0.00  0.00     0.028 A 
HETATM    9  N   UNK N   1      25.710  28.413  -3.451  0.00  0.00    -0.360 N 
HETATM   10  C   UNK N   1      26.773  27.719  -3.000  0.00  0.00     0.180 A 
HETATM   11  C   UNK N   1      25.277  27.753  -4.542  0.00  0.00     0.114 A 
HETATM   12  H   UNK N   1      27.997  25.403  -3.943  0.00  0.00     0.163 HD
HETATM   13  H   UNK N   1      25.327  29.233  -3.063  0.00  0.00     0.166 HD
ENDROOT
BRANCH   5  14
HETATM   14  C   UNK N   1      29.623  24.214  -3.378  0.00  0.00     0.182 C 
BRANCH  14  15
HETATM   15  C   UNK N   1      29.301  23.357  -2.174  0.00  0.00     0.163 C 
HETATM   16  O   UNK N   1      30.202  22.934  -1.469  0.00  0.00    -0.648 OA
BRANCH  15  17
HETATM   17  O   UNK N   1      28.029  23.048  -1.860  0.00  0.00    -0.775 OA
HETATM   18  H   UNK N   1      27.360  23.702  -1.920  0.00  0.00     0.167 HD
ENDBRANCH  15  17
ENDBRANCH  14  15
BRANCH  14  19
HETATM   19  C   UNK N   1      31.026  24.698  -3.772  0.00  0.00     0.036 C 
BRANCH  19  20
HETATM   20  C   UNK N   1      31.722  23.848  -4.809  0.00  0.00     0.004 C 
BRANCH  20  21
HETATM   21  C   UNK N   1      32.442  22.715  -4.120  0.00  0.00     0.019 C 
BRANCH  21  22
HETATM   22  C   UNK N   1      31.860  21.407  -4.601  0.00  0.00     0.111 C 
BRANCH  22  23
HETATM   23  N   UNK N   1      31.203  20.740  -3.494  0.00  0.00    -0.430 N 
HETATM   24  H   UNK N   1      30.212  20.502  -3.556  0.00  0.00     0.149 HD
HETATM   25  H   UNK N   1      31.731  20.508  -2.653  0.00  0.00     0.149 HD
ENDBRANCH  22  23
ENDBRANCH  21  22
ENDBRANCH  20  21
ENDBRANCH  19  20
ENDBRANCH  14  19
ENDBRANCH   5  14
BRANCH   3  26
HETATM   26  N   UNK N   1      26.539  23.582  -7.233  0.00  0.00    -0.346 N 
HETATM   27  C   UNK N   1      25.561  22.646  -7.343  0.00  0.00     0.235 C 
HETATM   28  O   UNK N   1      24.790  22.424  -6.420  0.00  0.00    -0.272 OA
HETATM   29  H   UNK N   1      27.115  23.698  -8.022  0.00  0.00     0.163 HD
BRANCH  27  30
HETATM   30  C   UNK N   1      25.444  21.884  -8.631  0.00  0.00     0.214 C 
BRANCH  30  31
HETATM   31  N   UNK N   1      25.401  20.449  -8.405  0.00  0.00    -0.422 N 
HETATM   32  H   UNK N   1      26.224  19.877  -8.593  0.00  0.00     0.150 HD
HETATM   33  H   UNK N   1      24.547  20.013  -8.059  0.00  0.00     0.150 HD
ENDBRANCH  30  31
ENDBRANCH  27  30
ENDBRANCH   3  26
TORSDOF 11
ENDMDL
MODEL 7
REMARK VINA RESULT:      -5.8     13.027     15.957
REMARK  11 active torsions:
REMARK  status: ('A' for Active; 'I' for Inactive)
REMARK    1  A    between atoms: C_4  and  N_1 
REMARK    2  A    between atoms: C_4  and  C_2 
REMARK       I    between atoms: N_5  and  C_2 
REMARK    3  A    between atoms: C_8  and  N_5 
REMARK    4  A    between atoms: C_19  and  N_10 
REMARK    5  A    between atoms: C_19  and  C_17 
REMARK    6  A    between atoms: C_17  and  O_25 
REMARK    7  A    between atoms: C_20  and  C_19 
REMARK    8  A    between atoms: C_20  and  C_21 
REMARK    9  A    between atoms: C_21  and  C_22 
REMARK   10  A    between atoms: C_22  and  C_23 
REMARK   11  A    between atoms: C_23  and  N_24 
ROOT
HETATM    1  C   UNK N   1      20.794  17.145   5.323  0.00  0.00     0.241 A 
HETATM    2  C   UNK N   1      20.098  16.012   2.876  0.00  0.00     0.093 A 
HETATM    3  C   UNK N   1      20.625  17.131   3.817  0.00  0.00     0.182 A 
HETATM    4  O   UNK N   1      21.236  18.160   5.846  0.00  0.00    -0.271 OA
HETATM    5  N   UNK N   1      20.470  16.071   6.083  0.00  0.00    -0.345 N 
HETATM    6  N   UNK N   1      19.594  14.191   4.587  0.00  0.00    -0.354 N 
ATOM      7  HN  UNK N   1      19.874  14.686   5.434  1.00  0.00     0.166 HD
HETATM    8  C   UNK N   1      19.632  14.651   3.330  0.00  0.00     0.028 A 
HETATM    9  N   UNK N   1      18.843  12.601   3.221  0.00  0.00    -0.360 N 
HETATM   10  C   UNK N   1      19.110  12.939   4.497  0.00  0.00     0.180 A 
HETATM   11  C   UNK N   1      19.170  13.676   2.480  0.00  0.00     0.114 A 
HETATM   12  H   UNK N   1      20.120  15.283   5.610  0.00  0.00     0.163 HD
HETATM   13  H   UNK N   1      18.482  11.743   2.896  0.00  0.00     0.166 HD
ENDROOT
BRANCH   5  14
HETATM   14  C   UNK N   1      20.588  15.966   7.531  0.00  0.00     0.182 C 
BRANCH  14  15
HETATM   15  C   UNK N   1      19.659  16.851   8.333  0.00  0.00     0.163 C 
HETATM   16  O   UNK N   1      18.573  16.428   8.691  0.00  0.00    -0.648 OA
BRANCH  15  17
HETATM   17  O   UNK N   1      20.010  18.108   8.663  0.00  0.00    -0.775 OA
HETATM   18  H   UNK N   1      19.376  18.797   8.625  0.00  0.00     0.167 HD
ENDBRANCH  15  17
ENDBRANCH  14  15
BRANCH  14  19
HETATM   19  C   UNK N   1      21.617  14.992   8.125  0.00  0.00     0.036 C 
BRANCH  19  20
HETATM   20  C   UNK N   1      21.061  13.644   8.517  0.00  0.00     0.004 C 
BRANCH  20  21
HETATM   21  C   UNK N   1      21.122  13.500  10.018  0.00  0.00     0.019 C 
BRANCH  21  22
HETATM   22  C   UNK N   1      22.476  12.947  10.397  0.00  0.00     0.111 C 
BRANCH  22  23
HETATM   23  N   UNK N   1      22.332  11.559  10.792  0.00  0.00    -0.430 N 
HETATM   24  H   UNK N   1      22.777  11.223  11.647  0.00  0.00     0.149 HD
HETATM   25  H   UNK N   1      21.787  10.919  10.215  0.00  0.00     0.149 HD
ENDBRANCH  22  23
ENDBRANCH  21  22
ENDBRANCH  20  21
ENDBRANCH  19  20
ENDBRANCH  14  19
ENDBRANCH   5  14
BRANCH   3  26
HETATM   26  N   UNK N   1      21.036  18.390   3.207  0.00  0.00    -0.346 N 
HETATM   27  C   UNK N   1      20.249  19.346   2.648  0.00  0.00     0.235 C 
HETATM   28  O   UNK N   1      19.034  19.221   2.607  0.00  0.00    -0.272 OA
HETATM   29  H   UNK N   1      22.003  18.569   3.199  0.00  0.00     0.163 HD
BRANCH  27  30
HETATM   30  C   UNK N   1      20.908  20.568   2.078  0.00  0.00     0.214 C 
BRANCH  30  31
HETATM   31  N   UNK N   1      20.368  20.912   0.774  0.00  0.00    -0.422 N 
HETATM   32  H   UNK N   1      19.530  20.443   0.427  0.00  0.00     0.150 HD
HETATM   33  H   UNK N   1      20.826  21.622   0.203  0.00  0.00     0.150 HD
ENDBRANCH  30  31
ENDBRANCH  27  30
ENDBRANCH   3  26
TORSDOF 11
ENDMDL
MODEL 8
REMARK VINA RESULT:      -5.8      3.954      5.664
REMARK  11 active torsions:
REMARK  status: ('A' for Active; 'I' for Inactive)
REMARK    1  A    between atoms: C_4  and  N_1 
REMARK    2  A    between atoms: C_4  and  C_2 
REMARK       I    between atoms: N_5  and  C_2 
REMARK    3  A    between atoms: C_8  and  N_5 
REMARK    4  A    between atoms: C_19  and  N_10 
REMARK    5  A    between atoms: C_19  and  C_17 
REMARK    6  A    between atoms: C_17  and  O_25 
REMARK    7  A    between atoms: C_20  and  C_19 
REMARK    8  A    between atoms: C_20  and  C_21 
REMARK    9  A    between atoms: C_21  and  C_22 
REMARK   10  A    between atoms: C_22  and  C_23 
REMARK   11  A    between atoms: C_23  and  N_24 
ROOT
HETATM    1  C   UNK N   1      30.664  17.068   7.487  0.00  0.00     0.241 A 
HETATM    2  C   UNK N   1      32.040  14.955   6.305  0.00  0.00     0.093 A 
HETATM    3  C   UNK N   1      31.886  16.223   7.191  0.00  0.00     0.182 A 
HETATM    4  O   UNK N   1      30.795  18.034   8.227  0.00  0.00    -0.271 OA
HETATM    5  N   UNK N   1      29.453  16.776   6.953  0.00  0.00    -0.345 N 
HETATM    6  N   UNK N   1      29.643  14.693   5.481  0.00  0.00    -0.354 N 
ATOM      7  HN  UNK N   1      29.223  15.493   5.954  1.00  0.00     0.166 HD
HETATM    8  C   UNK N   1      30.922  14.302   5.532  0.00  0.00     0.028 A 
HETATM    9  N   UNK N   1      29.885  12.876   4.216  0.00  0.00    -0.360 N 
HETATM   10  C   UNK N   1      29.028  13.810   4.673  0.00  0.00     0.180 A 
HETATM   11  C   UNK N   1      31.081  13.180   4.754  0.00  0.00     0.114 A 
HETATM   12  H   UNK N   1      29.407  15.988   6.365  0.00  0.00     0.163 HD
HETATM   13  H   UNK N   1      29.679  12.125   3.612  0.00  0.00     0.166 HD
ENDROOT
BRANCH   5  14
HETATM   14  C   UNK N   1      28.213  17.510   7.162  0.00  0.00     0.182 C 
BRANCH  14  15
HETATM   15  C   UNK N   1      27.781  17.675   8.603  0.00  0.00     0.163 C 
HETATM   16  O   UNK N   1      27.460  16.698   9.258  0.00  0.00    -0.648 OA
BRANCH  15  17
HETATM   17  O   UNK N   1      27.741  18.889   9.182  0.00  0.00    -0.775 OA
HETATM   18  H   UNK N   1      26.939  19.210   9.544  0.00  0.00     0.167 HD
ENDBRANCH  15  17
ENDBRANCH  14  15
BRANCH  14  19
HETATM   19  C   UNK N   1      27.454  18.050   5.942  0.00  0.00     0.036 C 
BRANCH  19  20
HETATM   20  C   UNK N   1      27.719  19.501   5.620  0.00  0.00     0.004 C 
BRANCH  20  21
HETATM   21  C   UNK N   1      26.429  20.276   5.720  0.00  0.00     0.019 C 
BRANCH  21  22
HETATM   22  C   UNK N   1      26.594  21.363   6.756  0.00  0.00     0.111 C 
BRANCH  22  23
HETATM   23  N   UNK N   1      25.965  20.946   7.994  0.00  0.00    -0.430 N 
HETATM   24  H   UNK N   1      26.101  19.996   8.341  0.00  0.00     0.149 HD
HETATM   25  H   UNK N   1      25.386  21.602   8.517  0.00  0.00     0.149 HD
ENDBRANCH  22  23
ENDBRANCH  21  22
ENDBRANCH  20  21
ENDBRANCH  19  20
ENDBRANCH  14  19
ENDBRANCH   5  14
BRANCH   3  26
HETATM   26  N   UNK N   1      33.076  16.721   7.870  0.00  0.00    -0.346 N 
HETATM   27  C   UNK N   1      33.641  16.262   9.017  0.00  0.00     0.235 C 
HETATM   28  O   UNK N   1      33.160  15.317   9.625  0.00  0.00    -0.272 OA
HETATM   29  H   UNK N   1      33.527  17.486   7.445  0.00  0.00     0.163 HD
BRANCH  27  30
HETATM   30  C   UNK N   1      34.876  16.945   9.527  0.00  0.00     0.214 C 
BRANCH  30  31
HETATM   31  N   UNK N   1      34.986  16.850  10.973  0.00  0.00    -0.422 N 
HETATM   32  H   UNK N   1      35.697  16.251  11.393  0.00  0.00     0.150 HD
HETATM   33  H   UNK N   1      34.353  17.383  11.568  0.00  0.00     0.150 HD
ENDBRANCH  30  31
ENDBRANCH  27  30
ENDBRANCH   3  26
TORSDOF 11
ENDMDL
MODEL 9
REMARK VINA RESULT:      -5.7      9.505     14.231
REMARK  11 active torsions:
REMARK  status: ('A' for Active; 'I' for Inactive)
REMARK    1  A    between atoms: C_4  and  N_1 
REMARK    2  A    between atoms: C_4  and  C_2 
REMARK       I    between atoms: N_5  and  C_2 
REMARK    3  A    between atoms: C_8  and  N_5 
REMARK    4  A    between atoms: C_19  and  N_10 
REMARK    5  A    between atoms: C_19  and  C_17 
REMARK    6  A    between atoms: C_17  and  O_25 
REMARK    7  A    between atoms: C_20  and  C_19 
REMARK    8  A    between atoms: C_20  and  C_21 
REMARK    9  A    between atoms: C_21  and  C_22 
REMARK   10  A    between atoms: C_22  and  C_23 
REMARK   11  A    between atoms: C_23  and  N_24 
ROOT
HETATM    1  C   UNK N   1      22.546  17.010   5.762  0.00  0.00     0.241 A 
HETATM    2  C   UNK N   1      23.459  18.964   4.000  0.00  0.00     0.093 A 
HETATM    3  C   UNK N   1      23.604  17.838   5.062  0.00  0.00     0.182 A 
HETATM    4  O   UNK N   1      22.912  16.170   6.573  0.00  0.00    -0.271 OA
HETATM    5  N   UNK N   1      21.226  17.185   5.509  0.00  0.00    -0.345 N 
HETATM    6  N   UNK N   1      20.922  19.030   3.764  0.00  0.00    -0.354 N 
ATOM      7  HN  UNK N   1      20.680  18.297   4.431  1.00  0.00     0.166 HD
HETATM    8  C   UNK N   1      22.149  19.462   3.444  0.00  0.00     0.028 A 
HETATM    9  N   UNK N   1      20.736  20.645   2.242  0.00  0.00    -0.360 N 
HETATM   10  C   UNK N   1      20.076  19.765   3.019  0.00  0.00     0.180 A 
HETATM   11  C   UNK N   1      22.043  20.459   2.505  0.00  0.00     0.114 A 
HETATM   12  H   UNK N   1      20.989  17.874   4.848  0.00  0.00     0.163 HD
HETATM   13  H   UNK N   1      20.344  21.292   1.610  0.00  0.00     0.166 HD
ENDROOT
BRANCH   5  14
HETATM   14  C   UNK N   1      20.122  16.454   6.116  0.00  0.00     0.182 C 
BRANCH  14  15
HETATM   15  C   UNK N   1      19.019  16.026   5.173  0.00  0.00     0.163 C 
HETATM   16  O   UNK N   1      18.275  15.111   5.482  0.00  0.00    -0.648 OA
BRANCH  15  17
HETATM   17  O   UNK N   1      18.839  16.640   3.989  0.00  0.00    -0.775 OA
HETATM   18  H   UNK N   1      19.577  16.972   3.517  0.00  0.00     0.167 HD
ENDBRANCH  15  17
ENDBRANCH  14  15
BRANCH  14  19
HETATM   19  C   UNK N   1      20.155  16.178   7.626  0.00  0.00     0.036 C 
BRANCH  19  20
HETATM   20  C   UNK N   1      19.647  17.308   8.489  0.00  0.00     0.004 C 
BRANCH  20  21
HETATM   21  C   UNK N   1      18.261  16.973   8.980  0.00  0.00     0.019 C 
BRANCH  21  22
HETATM   22  C   UNK N   1      17.852  17.995  10.016  0.00  0.00     0.111 C 
BRANCH  22  23
HETATM   23  N   UNK N   1      18.899  18.989  10.146  0.00  0.00    -0.430 N 
HETATM   24  H   UNK N   1      18.967  19.551  10.996  0.00  0.00     0.149 HD
HETATM   25  H   UNK N   1      19.568  19.128   9.389  0.00  0.00     0.149 HD
ENDBRANCH  22  23
ENDBRANCH  21  22
ENDBRANCH  20  21
ENDBRANCH  19  20
ENDBRANCH  14  19
ENDBRANCH   5  14
BRANCH   3  26
HETATM   26  N   UNK N   1      24.952  17.481   5.488  0.00  0.00    -0.346 N 
HETATM   27  C   UNK N   1      25.836  16.657   4.868  0.00  0.00     0.235 C 
HETATM   28  O   UNK N   1      25.553  16.102   3.816  0.00  0.00    -0.272 OA
HETATM   29  H   UNK N   1      25.259  17.886   6.330  0.00  0.00     0.163 HD
BRANCH  27  30
HETATM   30  C   UNK N   1      27.178  16.441   5.506  0.00  0.00     0.214 C 
BRANCH  30  31
HETATM   31  N   UNK N   1      27.150  16.729   6.930  0.00  0.00    -0.422 N 
HETATM   32  H   UNK N   1      27.887  16.373   7.538  0.00  0.00     0.150 HD
HETATM   33  H   UNK N   1      26.392  17.287   7.322  0.00  0.00     0.150 HD
ENDBRANCH  30  31
ENDBRANCH  27  30
ENDBRANCH   3  26
TORSDOF 11
ENDMDL
