MODEL 1
REMARK VINA RESULT:      -5.8      0.000      0.000
REMARK  13 active torsions:
REMARK  status: ('A' for Active; 'I' for Inactive)
REMARK    1  A    between atoms: C_3  and  C_1 
REMARK       I    between atoms: N_6  and  C_1 
REMARK    2  A    between atoms: C_2  and  C_4 
REMARK    3  A    between atoms: O_8  and  C_2 
REMARK    4  A    between atoms: C_5  and  C_3 
REMARK    5  A    between atoms: C_4  and  C_5 
REMARK    6  A    between atoms: C_4  and  C_19 
REMARK    7  A    between atoms: C_15  and  N_6 
REMARK    8  A    between atoms: C_9  and  C_7 
REMARK    9  A    between atoms: O_12  and  C_7 
REMARK   10  A    between atoms: O_22  and  C_19 
REMARK   11  A    between atoms: C_25  and  O_22 
REMARK   12  A    between atoms: O_23  and  C_24 
REMARK   13  A    between atoms: C_24  and  C_25 
ROOT
HETATM    1  C   UNK N   1      34.295  14.675   6.794  0.00  0.00     0.042 C 
HETATM    2  C   UNK N   1      35.660  14.402   6.175  0.00  0.00     0.019 C 
HETATM    3  C   UNK N   1      33.419  13.673   6.066  0.00  0.00     0.019 C 
HETATM    4  C   UNK N   1      35.396  14.113   4.714  0.00  0.00     0.001 C 
HETATM    5  C   UNK N   1      33.984  13.555   4.658  0.00  0.00     0.001 C 
ENDROOT
BRANCH   1   6
HETATM    6  C   UNK N   1      33.934  16.165   6.613  0.00  0.00     0.226 C 
HETATM    7  N   UNK N   1      32.683  16.690   6.778  0.00  0.00    -0.356 N 
HETATM    8  H   UNK N   1      32.580  17.654   6.602  0.00  0.00     0.162 HD
HETATM    9  O   UNK N   1      34.829  16.927   6.289  0.00  0.00    -0.273 OA
BRANCH   7  10
HETATM   10  C   UNK N   1      31.497  15.977   7.186  0.00  0.00     0.084 C 
HETATM   11  C   UNK N   1      31.147  16.302   8.644  0.00  0.00     0.026 C 
HETATM   12  C   UNK N   1      30.480  17.676   8.796  0.00  0.00     0.017 C 
HETATM   13  C   UNK N   1      29.373  17.949   7.759  0.00  0.00     0.084 C 
HETATM   14  C   UNK N   1      29.072  16.725   6.892  0.00  0.00     0.017 C 
HETATM   15  C   UNK N   1      30.355  16.273   6.202  0.00  0.00     0.026 C 
BRANCH  13  16
HETATM   16  C   UNK N   1      28.137  18.489   8.426  0.00  0.00     0.143 C 
HETATM   17  O   UNK N   1      27.759  18.007   9.482  0.00  0.00    -0.650 OA
BRANCH  16  18
HETATM   18  O   UNK N   1      27.451  19.514   7.882  0.00  0.00    -0.776 OA
HETATM   19  H   UNK N   1      26.847  20.063   8.344  0.00  0.00     0.167 HD
ENDBRANCH  16  18
ENDBRANCH  13  16
ENDBRANCH   7  10
ENDBRANCH   1   6
BRANCH   1  20
HETATM   20  C   UNK N   1      34.276  14.294   8.285  0.00  0.00     0.036 C 
BRANCH  20  21
HETATM   21  C   UNK N   1      35.284  15.053   9.153  0.00  0.00     0.108 C 
BRANCH  21  22
HETATM   22  C   UNK N   1      34.589  15.931  10.159  0.00  0.00     0.145 C 
HETATM   23  O   UNK N   1      34.716  17.142  10.098  0.00  0.00    -0.650 OA
BRANCH  22  24
HETATM   24  O   UNK N   1      33.851  15.391  11.151  0.00  0.00    -0.776 OA
HETATM   25  H   UNK N   1      34.026  14.569  11.564  0.00  0.00     0.167 HD
ENDBRANCH  22  24
ENDBRANCH  21  22
BRANCH  21  26
HETATM   26  C   UNK N   1      36.195  14.053   9.863  0.00  0.00     0.183 C 
BRANCH  26  27
HETATM   27  O   UNK N   1      36.747  14.575  11.040  0.00  0.00    -0.388 OA
BRANCH  27  28
HETATM   28  C   UNK N   1      36.793  13.514  11.957  0.00  0.00     0.193 C 
BRANCH  28  29
HETATM   29  C   UNK N   1      36.208  13.912  13.308  0.00  0.00     0.193 C 
BRANCH  29  30
HETATM   30  O   UNK N   1      34.846  13.600  13.339  0.00  0.00    -0.394 OA
HETATM   31  C   UNK N   1      34.787  12.221  13.135  0.00  0.00     0.201 C 
ENDBRANCH  29  30
ENDBRANCH  28  29
ENDBRANCH  27  28
ENDBRANCH  26  27
ENDBRANCH  21  26
ENDBRANCH  20  21
ENDBRANCH   1  20
TORSDOF 13
ENDMDL
MODEL 2
REMARK VINA RESULT:      -5.8      1.549      2.276
REMARK  13 active torsions:
REMARK  status: ('A' for Active; 'I' for Inactive)
REMARK    1  A    between atoms: C_3  and  C_1 
REMARK       I    between atoms: N_6  and  C_1 
REMARK    2  A    between atoms: C_2  and  C_4 
REMARK    3  A    between atoms: O_8  and  C_2 
REMARK    4  A    between atoms: C_5  and  C_3 
REMARK    5  A    between atoms: C_4  and  C_5 
REMARK    6  A    between atoms: C_4  and  C_19 
REMARK    7  A    between atoms: C_15  and  N_6 
REMARK    8  A    between atoms: C_9  and  C_7 
REMARK    9  A    between atoms: O_12  and  C_7 
REMARK   10  A    between atoms: O_22  and  C_19 
REMARK   11  A    between atoms: C_25  and  O_22 
REMARK   12  A    between atoms: O_23  and  C_24 
REMARK   13  A    between atoms: C_24  and  C_25 
ROOT
HETATM    1  C   UNK N   1      34.032  14.477   7.776  0.00  0.00     0.042 C 
HETATM    2  C   UNK N   1      34.685  15.638   7.036  0.00  0.00     0.019 C 
HETATM    3  C   UNK N   1      35.077  13.387   7.624  0.00  0.00     0.019 C 
HETATM    4  C   UNK N   1      35.386  15.022   5.846  0.00  0.00     0.001 C 
HETATM    5  C   UNK N   1      35.721  13.600   6.262  0.00  0.00     0.001 C 
ENDROOT
BRANCH   1   6
HETATM    6  C   UNK N   1      32.644  14.190   7.165  0.00  0.00     0.226 C 
HETATM    7  N   UNK N   1      31.688  15.137   6.920  0.00  0.00    -0.356 N 
HETATM    8  H   UNK N   1      30.831  14.816   6.556  0.00  0.00     0.162 HD
HETATM    9  O   UNK N   1      32.377  13.033   6.892  0.00  0.00    -0.273 OA
BRANCH   7  10
HETATM   10  C   UNK N   1      31.808  16.557   7.140  0.00  0.00     0.084 C 
HETATM   11  C   UNK N   1      31.159  17.338   5.989  0.00  0.00     0.026 C 
HETATM   12  C   UNK N   1      29.628  17.362   6.085  0.00  0.00     0.017 C 
HETATM   13  C   UNK N   1      29.097  17.678   7.497  0.00  0.00     0.084 C 
HETATM   14  C   UNK N   1      30.217  18.050   8.470  0.00  0.00     0.017 C 
HETATM   15  C   UNK N   1      31.235  16.915   8.520  0.00  0.00     0.026 C 
BRANCH  13  16
HETATM   16  C   UNK N   1      28.022  18.729   7.441  0.00  0.00     0.143 C 
HETATM   17  O   UNK N   1      27.656  19.164   6.361  0.00  0.00    -0.650 OA
BRANCH  16  18
HETATM   18  O   UNK N   1      27.443  19.184   8.570  0.00  0.00    -0.776 OA
HETATM   19  H   UNK N   1      27.829  19.798   9.164  0.00  0.00     0.167 HD
ENDBRANCH  16  18
ENDBRANCH  13  16
ENDBRANCH   7  10
ENDBRANCH   1   6
BRANCH   1  20
HETATM   20  C   UNK N   1      33.908  14.778   9.280  0.00  0.00     0.036 C 
BRANCH  20  21
HETATM   21  C   UNK N   1      35.199  14.585  10.080  0.00  0.00     0.108 C 
BRANCH  21  22
HETATM   22  C   UNK N   1      35.710  15.893  10.621  0.00  0.00     0.145 C 
HETATM   23  O   UNK N   1      35.014  16.892  10.552  0.00  0.00    -0.650 OA
BRANCH  22  24
HETATM   24  O   UNK N   1      36.947  15.982  11.154  0.00  0.00    -0.776 OA
HETATM   25  H   UNK N   1      37.239  16.669  11.720  0.00  0.00     0.167 HD
ENDBRANCH  22  24
ENDBRANCH  21  22
BRANCH  21  26
HETATM   26  C   UNK N   1      34.944  13.603  11.223  0.00  0.00     0.183 C 
BRANCH  26  27
HETATM   27  O   UNK N   1      34.912  14.234  12.473  0.00  0.00    -0.388 OA
BRANCH  27  28
HETATM   28  C   UNK N   1      35.276  13.261  13.415  0.00  0.00     0.193 C 
BRANCH  28  29
HETATM   29  C   UNK N   1      36.595  13.605  14.099  0.00  0.00     0.193 C 
BRANCH  29  30
HETATM   30  O   UNK N   1      36.700  14.991  14.245  0.00  0.00    -0.394 OA
HETATM   31  C   UNK N   1      37.182  15.182  15.540  0.00  0.00     0.201 C 
ENDBRANCH  29  30
ENDBRANCH  28  29
ENDBRANCH  27  28
ENDBRANCH  26  27
ENDBRANCH  21  26
ENDBRANCH  20  21
ENDBRANCH   1  20
TORSDOF 13
ENDMDL
MODEL 3
REMARK VINA RESULT:      -5.7      9.114     13.283
REMARK  13 active torsions:
REMARK  status: ('A' for Active; 'I' for Inactive)
REMARK    1  A    between atoms: C_3  and  C_1 
REMARK       I    between atoms: N_6  and  C_1 
REMARK    2  A    between atoms: C_2  and  C_4 
REMARK    3  A    between atoms: O_8  and  C_2 
REMARK    4  A    between atoms: C_5  and  C_3 
REMARK    5  A    between atoms: C_4  and  C_5 
REMARK    6  A    between atoms: C_4  and  C_19 
REMARK    7  A    between atoms: C_15  and  N_6 
REMARK    8  A    between atoms: C_9  and  C_7 
REMARK    9  A    between atoms: O_12  and  C_7 
REMARK   10  A    between atoms: O_22  and  C_19 
REMARK   11  A    between atoms: C_25  and  O_22 
REMARK   12  A    between atoms: O_23  and  C_24 
REMARK   13  A    between atoms: C_24  and  C_25 
ROOT
HETATM    1  C   UNK N   1      21.102  17.003   3.696  0.00  0.00     0.042 C 
HETATM    2  C   UNK N   1      20.666  17.072   2.238  0.00  0.00     0.019 C 
HETATM    3  C   UNK N   1      22.364  16.165   3.603  0.00  0.00     0.019 C 
HETATM    4  C   UNK N   1      20.975  15.711   1.655  0.00  0.00     0.001 C 
HETATM    5  C   UNK N   1      22.132  15.169   2.476  0.00  0.00     0.001 C 
ENDROOT
BRANCH   1   6
HETATM    6  C   UNK N   1      19.955  16.427   4.553  0.00  0.00     0.226 C 
HETATM    7  N   UNK N   1      20.124  15.603   5.630  0.00  0.00    -0.356 N 
HETATM    8  H   UNK N   1      19.305  15.280   6.073  0.00  0.00     0.162 HD
HETATM    9  O   UNK N   1      18.815  16.722   4.239  0.00  0.00    -0.273 OA
BRANCH   7  10
HETATM   10  C   UNK N   1      21.379  15.159   6.186  0.00  0.00     0.084 C 
HETATM   11  C   UNK N   1      21.646  15.846   7.532  0.00  0.00     0.026 C 
HETATM   12  C   UNK N   1      20.823  15.238   8.676  0.00  0.00     0.017 C 
HETATM   13  C   UNK N   1      20.824  13.697   8.693  0.00  0.00     0.084 C 
HETATM   14  C   UNK N   1      21.773  13.103   7.651  0.00  0.00     0.017 C 
HETATM   15  C   UNK N   1      21.390  13.625   6.270  0.00  0.00     0.026 C 
BRANCH  13  16
HETATM   16  C   UNK N   1      21.105  13.179  10.077  0.00  0.00     0.143 C 
HETATM   17  O   UNK N   1      22.245  13.201  10.512  0.00  0.00    -0.650 OA
BRANCH  16  18
HETATM   18  O   UNK N   1      20.108  12.706  10.852  0.00  0.00    -0.776 OA
HETATM   19  H   UNK N   1      20.104  11.867  11.271  0.00  0.00     0.167 HD
ENDBRANCH  16  18
ENDBRANCH  13  16
ENDBRANCH   7  10
ENDBRANCH   1   6
BRANCH   1  20
HETATM   20  C   UNK N   1      21.518  18.391   4.216  0.00  0.00     0.036 C 
BRANCH  20  21
HETATM   21  C   UNK N   1      21.984  19.368   3.131  0.00  0.00     0.108 C 
BRANCH  21  22
HETATM   22  C   UNK N   1      21.097  20.581   3.068  0.00  0.00     0.145 C 
HETATM   23  O   UNK N   1      20.193  20.715   3.876  0.00  0.00    -0.650 OA
BRANCH  22  24
HETATM   24  O   UNK N   1      21.267  21.510   2.105  0.00  0.00    -0.776 OA
HETATM   25  H   UNK N   1      21.185  22.435   2.230  0.00  0.00     0.167 HD
ENDBRANCH  22  24
ENDBRANCH  21  22
BRANCH  21  26
HETATM   26  C   UNK N   1      23.429  19.782   3.411  0.00  0.00     0.183 C 
BRANCH  26  27
HETATM   27  O   UNK N   1      23.936  20.643   2.429  0.00  0.00    -0.388 OA
BRANCH  27  28
HETATM   28  C   UNK N   1      25.332  20.618   2.568  0.00  0.00     0.193 C 
BRANCH  28  29
HETATM   29  C   UNK N   1      25.785  19.506   3.508  0.00  0.00     0.193 C 
BRANCH  29  30
HETATM   30  O   UNK N   1      27.169  19.578   3.688  0.00  0.00    -0.394 OA
HETATM   31  C   UNK N   1      27.411  18.923   4.896  0.00  0.00     0.201 C 
ENDBRANCH  29  30
ENDBRANCH  28  29
ENDBRANCH  27  28
ENDBRANCH  26  27
ENDBRANCH  21  26
ENDBRANCH  20  21
ENDBRANCH   1  20
TORSDOF 13
ENDMDL
MODEL 4
REMARK VINA RESULT:      -5.6      2.350      3.173
REMARK  13 active torsions:
REMARK  status: ('A' for Active; 'I' for Inactive)
REMARK    1  A    between atoms: C_3  and  C_1 
REMARK       I    between atoms: N_6  and  C_1 
REMARK    2  A    between atoms: C_2  and  C_4 
REMARK    3  A    between atoms: O_8  and  C_2 
REMARK    4  A    between atoms: C_5  and  C_3 
REMARK    5  A    between atoms: C_4  and  C_5 
REMARK    6  A    between atoms: C_4  and  C_19 
REMARK    7  A    between atoms: C_15  and  N_6 
REMARK    8  A    between atoms: C_9  and  C_7 
REMARK    9  A    between atoms: O_12  and  C_7 
REMARK   10  A    between atoms: O_22  and  C_19 
REMARK   11  A    between atoms: C_25  and  O_22 
REMARK   12  A    between atoms: O_23  and  C_24 
REMARK   13  A    between atoms: C_24  and  C_25 
ROOT
HETATM    1  C   UNK N   1      33.059  16.021   5.787  0.00  0.00     0.042 C 
HETATM    2  C   UNK N   1      34.432  15.578   5.299  0.00  0.00     0.019 C 
HETATM    3  C   UNK N   1      32.233  14.767   5.564  0.00  0.00     0.019 C 
HETATM    4  C   UNK N   1      34.175  14.697   4.097  0.00  0.00     0.001 C 
HETATM    5  C   UNK N   1      32.795  14.102   4.317  0.00  0.00     0.001 C 
ENDROOT
BRANCH   1   6
HETATM    6  C   UNK N   1      32.618  17.282   5.016  0.00  0.00     0.226 C 
HETATM    7  N   UNK N   1      31.332  17.558   4.641  0.00  0.00    -0.356 N 
HETATM    8  H   UNK N   1      31.189  18.384   4.125  0.00  0.00     0.162 HD
HETATM    9  O   UNK N   1      33.481  18.087   4.711  0.00  0.00    -0.273 OA
BRANCH   7  10
HETATM   10  C   UNK N   1      30.164  16.762   4.926  0.00  0.00     0.084 C 
HETATM   11  C   UNK N   1      29.320  17.417   6.028  0.00  0.00     0.026 C 
HETATM   12  C   UNK N   1      28.495  18.603   5.511  0.00  0.00     0.017 C 
HETATM   13  C   UNK N   1      27.768  18.323   4.181  0.00  0.00     0.084 C 
HETATM   14  C   UNK N   1      27.903  16.865   3.739  0.00  0.00     0.017 C 
HETATM   15  C   UNK N   1      29.382  16.511   3.627  0.00  0.00     0.026 C 
BRANCH  13  16
HETATM   16  C   UNK N   1      26.331  18.762   4.256  0.00  0.00     0.143 C 
HETATM   17  O   UNK N   1      25.803  19.277   3.283  0.00  0.00    -0.650 OA
BRANCH  16  18
HETATM   18  O   UNK N   1      25.611  18.577   5.381  0.00  0.00    -0.776 OA
HETATM   19  H   UNK N   1      24.723  18.276   5.408  0.00  0.00     0.167 HD
ENDBRANCH  16  18
ENDBRANCH  13  16
ENDBRANCH   7  10
ENDBRANCH   1   6
BRANCH   1  20
HETATM   20  C   UNK N   1      33.070  16.291   7.302  0.00  0.00     0.036 C 
BRANCH  20  21
HETATM   21  C   UNK N   1      34.371  16.899   7.835  0.00  0.00     0.108 C 
BRANCH  21  22
HETATM   22  C   UNK N   1      34.194  18.351   8.187  0.00  0.00     0.145 C 
HETATM   23  O   UNK N   1      33.076  18.837   8.215  0.00  0.00    -0.650 OA
BRANCH  22  24
HETATM   24  O   UNK N   1      35.263  19.134   8.442  0.00  0.00    -0.776 OA
HETATM   25  H   UNK N   1      36.151  18.839   8.467  0.00  0.00     0.167 HD
ENDBRANCH  22  24
ENDBRANCH  21  22
BRANCH  21  26
HETATM   26  C   UNK N   1      34.834  16.110   9.059  0.00  0.00     0.183 C 
BRANCH  26  27
HETATM   27  O   UNK N   1      34.829  16.883  10.226  0.00  0.00    -0.388 OA
BRANCH  27  28
HETATM   28  C   UNK N   1      35.775  16.305  11.086  0.00  0.00     0.193 C 
BRANCH  28  29
HETATM   29  C   UNK N   1      36.397  15.052  10.478  0.00  0.00     0.193 C 
BRANCH  29  30
HETATM   30  O   UNK N   1      36.620  14.106  11.481  0.00  0.00    -0.394 OA
HETATM   31  C   UNK N   1      36.012  14.635  12.620  0.00  0.00     0.201 C 
ENDBRANCH  29  30
ENDBRANCH  28  29
ENDBRANCH  27  28
ENDBRANCH  26  27
ENDBRANCH  21  26
ENDBRANCH  20  21
ENDBRANCH   1  20
TORSDOF 13
ENDMDL
MODEL 5
REMARK VINA RESULT:      -5.6     14.158     17.963
REMARK  13 active torsions:
REMARK  status: ('A' for Active; 'I' for Inactive)
REMARK    1  A    between atoms: C_3  and  C_1 
REMARK       I    between atoms: N_6  and  C_1 
REMARK    2  A    between atoms: C_2  and  C_4 
REMARK    3  A    between atoms: O_8  and  C_2 
REMARK    4  A    between atoms: C_5  and  C_3 
REMARK    5  A    between atoms: C_4  and  C_5 
REMARK    6  A    between atoms: C_4  and  C_19 
REMARK    7  A    between atoms: C_15  and  N_6 
REMARK    8  A    between atoms: C_9  and  C_7 
REMARK    9  A    between atoms: O_12  and  C_7 
REMARK   10  A    between atoms: O_22  and  C_19 
REMARK   11  A    between atoms: C_25  and  O_22 
REMARK   12  A    between atoms: O_23  and  C_24 
REMARK   13  A    between atoms: C_24  and  C_25 
ROOT
HETATM    1  C   UNK N   1      27.361  25.272  -5.642  0.00  0.00     0.042 C 
HETATM    2  C   UNK N   1      26.655  23.939  -5.431  0.00  0.00     0.019 C 
HETATM    3  C   UNK N   1      26.363  26.017  -6.509  0.00  0.00     0.019 C 
HETATM    4  C   UNK N   1      25.973  23.626  -6.744  0.00  0.00     0.001 C 
HETATM    5  C   UNK N   1      25.701  24.971  -7.393  0.00  0.00     0.001 C 
ENDROOT
BRANCH   1   6
HETATM    6  C   UNK N   1      28.757  25.026  -6.255  0.00  0.00     0.226 C 
HETATM    7  N   UNK N   1      29.657  24.103  -5.800  0.00  0.00    -0.356 N 
HETATM    8  H   UNK N   1      30.526  24.068  -6.261  0.00  0.00     0.162 HD
HETATM    9  O   UNK N   1      29.083  25.713  -7.207  0.00  0.00    -0.273 OA
BRANCH   7  10
HETATM   10  C   UNK N   1      29.462  23.174  -4.714  0.00  0.00     0.084 C 
HETATM   11  C   UNK N   1      29.966  21.777  -5.101  0.00  0.00     0.026 C 
HETATM   12  C   UNK N   1      31.496  21.667  -5.041  0.00  0.00     0.017 C 
HETATM   13  C   UNK N   1      32.114  22.278  -3.768  0.00  0.00     0.084 C 
HETATM   14  C   UNK N   1      31.053  22.730  -2.763  0.00  0.00     0.017 C 
HETATM   15  C   UNK N   1      30.118  23.728  -3.439  0.00  0.00     0.026 C 
BRANCH  13  16
HETATM   16  C   UNK N   1      33.111  21.333  -3.152  0.00  0.00     0.143 C 
HETATM   17  O   UNK N   1      34.056  20.934  -3.814  0.00  0.00    -0.650 OA
BRANCH  16  18
HETATM   18  O   UNK N   1      32.984  20.935  -1.870  0.00  0.00    -0.776 OA
HETATM   19  H   UNK N   1      33.198  21.457  -1.121  0.00  0.00     0.167 HD
ENDBRANCH  16  18
ENDBRANCH  13  16
ENDBRANCH   7  10
ENDBRANCH   1   6
BRANCH   1  20
HETATM   20  C   UNK N   1      27.482  26.051  -4.320  0.00  0.00     0.036 C 
BRANCH  20  21
HETATM   21  C   UNK N   1      27.186  27.550  -4.431  0.00  0.00     0.108 C 
BRANCH  21  22
HETATM   22  C   UNK N   1      26.212  27.995  -3.375  0.00  0.00     0.145 C 
HETATM   23  O   UNK N   1      25.757  27.183  -2.587  0.00  0.00    -0.650 OA
BRANCH  22  24
HETATM   24  O   UNK N   1      25.808  29.281  -3.308  0.00  0.00    -0.776 OA
HETATM   25  H   UNK N   1      26.132  29.974  -3.848  0.00  0.00     0.167 HD
ENDBRANCH  22  24
ENDBRANCH  21  22
BRANCH  21  26
HETATM   26  C   UNK N   1      28.493  28.333  -4.312  0.00  0.00     0.183 C 
BRANCH  26  27
HETATM   27  O   UNK N   1      28.866  28.550  -2.979  0.00  0.00    -0.388 OA
BRANCH  27  28
HETATM   28  C   UNK N   1      29.343  29.867  -2.913  0.00  0.00     0.193 C 
BRANCH  28  29
HETATM   29  C   UNK N   1      28.636  30.668  -1.824  0.00  0.00     0.193 C 
BRANCH  29  30
HETATM   30  O   UNK N   1      27.865  29.809  -1.036  0.00  0.00    -0.394 OA
HETATM   31  C   UNK N   1      28.384  29.939   0.252  0.00  0.00     0.201 C 
ENDBRANCH  29  30
ENDBRANCH  28  29
ENDBRANCH  27  28
ENDBRANCH  26  27
ENDBRANCH  21  26
ENDBRANCH  20  21
ENDBRANCH   1  20
TORSDOF 13
ENDMDL
MODEL 6
REMARK VINA RESULT:      -5.6      3.788      5.771
REMARK  13 active torsions:
REMARK  status: ('A' for Active; 'I' for Inactive)
REMARK    1  A    between atoms: C_3  and  C_1 
REMARK       I    between atoms: N_6  and  C_1 
REMARK    2  A    between atoms: C_2  and  C_4 
REMARK    3  A    between atoms: O_8  and  C_2 
REMARK    4  A    between atoms: C_5  and  C_3 
REMARK    5  A    between atoms: C_4  and  C_5 
REMARK    6  A    between atoms: C_4  and  C_19 
REMARK    7  A    between atoms: C_15  and  N_6 
REMARK    8  A    between atoms: C_9  and  C_7 
REMARK    9  A    between atoms: O_12  and  C_7 
REMARK   10  A    between atoms: O_22  and  C_19 
REMARK   11  A    between atoms: C_25  and  O_22 
REMARK   12  A    between atoms: O_23  and  C_24 
REMARK   13  A    between atoms: C_24  and  C_25 
ROOT
HETATM    1  C   UNK N   1      30.955  16.082   4.838  0.00  0.00     0.042 C 
HETATM    2  C   UNK N   1      31.850  14.893   4.515  0.00  0.00     0.019 C 
HETATM    3  C   UNK N   1      29.865  15.432   5.671  0.00  0.00     0.019 C 
HETATM    4  C   UNK N   1      30.914  13.728   4.283  0.00  0.00     0.001 C 
HETATM    5  C   UNK N   1      29.674  14.033   5.104  0.00  0.00     0.001 C 
ENDROOT
BRANCH   1   6
HETATM    6  C   UNK N   1      30.506  16.764   3.528  0.00  0.00     0.226 C 
HETATM    7  N   UNK N   1      29.290  17.357   3.334  0.00  0.00    -0.356 N 
HETATM    8  H   UNK N   1      29.117  17.729   2.438  0.00  0.00     0.162 HD
HETATM    9  O   UNK N   1      31.291  16.764   2.595  0.00  0.00    -0.273 OA
BRANCH   7  10
HETATM   10  C   UNK N   1      28.234  17.495   4.307  0.00  0.00     0.084 C 
HETATM   11  C   UNK N   1      28.134  18.947   4.793  0.00  0.00     0.026 C 
HETATM   12  C   UNK N   1      27.437  19.861   3.776  0.00  0.00     0.017 C 
HETATM   13  C   UNK N   1      26.150  19.259   3.179  0.00  0.00     0.084 C 
HETATM   14  C   UNK N   1      25.761  17.938   3.844  0.00  0.00     0.017 C 
HETATM   15  C   UNK N   1      26.920  16.955   3.721  0.00  0.00     0.026 C 
BRANCH  13  16
HETATM   16  C   UNK N   1      25.028  20.261   3.209  0.00  0.00     0.143 C 
HETATM   17  O   UNK N   1      24.498  20.545   4.272  0.00  0.00    -0.650 OA
BRANCH  16  18
HETATM   18  O   UNK N   1      24.611  20.865   2.079  0.00  0.00    -0.776 OA
HETATM   19  H   UNK N   1      23.806  21.335   1.985  0.00  0.00     0.167 HD
ENDBRANCH  16  18
ENDBRANCH  13  16
ENDBRANCH   7  10
ENDBRANCH   1   6
BRANCH   1  20
HETATM   20  C   UNK N   1      31.678  17.090   5.749  0.00  0.00     0.036 C 
BRANCH  20  21
HETATM   21  C   UNK N   1      32.640  16.461   6.762  0.00  0.00     0.108 C 
BRANCH  21  22
HETATM   22  C   UNK N   1      34.043  16.973   6.577  0.00  0.00     0.145 C 
HETATM   23  O   UNK N   1      34.907  16.231   6.140  0.00  0.00    -0.650 OA
BRANCH  22  24
HETATM   24  O   UNK N   1      34.367  18.237   6.920  0.00  0.00    -0.776 OA
HETATM   25  H   UNK N   1      35.188  18.501   7.285  0.00  0.00     0.167 HD
ENDBRANCH  22  24
ENDBRANCH  21  22
BRANCH  21  26
HETATM   26  C   UNK N   1      32.150  16.760   8.178  0.00  0.00     0.183 C 
BRANCH  26  27
HETATM   27  O   UNK N   1      31.786  18.103   8.345  0.00  0.00    -0.388 OA
BRANCH  27  28
HETATM   28  C   UNK N   1      30.617  18.100   9.120  0.00  0.00     0.193 C 
BRANCH  28  29
HETATM   29  C   UNK N   1      29.399  18.521   8.302  0.00  0.00     0.193 C 
BRANCH  29  30
HETATM   30  O   UNK N   1      28.236  18.060   8.924  0.00  0.00    -0.394 OA
HETATM   31  C   UNK N   1      28.678  17.189   9.919  0.00  0.00     0.201 C 
ENDBRANCH  29  30
ENDBRANCH  28  29
ENDBRANCH  27  28
ENDBRANCH  26  27
ENDBRANCH  21  26
ENDBRANCH  20  21
ENDBRANCH   1  20
TORSDOF 13
ENDMDL
MODEL 7
REMARK VINA RESULT:      -5.5      3.869      9.593
REMARK  13 active torsions:
REMARK  status: ('A' for Active; 'I' for Inactive)
REMARK    1  A    between atoms: C_3  and  C_1 
REMARK       I    between atoms: N_6  and  C_1 
REMARK    2  A    between atoms: C_2  and  C_4 
REMARK    3  A    between atoms: O_8  and  C_2 
REMARK    4  A    between atoms: C_5  and  C_3 
REMARK    5  A    between atoms: C_4  and  C_5 
REMARK    6  A    between atoms: C_4  and  C_19 
REMARK    7  A    between atoms: C_15  and  N_6 
REMARK    8  A    between atoms: C_9  and  C_7 
REMARK    9  A    between atoms: O_12  and  C_7 
REMARK   10  A    between atoms: O_22  and  C_19 
REMARK   11  A    between atoms: C_25  and  O_22 
REMARK   12  A    between atoms: O_23  and  C_24 
REMARK   13  A    between atoms: C_24  and  C_25 
ROOT
HETATM    1  C   UNK N   1      28.294  17.067   4.306  0.00  0.00     0.042 C 
HETATM    2  C   UNK N   1      27.070  16.835   3.430  0.00  0.00     0.019 C 
HETATM    3  C   UNK N   1      29.422  16.660   3.375  0.00  0.00     0.019 C 
HETATM    4  C   UNK N   1      27.368  15.583   2.635  0.00  0.00     0.001 C 
HETATM    5  C   UNK N   1      28.881  15.523   2.521  0.00  0.00     0.001 C 
ENDROOT
BRANCH   1   6
HETATM    6  C   UNK N   1      28.155  16.259   5.614  0.00  0.00     0.226 C 
HETATM    7  N   UNK N   1      29.198  15.887   6.416  0.00  0.00    -0.356 N 
HETATM    8  H   UNK N   1      28.975  15.345   7.208  0.00  0.00     0.162 HD
HETATM    9  O   UNK N   1      27.034  15.921   5.950  0.00  0.00    -0.273 OA
BRANCH   7  10
HETATM   10  C   UNK N   1      30.591  16.207   6.220  0.00  0.00     0.084 C 
HETATM   11  C   UNK N   1      31.068  17.208   7.280  0.00  0.00     0.026 C 
HETATM   12  C   UNK N   1      31.319  16.547   8.643  0.00  0.00     0.017 C 
HETATM   13  C   UNK N   1      32.109  15.227   8.557  0.00  0.00     0.084 C 
HETATM   14  C   UNK N   1      32.607  14.935   7.141  0.00  0.00     0.017 C 
HETATM   15  C   UNK N   1      31.417  14.911   6.188  0.00  0.00     0.026 C 
BRANCH  13  16
HETATM   16  C   UNK N   1      33.226  15.207   9.566  0.00  0.00     0.143 C 
HETATM   17  O   UNK N   1      34.379  15.364   9.196  0.00  0.00    -0.650 OA
BRANCH  16  18
HETATM   18  O   UNK N   1      32.968  15.037  10.878  0.00  0.00    -0.776 OA
HETATM   19  H   UNK N   1      32.969  15.720  11.520  0.00  0.00     0.167 HD
ENDBRANCH  16  18
ENDBRANCH  13  16
ENDBRANCH   7  10
ENDBRANCH   1   6
BRANCH   1  20
HETATM   20  C   UNK N   1      28.480  18.563   4.614  0.00  0.00     0.036 C 
BRANCH  20  21
HETATM   21  C   UNK N   1      27.227  19.269   5.142  0.00  0.00     0.108 C 
BRANCH  21  22
HETATM   22  C   UNK N   1      27.464  19.858   6.505  0.00  0.00     0.145 C 
HETATM   23  O   UNK N   1      28.145  19.256   7.318  0.00  0.00    -0.650 OA
BRANCH  22  24
HETATM   24  O   UNK N   1      26.902  21.035   6.855  0.00  0.00    -0.776 OA
HETATM   25  H   UNK N   1      25.986  21.226   6.811  0.00  0.00     0.167 HD
ENDBRANCH  22  24
ENDBRANCH  21  22
BRANCH  21  26
HETATM   26  C   UNK N   1      26.809  20.360   4.158  0.00  0.00     0.183 C 
BRANCH  26  27
HETATM   27  O   UNK N   1      25.438  20.641   4.222  0.00  0.00    -0.388 OA
BRANCH  27  28
HETATM   28  C   UNK N   1      24.840  19.923   3.175  0.00  0.00     0.193 C 
BRANCH  28  29
HETATM   29  C   UNK N   1      23.323  19.868   3.325  0.00  0.00     0.193 C 
BRANCH  29  30
HETATM   30  O   UNK N   1      22.765  21.073   2.892  0.00  0.00    -0.394 OA
HETATM   31  C   UNK N   1      21.477  20.743   2.469  0.00  0.00     0.201 C 
ENDBRANCH  29  30
ENDBRANCH  28  29
ENDBRANCH  27  28
ENDBRANCH  26  27
ENDBRANCH  21  26
ENDBRANCH  20  21
ENDBRANCH   1  20
TORSDOF 13
ENDMDL
MODEL 8
REMARK VINA RESULT:      -5.5      3.149      4.487
REMARK  13 active torsions:
REMARK  status: ('A' for Active; 'I' for Inactive)
REMARK    1  A    between atoms: C_3  and  C_1 
REMARK       I    between atoms: N_6  and  C_1 
REMARK    2  A    between atoms: C_2  and  C_4 
REMARK    3  A    between atoms: O_8  and  C_2 
REMARK    4  A    between atoms: C_5  and  C_3 
REMARK    5  A    between atoms: C_4  and  C_5 
REMARK    6  A    between atoms: C_4  and  C_19 
REMARK    7  A    between atoms: C_15  and  N_6 
REMARK    8  A    between atoms: C_9  and  C_7 
REMARK    9  A    between atoms: O_12  and  C_7 
REMARK   10  A    between atoms: O_22  and  C_19 
REMARK   11  A    between atoms: C_25  and  O_22 
REMARK   12  A    between atoms: O_23  and  C_24 
REMARK   13  A    between atoms: C_24  and  C_25 
ROOT
HETATM    1  C   UNK N   1      31.031  16.393   5.645  0.00  0.00     0.042 C 
HETATM    2  C   UNK N   1      31.826  15.191   5.152  0.00  0.00     0.019 C 
HETATM    3  C   UNK N   1      29.767  15.735   6.169  0.00  0.00     0.019 C 
HETATM    4  C   UNK N   1      30.809  14.250   4.545  0.00  0.00     0.001 C 
HETATM    5  C   UNK N   1      29.505  14.538   5.267  0.00  0.00     0.001 C 
ENDROOT
BRANCH   1   6
HETATM    6  C   UNK N   1      30.854  17.404   4.492  0.00  0.00     0.226 C 
HETATM    7  N   UNK N   1      29.690  18.060   4.201  0.00  0.00    -0.356 N 
HETATM    8  H   UNK N   1      29.703  18.656   3.417  0.00  0.00     0.162 HD
HETATM    9  O   UNK N   1      31.821  17.626   3.784  0.00  0.00    -0.273 OA
BRANCH   7  10
HETATM   10  C   UNK N   1      28.446  17.967   4.925  0.00  0.00     0.084 C 
HETATM   11  C   UNK N   1      27.960  19.362   5.343  0.00  0.00     0.026 C 
HETATM   12  C   UNK N   1      27.328  20.137   4.179  0.00  0.00     0.017 C 
HETATM   13  C   UNK N   1      26.342  19.303   3.338  0.00  0.00     0.084 C 
HETATM   14  C   UNK N   1      26.089  17.919   3.938  0.00  0.00     0.017 C 
HETATM   15  C   UNK N   1      27.420  17.188   4.087  0.00  0.00     0.026 C 
BRANCH  13  16
HETATM   16  C   UNK N   1      25.064  20.062   3.105  0.00  0.00     0.143 C 
HETATM   17  O   UNK N   1      24.109  19.881   3.843  0.00  0.00    -0.650 OA
BRANCH  16  18
HETATM   18  O   UNK N   1      24.965  20.955   2.101  0.00  0.00    -0.776 OA
HETATM   19  H   UNK N   1      25.274  21.840   2.135  0.00  0.00     0.167 HD
ENDBRANCH  16  18
ENDBRANCH  13  16
ENDBRANCH   7  10
ENDBRANCH   1   6
BRANCH   1  20
HETATM   20  C   UNK N   1      31.723  17.061   6.846  0.00  0.00     0.036 C 
BRANCH  20  21
HETATM   21  C   UNK N   1      32.985  16.344   7.338  0.00  0.00     0.108 C 
BRANCH  21  22
HETATM   22  C   UNK N   1      34.231  17.031   6.850  0.00  0.00     0.145 C 
HETATM   23  O   UNK N   1      35.027  16.424   6.154  0.00  0.00    -0.650 OA
BRANCH  22  24
HETATM   24  O   UNK N   1      34.498  18.306   7.202  0.00  0.00    -0.776 OA
HETATM   25  H   UNK N   1      34.285  19.061   6.690  0.00  0.00     0.167 HD
ENDBRANCH  22  24
ENDBRANCH  21  22
BRANCH  21  26
HETATM   26  C   UNK N   1      32.972  16.291   8.865  0.00  0.00     0.183 C 
BRANCH  26  27
HETATM   27  O   UNK N   1      34.163  16.771   9.426  0.00  0.00    -0.388 OA
BRANCH  27  28
HETATM   28  C   UNK N   1      34.693  15.718  10.186  0.00  0.00     0.193 C 
BRANCH  28  29
HETATM   29  C   UNK N   1      35.696  16.219  11.220  0.00  0.00     0.193 C 
BRANCH  29  30
HETATM   30  O   UNK N   1      36.009  15.187  12.108  0.00  0.00    -0.394 OA
HETATM   31  C   UNK N   1      35.039  14.210  11.883  0.00  0.00     0.201 C 
ENDBRANCH  29  30
ENDBRANCH  28  29
ENDBRANCH  27  28
ENDBRANCH  26  27
ENDBRANCH  21  26
ENDBRANCH  20  21
ENDBRANCH   1  20
TORSDOF 13
ENDMDL
MODEL 9
REMARK VINA RESULT:      -5.5     14.825     18.623
REMARK  13 active torsions:
REMARK  status: ('A' for Active; 'I' for Inactive)
REMARK    1  A    between atoms: C_3  and  C_1 
REMARK       I    between atoms: N_6  and  C_1 
REMARK    2  A    between atoms: C_2  and  C_4 
REMARK    3  A    between atoms: O_8  and  C_2 
REMARK    4  A    between atoms: C_5  and  C_3 
REMARK    5  A    between atoms: C_4  and  C_5 
REMARK    6  A    between atoms: C_4  and  C_19 
REMARK    7  A    between atoms: C_15  and  N_6 
REMARK    8  A    between atoms: C_9  and  C_7 
REMARK    9  A    between atoms: O_12  and  C_7 
REMARK   10  A    between atoms: O_22  and  C_19 
REMARK   11  A    between atoms: C_25  and  O_22 
REMARK   12  A    between atoms: O_23  and  C_24 
REMARK   13  A    between atoms: C_24  and  C_25 
ROOT
HETATM    1  C   UNK N   1      26.976  25.141  -6.520  0.00  0.00     0.042 C 
HETATM    2  C   UNK N   1      26.193  26.363  -6.980  0.00  0.00     0.019 C 
HETATM    3  C   UNK N   1      26.045  24.553  -5.475  0.00  0.00     0.019 C 
HETATM    4  C   UNK N   1      25.534  26.919  -5.737  0.00  0.00     0.001 C 
HETATM    5  C   UNK N   1      25.355  25.733  -4.807  0.00  0.00     0.001 C 
ENDROOT
BRANCH   1   6
HETATM    6  C   UNK N   1      28.373  25.576  -6.031  0.00  0.00     0.226 C 
HETATM    7  N   UNK N   1      29.167  24.847  -5.189  0.00  0.00    -0.356 N 
HETATM    8  H   UNK N   1      30.026  25.254  -4.928  0.00  0.00     0.162 HD
HETATM    9  O   UNK N   1      28.795  26.652  -6.416  0.00  0.00    -0.273 OA
BRANCH   7  10
HETATM   10  C   UNK N   1      28.875  23.545  -4.644  0.00  0.00     0.084 C 
HETATM   11  C   UNK N   1      29.608  22.453  -5.435  0.00  0.00     0.026 C 
HETATM   12  C   UNK N   1      31.098  22.367  -5.078  0.00  0.00     0.017 C 
HETATM   13  C   UNK N   1      31.378  22.405  -3.562  0.00  0.00     0.084 C 
HETATM   14  C   UNK N   1      30.094  22.367  -2.731  0.00  0.00     0.017 C 
HETATM   15  C   UNK N   1      29.198  23.531  -3.142  0.00  0.00     0.026 C 
BRANCH  13  16
HETATM   16  C   UNK N   1      32.340  21.316  -3.170  0.00  0.00     0.143 C 
HETATM   17  O   UNK N   1      32.709  20.505  -4.003  0.00  0.00    -0.650 OA
BRANCH  16  18
HETATM   18  O   UNK N   1      32.815  21.237  -1.910  0.00  0.00    -0.776 OA
HETATM   19  H   UNK N   1      32.341  21.485  -1.140  0.00  0.00     0.167 HD
ENDBRANCH  16  18
ENDBRANCH  13  16
ENDBRANCH   7  10
ENDBRANCH   1   6
BRANCH   1  20
HETATM   20  C   UNK N   1      27.099  24.103  -7.650  0.00  0.00     0.036 C 
BRANCH  20  21
HETATM   21  C   UNK N   1      26.203  22.872  -7.489  0.00  0.00     0.108 C 
BRANCH  21  22
HETATM   22  C   UNK N   1      24.979  22.967  -8.359  0.00  0.00     0.145 C 
HETATM   23  O   UNK N   1      24.848  23.908  -9.123  0.00  0.00    -0.650 OA
BRANCH  22  24
HETATM   24  O   UNK N   1      24.003  22.038  -8.281  0.00  0.00    -0.776 OA
HETATM   25  H   UNK N   1      23.138  22.193  -7.959  0.00  0.00     0.167 HD
ENDBRANCH  22  24
ENDBRANCH  21  22
BRANCH  21  26
HETATM   26  C   UNK N   1      27.002  21.616  -7.835  0.00  0.00     0.183 C 
BRANCH  26  27
HETATM   27  O   UNK N   1      26.791  21.195  -9.154  0.00  0.00    -0.388 OA
BRANCH  27  28
HETATM   28  C   UNK N   1      28.056  21.146  -9.759  0.00  0.00     0.193 C 
BRANCH  28  29
HETATM   29  C   UNK N   1      29.128  20.674  -8.783  0.00  0.00     0.193 C 
BRANCH  29  30
HETATM   30  O   UNK N   1      29.464  19.346  -9.062  0.00  0.00    -0.394 OA
HETATM   31  C   UNK N   1      29.599  18.738  -7.814  0.00  0.00     0.201 C 
ENDBRANCH  29  30
ENDBRANCH  28  29
ENDBRANCH  27  28
ENDBRANCH  26  27
ENDBRANCH  21  26
ENDBRANCH  20  21
ENDBRANCH   1  20
TORSDOF 13
ENDMDL
