REMARK  12 active torsions:
REMARK  status: ('A' for Active; 'I' for Inactive)
REMARK    1  A    between atoms: C_34  and  C_16 
REMARK    2  A    between atoms: C_33  and  C_17 
REMARK    3  A    between atoms: C_20  and  N_35 
REMARK    4  A    between atoms: O_47  and  C_21 
REMARK    5  A    between atoms: C_22  and  O_49 
REMARK    6  A    between atoms: C_23  and  O_49 
REMARK    7  A    between atoms: C_28  and  O_40 
REMARK    8  A    between atoms: O_42  and  C_30 
REMARK    9  A    between atoms: O_44  and  C_32 
REMARK   10  A    between atoms: C_33  and  O_45 
REMARK   11  A    between atoms: C_34  and  O_46 
REMARK   12  A    between atoms: N_36  and  N_38 
ROOT
HETATM    1  C   UNK N   1      -6.951  -0.230  -0.182  0.00  0.00     0.004 A 
HETATM    2  C   UNK N   1      -5.733  -0.891  -0.109  0.00  0.00     0.017 A 
HETATM    3  C   UNK N   1      -6.984   1.159  -0.203  0.00  0.00     0.038 A 
HETATM    4  C   UNK N   1       1.628  -0.987   1.106  0.00  0.00     0.086 C 
HETATM    5  C   UNK N   1       2.886   1.018   0.159  0.00  0.00     0.081 C 
HETATM    6  C   UNK N   1      -4.530  -0.174  -0.081  0.00  0.00     0.032 A 
HETATM    7  C   UNK N   1       0.403  -0.195   0.721  0.00  0.00    -0.009 A 
HETATM    8  C   UNK N   1      -5.805   1.912  -0.163  0.00  0.00     0.083 A 
HETATM    9  C   UNK N   1       1.814   1.858   0.857  0.00  0.00     0.164 C 
HETATM   10  C   UNK N   1      -4.539   1.239  -0.130  0.00  0.00     0.062 A 
HETATM   11  C   UNK N   1       0.461   1.207   0.599  0.00  0.00     0.014 A 
HETATM   12  C   UNK N   1      -1.975  -0.187   0.210  0.00  0.00     0.066 A 
HETATM   13  C   UNK N   1      -1.948   1.221   0.104  0.00  0.00     0.066 A 
HETATM   14  C   UNK N   1      -3.261  -0.918   0.030  0.00  0.00     0.197 C 
HETATM   15  C   UNK N   1      -0.792  -0.884   0.514  0.00  0.00     0.088 A 
HETATM   16  C   UNK N   1      -3.223   1.958  -0.159  0.00  0.00     0.200 C 
HETATM   17  C   UNK N   1      -0.720   1.917   0.283  0.00  0.00     0.090 A 
HETATM   18  C   UNK N   1       3.002  -0.395   0.737  0.00  0.00     0.103 C 
HETATM   19  O   UNK N   1      -3.285  -2.141   0.027  0.00  0.00    -0.286 OA
HETATM   20  O   UNK N   1      -3.183   3.150  -0.415  0.00  0.00    -0.286 OA
ENDROOT
BRANCH  18  21
HETATM   21  C   UNK N   1       3.830  -1.229  -0.244  0.00  0.00     0.034 C 
HETATM   22  C   UNK N   1       5.224  -0.775  -0.535  0.00  0.00     0.068 C 
HETATM   23  N   UNK N   1       3.433  -2.324  -0.813  0.00  0.00    -0.304 N 
ATOM     24  HN  UNK N   1       4.104  -2.831  -1.391  1.00  0.00     0.186 HD
BRANCH  23  25
HETATM   25  N   UNK N   1       2.170  -2.845  -0.688  0.00  0.00    -0.280 N 
HETATM   26  C   UNK N   1       1.935  -4.107  -0.513  0.00  0.00     0.165 C 
ATOM     27  HN  UNK N   1       1.376  -2.206  -0.734  1.00  0.00     0.189 HD
BRANCH  26  28
HETATM   28  C   UNK N   1       3.013  -5.127  -0.328  0.00  0.00     0.016 A 
HETATM   29  C   UNK N   1       4.374  -4.788  -0.266  0.00  0.00     0.016 A 
HETATM   30  C   UNK N   1       5.347  -5.767  -0.058  0.00  0.00     0.001 A 
HETATM   31  C   UNK N   1       4.970  -7.102   0.093  0.00  0.00     0.000 A 
HETATM   32  C   UNK N   1       3.620  -7.456   0.036  0.00  0.00     0.001 A 
HETATM   33  C   UNK N   1       2.647  -6.473  -0.169  0.00  0.00     0.016 A 
ENDBRANCH  26  28
BRANCH  26  34
HETATM   34  O   UNK N   1       0.653  -4.516  -0.464  0.00  0.00    -0.344 OA
HETATM   35  H   UNK N   1      -0.039  -3.886  -0.430  0.00  0.00     0.219 HD
ENDBRANCH  26  34
ENDBRANCH  23  25
ENDBRANCH  18  21
BRANCH  18  36
HETATM   36  O   UNK N   1       3.723  -0.312   1.931  0.00  0.00    -0.383 OA
HETATM   37  H   UNK N   1       4.023  -0.717   2.760  0.00  0.00     0.211 HD
ENDBRANCH  18  36
BRANCH   9  38
HETATM   38  O   UNK N   1       1.924   3.265   0.638  0.00  0.00    -0.351 OA
BRANCH  38  39
HETATM   39  C   UNK N   1       2.117   3.697  -0.709  0.00  0.00     0.263 C 
HETATM   40  C   UNK N   1       3.441   3.236  -1.368  0.00  0.00     0.088 C 
HETATM   41  C   UNK N   1       4.693   3.867  -0.762  0.00  0.00     0.110 C 
HETATM   42  C   UNK N   1       4.318   4.954   0.247  0.00  0.00     0.169 C 
HETATM   43  C   UNK N   1       3.192   5.836  -0.347  0.00  0.00     0.151 C 
HETATM   44  C   UNK N   1       3.700   6.627  -1.546  0.00  0.00     0.042 C 
HETATM   45  O   UNK N   1       2.013   5.119  -0.745  0.00  0.00    -0.354 OA
BRANCH  41  46
HETATM   46  N   UNK N   1       5.513   2.848  -0.128  0.00  0.00    -0.423 N 
HETATM   47  H   UNK N   1       5.182   1.992   0.317  0.00  0.00     0.150 HD
HETATM   48  H   UNK N   1       6.521   3.005  -0.128  0.00  0.00     0.150 HD
ENDBRANCH  41  46
BRANCH  42  49
HETATM   49  O   UNK N   1       5.441   5.715   0.586  0.00  0.00    -0.391 OA
HETATM   50  H   UNK N   1       6.288   5.304   0.820  0.00  0.00     0.210 HD
ENDBRANCH  42  49
ENDBRANCH  38  39
ENDBRANCH   9  38
BRANCH  15  51
HETATM   51  O   UNK N   1      -0.802  -2.226   0.639  0.00  0.00    -0.359 OA
HETATM   52  H   UNK N   1      -1.614  -2.686   0.725  0.00  0.00     0.217 HD
ENDBRANCH  15  51
BRANCH  17  53
HETATM   53  O   UNK N   1      -0.691   3.260   0.201  0.00  0.00    -0.359 OA
HETATM   54  H   UNK N   1       0.128   3.710   0.144  0.00  0.00     0.217 HD
ENDBRANCH  17  53
BRANCH   8  55
HETATM   55  O   UNK N   1      -5.943   3.259  -0.128  0.00  0.00    -0.355 OA
HETATM   56  C   UNK N   1      -5.338   4.050   0.822  0.00  0.00     0.210 C 
ENDBRANCH   8  55
TORSDOF 12
