REMARK  9 active torsions:
REMARK  status: ('A' for Active; 'I' for Inactive)
REMARK    1  A    between atoms: C_1  and  N_16 
REMARK    2  A    between atoms: C_5  and  C_10 
REMARK    3  A    between atoms: C_6  and  C_22 
REMARK    4  A    between atoms: C_10  and  O_12 
REMARK    5  A    between atoms: C_13  and  C_14 
REMARK       I    between atoms: C_13  and  N_16 
REMARK    6  A    between atoms: C_14  and  C_17 
REMARK    7  A    between atoms: C_23  and  C_24 
REMARK    8  A    between atoms: C_25  and  N_33 
REMARK    9  A    between atoms: C_27  and  N_30 
ROOT
HETATM    1  C   UNK N   1      -2.011   1.965  -0.596  0.00  0.00     0.199 A 
HETATM    2  C   UNK N   1      -2.072   0.510  -0.364  0.00  0.00     0.227 A 
HETATM    3  O   UNK N   1      -2.256  -0.367  -1.197  0.00  0.00    -0.277 OA
HETATM    4  N   UNK N   1      -1.275   0.446   0.686  0.00  0.00    -0.220 NA
HETATM    5  C   UNK N   1      -0.271  -0.578   0.729  0.00  0.00     0.173 C 
HETATM    6  C   UNK N   1       0.990  -0.195   0.473  0.00  0.00     0.046 C 
HETATM    7  C   UNK N   1       1.443   1.121   1.033  0.00  0.00     0.086 C 
HETATM    8  S   UNK N   1       0.542   2.518   0.333  0.00  0.00    -0.145 SA
HETATM    9  C   UNK N   1      -1.126   1.889   0.737  0.00  0.00     0.160 A 
ENDROOT
BRANCH   6  10
HETATM   10  C   UNK N   1       1.313  -0.368  -0.971  0.00  0.00    -0.018 C 
HETATM   11  C   UNK N   1       2.494  -0.252  -1.579  0.00  0.00     0.010 C 
BRANCH  11  12
HETATM   12  C   UNK N   1       3.762  -0.492  -0.907  0.00  0.00    -0.003 A 
HETATM   13  C   UNK N   1       4.113  -1.798  -0.469  0.00  0.00     0.115 A 
HETATM   14  C   UNK N   1       5.360  -1.986   0.129  0.00  0.00     0.073 A 
HETATM   15  C   UNK N   1       6.262  -0.931   0.280  0.00  0.00     0.105 A 
HETATM   16  C   UNK N   1       5.908   0.350  -0.167  0.00  0.00     0.037 A 
HETATM   17  C   UNK N   1       4.663   0.567  -0.759  0.00  0.00     0.016 A 
BRANCH  13  18
HETATM   18  N   UNK N   1       3.273  -2.944  -0.675  0.00  0.00    -0.115 N 
HETATM   19  O   UNK N   1       2.335  -2.901  -1.410  0.00  0.00    -0.532 OA
HETATM   20  O   UNK N   1       3.621  -4.104  -0.161  0.00  0.00    -0.532 OA
ENDBRANCH  13  18
BRANCH  15  21
HETATM   21  N   UNK N   1       7.543  -1.176   0.843  0.00  0.00    -0.116 N 
HETATM   22  O   UNK N   1       8.338  -0.294   0.945  0.00  0.00    -0.532 OA
HETATM   23  O   UNK N   1       7.878  -2.397   1.208  0.00  0.00    -0.532 OA
ENDBRANCH  15  21
ENDBRANCH  11  12
ENDBRANCH   6  10
BRANCH   5  24
HETATM   24  C   UNK N   1      -0.668  -2.002   0.483  0.00  0.00     0.159 C 
HETATM   25  O   UNK N   1      -1.841  -2.335   0.545  0.00  0.00    -0.649 OA
BRANCH  24  26
HETATM   26  O   UNK N   1       0.275  -2.954   0.350  0.00  0.00    -0.775 OA
HETATM   27  H   UNK N   1       0.029  -3.853   0.258  0.00  0.00     0.167 HD
ENDBRANCH  24  26
ENDBRANCH   5  24
BRANCH   1  28
HETATM   28  N   UNK N   1      -3.314   2.550  -0.464  0.00  0.00    -0.346 N 
HETATM   29  C   UNK N   1      -4.065   2.739  -1.581  0.00  0.00     0.223 C 
HETATM   30  O   UNK N   1      -3.645   2.400  -2.680  0.00  0.00    -0.273 OA
HETATM   31  H   UNK N   1      -3.658   2.809   0.421  0.00  0.00     0.163 HD
BRANCH  29  32
HETATM   32  C   UNK N   1      -5.419   3.349  -1.483  0.00  0.00     0.148 C 
BRANCH  32  33
HETATM   33  C   UNK N   1      -6.266   2.579  -0.535  0.00  0.00    -0.009 A 
HETATM   34  C   UNK N   1      -6.884   3.096   0.596  0.00  0.00     0.015 A 
HETATM   35  C   UNK N   1      -7.610   2.111   1.323  0.00  0.00     0.008 A 
HETATM   36  C   UNK N   1      -7.554   0.826   0.761  0.00  0.00     0.050 A 
HETATM   37  S   UNK N   1      -6.619   0.966  -0.602  0.00  0.00    -0.106 SA
ENDBRANCH  32  33
ENDBRANCH  29  32
ENDBRANCH   1  28
TORSDOF 9
