MODEL 1
REMARK VINA RESULT:      -4.9      0.000      0.000
REMARK  15 active torsions:
REMARK  status: ('A' for Active; 'I' for Inactive)
REMARK    1  A    between atoms: C_5  and  O_7 
REMARK    2  A    between atoms: O_7  and  C_8 
REMARK    3  A    between atoms: C_8  and  C_9 
REMARK    4  A    between atoms: C_9  and  N_10 
REMARK    5  A    between atoms: N_10  and  C_11 
REMARK    6  A    between atoms: C_11  and  C_14 
REMARK    7  A    between atoms: C_14  and  C_15 
REMARK    8  A    between atoms: C_15  and  C_16 
REMARK    9  A    between atoms: C_16  and  C_17 
REMARK   10  A    between atoms: C_17  and  C_18 
REMARK   11  A    between atoms: C_18  and  C_19 
REMARK   12  A    between atoms: C_19  and  C_20 
REMARK   13  A    between atoms: C_20  and  C_21 
REMARK   14  A    between atoms: C_21  and  C_22 
REMARK   15  A    between atoms: C_22  and  C_23 
ROOT
HETATM    1  N   UNK N   1      26.249  22.639  -7.956  0.00  0.00    -0.073 N 
HETATM    2  C   UNK N   1      25.410  21.439  -7.928  0.00  0.00     0.272 C 
HETATM    3  C   UNK N   1      27.255  22.496  -9.001  0.00  0.00     0.272 C 
ENDROOT
BRANCH   1   4
HETATM    4  C   UNK N   1      25.449  23.842  -8.210  0.00  0.00     0.263 C 
BRANCH   4   5
HETATM    5  C   UNK N   1      26.286  25.056  -8.630  0.00  0.00     0.203 C 
BRANCH   5   6
HETATM    6  O   UNK N   1      25.683  26.237  -8.234  0.00  0.00    -0.349 OA
BRANCH   6   7
HETATM    7  C   UNK N   1      25.965  26.898  -7.080  0.00  0.00     0.068 A 
HETATM    8  C   UNK N   1      27.220  27.501  -6.931  0.00  0.00     0.037 A 
HETATM    9  C   UNK N   1      27.539  28.185  -5.753  0.00  0.00     0.003 A 
HETATM   10  C   UNK N   1      26.608  28.265  -4.713  0.00  0.00     0.000 A 
HETATM   11  C   UNK N   1      25.355  27.666  -4.852  0.00  0.00     0.003 A 
HETATM   12  C   UNK N   1      25.034  26.990  -6.031  0.00  0.00     0.037 A 
ENDBRANCH   6   7
ENDBRANCH   5   6
ENDBRANCH   4   5
ENDBRANCH   1   4
BRANCH   1  13
HETATM   13  C   UNK N   1      26.913  22.843  -6.664  0.00  0.00     0.236 C 
BRANCH  13  14
HETATM   14  C   UNK N   1      25.992  23.431  -5.592  0.00  0.00     0.028 C 
BRANCH  14  15
HETATM   15  C   UNK N   1      26.783  24.196  -4.545  0.00  0.00     0.002 C 
BRANCH  15  16
HETATM   16  C   UNK N   1      28.223  24.419  -4.993  0.00  0.00     0.000 C 
BRANCH  16  17
HETATM   17  C   UNK N   1      28.987  25.238  -3.962  0.00  0.00     0.000 C 
BRANCH  17  18
HETATM   18  C   UNK N   1      30.280  24.546  -3.590  0.00  0.00     0.000 C 
BRANCH  18  19
HETATM   19  C   UNK N   1      29.976  23.434  -2.610  0.00  0.00     0.000 C 
BRANCH  19  20
HETATM   20  C   UNK N   1      30.976  22.315  -2.778  0.00  0.00     0.000 C 
BRANCH  20  21
HETATM   21  C   UNK N   1      30.354  21.245  -3.645  0.00  0.00     0.000 C 
BRANCH  21  22
HETATM   22  C   UNK N   1      31.439  20.398  -4.272  0.00  0.00    -0.000 C 
BRANCH  22  23
HETATM   23  C   UNK N   1      31.355  20.528  -5.777  0.00  0.00    -0.005 C 
HETATM   24  C   UNK N   1      29.969  20.992  -6.168  0.00  0.00     0.005 C 
ENDBRANCH  22  23
ENDBRANCH  21  22
ENDBRANCH  20  21
ENDBRANCH  19  20
ENDBRANCH  18  19
ENDBRANCH  17  18
ENDBRANCH  16  17
ENDBRANCH  15  16
ENDBRANCH  14  15
ENDBRANCH  13  14
ENDBRANCH   1  13
TORSDOF 15
ENDMDL
MODEL 2
REMARK VINA RESULT:      -4.7      1.061      2.947
REMARK  15 active torsions:
REMARK  status: ('A' for Active; 'I' for Inactive)
REMARK    1  A    between atoms: C_5  and  O_7 
REMARK    2  A    between atoms: O_7  and  C_8 
REMARK    3  A    between atoms: C_8  and  C_9 
REMARK    4  A    between atoms: C_9  and  N_10 
REMARK    5  A    between atoms: N_10  and  C_11 
REMARK    6  A    between atoms: C_11  and  C_14 
REMARK    7  A    between atoms: C_14  and  C_15 
REMARK    8  A    between atoms: C_15  and  C_16 
REMARK    9  A    between atoms: C_16  and  C_17 
REMARK   10  A    between atoms: C_17  and  C_18 
REMARK   11  A    between atoms: C_18  and  C_19 
REMARK   12  A    between atoms: C_19  and  C_20 
REMARK   13  A    between atoms: C_20  and  C_21 
REMARK   14  A    between atoms: C_21  and  C_22 
REMARK   15  A    between atoms: C_22  and  C_23 
ROOT
HETATM    1  N   UNK N   1      27.049  23.129  -8.361  0.00  0.00    -0.073 N 
HETATM    2  C   UNK N   1      25.733  22.995  -8.986  0.00  0.00     0.272 C 
HETATM    3  C   UNK N   1      28.077  23.078  -9.392  0.00  0.00     0.272 C 
ENDROOT
BRANCH   1   4
HETATM    4  C   UNK N   1      27.162  24.392  -7.622  0.00  0.00     0.263 C 
BRANCH   4   5
HETATM    5  C   UNK N   1      25.837  24.861  -7.008  0.00  0.00     0.203 C 
BRANCH   5   6
HETATM    6  O   UNK N   1      25.665  26.223  -7.176  0.00  0.00    -0.349 OA
BRANCH   6   7
HETATM    7  C   UNK N   1      25.990  27.162  -6.249  0.00  0.00     0.068 A 
HETATM    8  C   UNK N   1      27.079  28.007  -6.489  0.00  0.00     0.037 A 
HETATM    9  C   UNK N   1      27.439  28.980  -5.551  0.00  0.00     0.003 A 
HETATM   10  C   UNK N   1      26.715  29.111  -4.362  0.00  0.00     0.000 A 
HETATM   11  C   UNK N   1      25.627  28.273  -4.112  0.00  0.00     0.003 A 
HETATM   12  C   UNK N   1      25.264  27.307  -5.053  0.00  0.00     0.037 A 
ENDBRANCH   6   7
ENDBRANCH   5   6
ENDBRANCH   4   5
ENDBRANCH   1   4
BRANCH   1  13
HETATM   13  C   UNK N   1      27.279  22.054  -7.389  0.00  0.00     0.236 C 
BRANCH  13  14
HETATM   14  C   UNK N   1      28.663  21.412  -7.507  0.00  0.00     0.028 C 
BRANCH  14  15
HETATM   15  C   UNK N   1      29.442  21.542  -6.209  0.00  0.00     0.002 C 
BRANCH  15  16
HETATM   16  C   UNK N   1      30.525  20.476  -6.103  0.00  0.00     0.000 C 
BRANCH  16  17
HETATM   17  C   UNK N   1      31.310  20.630  -4.808  0.00  0.00     0.000 C 
BRANCH  17  18
HETATM   18  C   UNK N   1      30.416  21.154  -3.707  0.00  0.00     0.000 C 
BRANCH  18  19
HETATM   19  C   UNK N   1      31.197  22.142  -2.869  0.00  0.00     0.000 C 
BRANCH  19  20
HETATM   20  C   UNK N   1      31.524  23.367  -3.691  0.00  0.00     0.000 C 
BRANCH  20  21
HETATM   21  C   UNK N   1      30.522  24.447  -3.357  0.00  0.00     0.000 C 
BRANCH  21  22
HETATM   22  C   UNK N   1      29.672  24.751  -4.569  0.00  0.00    -0.000 C 
BRANCH  22  23
HETATM   23  C   UNK N   1      28.355  25.340  -4.111  0.00  0.00    -0.005 C 
HETATM   24  C   UNK N   1      27.433  24.228  -3.661  0.00  0.00     0.005 C 
ENDBRANCH  22  23
ENDBRANCH  21  22
ENDBRANCH  20  21
ENDBRANCH  19  20
ENDBRANCH  18  19
ENDBRANCH  17  18
ENDBRANCH  16  17
ENDBRANCH  15  16
ENDBRANCH  14  15
ENDBRANCH  13  14
ENDBRANCH   1  13
TORSDOF 15
ENDMDL
MODEL 3
REMARK VINA RESULT:      -4.6      1.378      3.124
REMARK  15 active torsions:
REMARK  status: ('A' for Active; 'I' for Inactive)
REMARK    1  A    between atoms: C_5  and  O_7 
REMARK    2  A    between atoms: O_7  and  C_8 
REMARK    3  A    between atoms: C_8  and  C_9 
REMARK    4  A    between atoms: C_9  and  N_10 
REMARK    5  A    between atoms: N_10  and  C_11 
REMARK    6  A    between atoms: C_11  and  C_14 
REMARK    7  A    between atoms: C_14  and  C_15 
REMARK    8  A    between atoms: C_15  and  C_16 
REMARK    9  A    between atoms: C_16  and  C_17 
REMARK   10  A    between atoms: C_17  and  C_18 
REMARK   11  A    between atoms: C_18  and  C_19 
REMARK   12  A    between atoms: C_19  and  C_20 
REMARK   13  A    between atoms: C_20  and  C_21 
REMARK   14  A    between atoms: C_21  and  C_22 
REMARK   15  A    between atoms: C_22  and  C_23 
ROOT
HETATM    1  N   UNK N   1      26.691  22.264  -8.690  0.00  0.00    -0.073 N 
HETATM    2  C   UNK N   1      25.886  21.061  -8.909  0.00  0.00     0.272 C 
HETATM    3  C   UNK N   1      26.396  23.235  -9.736  0.00  0.00     0.272 C 
ENDROOT
BRANCH   1   4
HETATM    4  C   UNK N   1      26.412  22.860  -7.379  0.00  0.00     0.263 C 
BRANCH   4   5
HETATM    5  C   UNK N   1      26.082  24.356  -7.444  0.00  0.00     0.203 C 
BRANCH   5   6
HETATM    6  O   UNK N   1      25.214  24.720  -6.431  0.00  0.00    -0.349 OA
BRANCH   6   7
HETATM    7  C   UNK N   1      25.478  25.666  -5.491  0.00  0.00     0.068 A 
HETATM    8  C   UNK N   1      26.184  25.302  -4.338  0.00  0.00     0.037 A 
HETATM    9  C   UNK N   1      26.467  26.253  -3.353  0.00  0.00     0.003 A 
HETATM   10  C   UNK N   1      26.040  27.575  -3.509  0.00  0.00     0.000 A 
HETATM   11  C   UNK N   1      25.335  27.949  -4.655  0.00  0.00     0.003 A 
HETATM   12  C   UNK N   1      25.060  27.000  -5.642  0.00  0.00     0.037 A 
ENDBRANCH   6   7
ENDBRANCH   5   6
ENDBRANCH   4   5
ENDBRANCH   1   4
BRANCH   1  13
HETATM   13  C   UNK N   1      28.123  21.946  -8.709  0.00  0.00     0.236 C 
BRANCH  13  14
HETATM   14  C   UNK N   1      28.654  21.449  -7.362  0.00  0.00     0.028 C 
BRANCH  14  15
HETATM   15  C   UNK N   1      29.574  20.254  -7.541  0.00  0.00     0.002 C 
BRANCH  15  16
HETATM   16  C   UNK N   1      30.412  20.009  -6.292  0.00  0.00     0.000 C 
BRANCH  16  17
HETATM   17  C   UNK N   1      30.500  21.270  -5.444  0.00  0.00     0.000 C 
BRANCH  17  18
HETATM   18  C   UNK N   1      31.264  20.997  -4.168  0.00  0.00     0.000 C 
BRANCH  18  19
HETATM   19  C   UNK N   1      31.162  22.208  -3.267  0.00  0.00     0.000 C 
BRANCH  19  20
HETATM   20  C   UNK N   1      29.726  22.415  -2.846  0.00  0.00     0.000 C 
BRANCH  20  21
HETATM   21  C   UNK N   1      29.362  23.862  -3.086  0.00  0.00     0.000 C 
BRANCH  21  22
HETATM   22  C   UNK N   1      30.596  24.643  -3.473  0.00  0.00    -0.000 C 
BRANCH  22  23
HETATM   23  C   UNK N   1      30.233  25.632  -4.559  0.00  0.00    -0.005 C 
HETATM   24  C   UNK N   1      29.558  24.903  -5.700  0.00  0.00     0.005 C 
ENDBRANCH  22  23
ENDBRANCH  21  22
ENDBRANCH  20  21
ENDBRANCH  19  20
ENDBRANCH  18  19
ENDBRANCH  17  18
ENDBRANCH  16  17
ENDBRANCH  15  16
ENDBRANCH  14  15
ENDBRANCH  13  14
ENDBRANCH   1  13
TORSDOF 15
ENDMDL
MODEL 4
REMARK VINA RESULT:      -4.6      2.825      5.504
REMARK  15 active torsions:
REMARK  status: ('A' for Active; 'I' for Inactive)
REMARK    1  A    between atoms: C_5  and  O_7 
REMARK    2  A    between atoms: O_7  and  C_8 
REMARK    3  A    between atoms: C_8  and  C_9 
REMARK    4  A    between atoms: C_9  and  N_10 
REMARK    5  A    between atoms: N_10  and  C_11 
REMARK    6  A    between atoms: C_11  and  C_14 
REMARK    7  A    between atoms: C_14  and  C_15 
REMARK    8  A    between atoms: C_15  and  C_16 
REMARK    9  A    between atoms: C_16  and  C_17 
REMARK   10  A    between atoms: C_17  and  C_18 
REMARK   11  A    between atoms: C_18  and  C_19 
REMARK   12  A    between atoms: C_19  and  C_20 
REMARK   13  A    between atoms: C_20  and  C_21 
REMARK   14  A    between atoms: C_21  and  C_22 
REMARK   15  A    between atoms: C_22  and  C_23 
ROOT
HETATM    1  N   UNK N   1      29.432  29.366  -3.348  0.00  0.00    -0.073 N 
HETATM    2  C   UNK N   1      29.135  29.905  -4.676  0.00  0.00     0.272 C 
HETATM    3  C   UNK N   1      30.521  30.129  -2.752  0.00  0.00     0.272 C 
ENDROOT
BRANCH   1   4
HETATM    4  C   UNK N   1      28.256  29.430  -2.473  0.00  0.00     0.263 C 
BRANCH   4   5
HETATM    5  C   UNK N   1      26.938  29.631  -3.232  0.00  0.00     0.203 C 
BRANCH   5   6
HETATM    6  O   UNK N   1      26.052  28.601  -2.973  0.00  0.00    -0.349 OA
BRANCH   6   7
HETATM    7  C   UNK N   1      25.908  27.494  -3.749  0.00  0.00     0.068 A 
HETATM    8  C   UNK N   1      25.232  27.602  -4.970  0.00  0.00     0.037 A 
HETATM    9  C   UNK N   1      25.065  26.480  -5.787  0.00  0.00     0.003 A 
HETATM   10  C   UNK N   1      25.566  25.238  -5.386  0.00  0.00     0.000 A 
HETATM   11  C   UNK N   1      26.242  25.119  -4.170  0.00  0.00     0.003 A 
HETATM   12  C   UNK N   1      26.415  26.241  -3.358  0.00  0.00     0.037 A 
ENDBRANCH   6   7
ENDBRANCH   5   6
ENDBRANCH   4   5
ENDBRANCH   1   4
BRANCH   1  13
HETATM   13  C   UNK N   1      29.815  27.952  -3.430  0.00  0.00     0.236 C 
BRANCH  13  14
HETATM   14  C   UNK N   1      29.558  27.331  -4.805  0.00  0.00     0.028 C 
BRANCH  14  15
HETATM   15  C   UNK N   1      29.860  25.843  -4.802  0.00  0.00     0.002 C 
BRANCH  15  16
HETATM   16  C   UNK N   1      30.653  25.441  -3.565  0.00  0.00     0.000 C 
BRANCH  16  17
HETATM   17  C   UNK N   1      30.415  23.977  -3.223  0.00  0.00     0.000 C 
BRANCH  17  18
HETATM   18  C   UNK N   1      29.460  23.350  -4.214  0.00  0.00     0.000 C 
BRANCH  18  19
HETATM   19  C   UNK N   1      30.189  22.270  -4.982  0.00  0.00     0.000 C 
BRANCH  19  20
HETATM   20  C   UNK N   1      29.362  21.838  -6.170  0.00  0.00     0.000 C 
BRANCH  20  21
HETATM   21  C   UNK N   1      28.192  22.785  -6.308  0.00  0.00     0.000 C 
BRANCH  21  22
HETATM   22  C   UNK N   1      27.325  22.362  -7.471  0.00  0.00    -0.000 C 
BRANCH  22  23
HETATM   23  C   UNK N   1      27.127  23.546  -8.393  0.00  0.00    -0.005 C 
HETATM   24  C   UNK N   1      25.655  23.703  -8.704  0.00  0.00     0.005 C 
ENDBRANCH  22  23
ENDBRANCH  21  22
ENDBRANCH  20  21
ENDBRANCH  19  20
ENDBRANCH  18  19
ENDBRANCH  17  18
ENDBRANCH  16  17
ENDBRANCH  15  16
ENDBRANCH  14  15
ENDBRANCH  13  14
ENDBRANCH   1  13
TORSDOF 15
ENDMDL
MODEL 5
REMARK VINA RESULT:      -4.6      2.933      4.902
REMARK  15 active torsions:
REMARK  status: ('A' for Active; 'I' for Inactive)
REMARK    1  A    between atoms: C_5  and  O_7 
REMARK    2  A    between atoms: O_7  and  C_8 
REMARK    3  A    between atoms: C_8  and  C_9 
REMARK    4  A    between atoms: C_9  and  N_10 
REMARK    5  A    between atoms: N_10  and  C_11 
REMARK    6  A    between atoms: C_11  and  C_14 
REMARK    7  A    between atoms: C_14  and  C_15 
REMARK    8  A    between atoms: C_15  and  C_16 
REMARK    9  A    between atoms: C_16  and  C_17 
REMARK   10  A    between atoms: C_17  and  C_18 
REMARK   11  A    between atoms: C_18  and  C_19 
REMARK   12  A    between atoms: C_19  and  C_20 
REMARK   13  A    between atoms: C_20  and  C_21 
REMARK   14  A    between atoms: C_21  and  C_22 
REMARK   15  A    between atoms: C_22  and  C_23 
ROOT
HETATM    1  N   UNK N   1      29.060  29.744  -4.437  0.00  0.00    -0.073 N 
HETATM    2  C   UNK N   1      28.109  30.626  -5.116  0.00  0.00     0.272 C 
HETATM    3  C   UNK N   1      30.322  30.450  -4.253  0.00  0.00     0.272 C 
ENDROOT
BRANCH   1   4
HETATM    4  C   UNK N   1      28.548  29.313  -3.132  0.00  0.00     0.263 C 
BRANCH   4   5
HETATM    5  C   UNK N   1      27.043  29.555  -2.955  0.00  0.00     0.203 C 
BRANCH   5   6
HETATM    6  O   UNK N   1      26.376  28.372  -2.695  0.00  0.00    -0.349 OA
BRANCH   6   7
HETATM    7  C   UNK N   1      26.057  27.444  -3.635  0.00  0.00     0.068 A 
HETATM    8  C   UNK N   1      26.425  26.109  -3.427  0.00  0.00     0.037 A 
HETATM    9  C   UNK N   1      26.113  25.134  -4.379  0.00  0.00     0.003 A 
HETATM   10  C   UNK N   1      25.436  25.486  -5.551  0.00  0.00     0.000 A 
HETATM   11  C   UNK N   1      25.065  26.814  -5.769  0.00  0.00     0.003 A 
HETATM   12  C   UNK N   1      25.370  27.786  -4.814  0.00  0.00     0.037 A 
ENDBRANCH   6   7
ENDBRANCH   5   6
ENDBRANCH   4   5
ENDBRANCH   1   4
BRANCH   1  13
HETATM   13  C   UNK N   1      29.293  28.525  -5.219  0.00  0.00     0.236 C 
BRANCH  13  14
HETATM   14  C   UNK N   1      29.871  27.373  -4.393  0.00  0.00     0.028 C 
BRANCH  14  15
HETATM   15  C   UNK N   1      29.668  26.040  -5.092  0.00  0.00     0.002 C 
BRANCH  15  16
HETATM   16  C   UNK N   1      30.875  25.128  -4.907  0.00  0.00     0.000 C 
BRANCH  16  17
HETATM   17  C   UNK N   1      30.882  24.518  -3.513  0.00  0.00     0.000 C 
BRANCH  17  18
HETATM   18  C   UNK N   1      29.506  24.006  -3.151  0.00  0.00     0.000 C 
BRANCH  18  19
HETATM   19  C   UNK N   1      29.620  22.567  -2.700  0.00  0.00     0.000 C 
BRANCH  19  20
HETATM   20  C   UNK N   1      31.020  22.060  -2.953  0.00  0.00     0.000 C 
BRANCH  20  21
HETATM   21  C   UNK N   1      30.933  20.842  -3.844  0.00  0.00     0.000 C 
BRANCH  21  22
HETATM   22  C   UNK N   1      31.484  21.169  -5.213  0.00  0.00    -0.000 C 
BRANCH  22  23
HETATM   23  C   UNK N   1      30.335  21.516  -6.135  0.00  0.00    -0.005 C 
HETATM   24  C   UNK N   1      29.824  20.257  -6.800  0.00  0.00     0.005 C 
ENDBRANCH  22  23
ENDBRANCH  21  22
ENDBRANCH  20  21
ENDBRANCH  19  20
ENDBRANCH  18  19
ENDBRANCH  17  18
ENDBRANCH  16  17
ENDBRANCH  15  16
ENDBRANCH  14  15
ENDBRANCH  13  14
ENDBRANCH   1  13
TORSDOF 15
ENDMDL
MODEL 6
REMARK VINA RESULT:      -4.6      2.933      5.907
REMARK  15 active torsions:
REMARK  status: ('A' for Active; 'I' for Inactive)
REMARK    1  A    between atoms: C_5  and  O_7 
REMARK    2  A    between atoms: O_7  and  C_8 
REMARK    3  A    between atoms: C_8  and  C_9 
REMARK    4  A    between atoms: C_9  and  N_10 
REMARK    5  A    between atoms: N_10  and  C_11 
REMARK    6  A    between atoms: C_11  and  C_14 
REMARK    7  A    between atoms: C_14  and  C_15 
REMARK    8  A    between atoms: C_15  and  C_16 
REMARK    9  A    between atoms: C_16  and  C_17 
REMARK   10  A    between atoms: C_17  and  C_18 
REMARK   11  A    between atoms: C_18  and  C_19 
REMARK   12  A    between atoms: C_19  and  C_20 
REMARK   13  A    between atoms: C_20  and  C_21 
REMARK   14  A    between atoms: C_21  and  C_22 
REMARK   15  A    between atoms: C_22  and  C_23 
ROOT
HETATM    1  N   UNK N   1      28.995  29.645  -4.599  0.00  0.00    -0.073 N 
HETATM    2  C   UNK N   1      28.022  30.681  -4.947  0.00  0.00     0.272 C 
HETATM    3  C   UNK N   1      30.333  30.220  -4.608  0.00  0.00     0.272 C 
ENDROOT
BRANCH   1   4
HETATM    4  C   UNK N   1      28.717  29.078  -3.274  0.00  0.00     0.263 C 
BRANCH   4   5
HETATM    5  C   UNK N   1      27.292  29.354  -2.777  0.00  0.00     0.203 C 
BRANCH   5   6
HETATM    6  O   UNK N   1      26.603  28.174  -2.562  0.00  0.00    -0.349 OA
BRANCH   6   7
HETATM    7  C   UNK N   1      26.138  27.362  -3.548  0.00  0.00     0.068 A 
HETATM    8  C   UNK N   1      26.512  26.013  -3.552  0.00  0.00     0.037 A 
HETATM    9  C   UNK N   1      26.052  25.155  -4.556  0.00  0.00     0.003 A 
HETATM   10  C   UNK N   1      25.220  25.641  -5.569  0.00  0.00     0.000 A 
HETATM   11  C   UNK N   1      24.841  26.985  -5.575  0.00  0.00     0.003 A 
HETATM   12  C   UNK N   1      25.295  27.839  -4.568  0.00  0.00     0.037 A 
ENDBRANCH   6   7
ENDBRANCH   5   6
ENDBRANCH   4   5
ENDBRANCH   1   4
BRANCH   1  13
HETATM   13  C   UNK N   1      28.936  28.530  -5.551  0.00  0.00     0.236 C 
BRANCH  13  14
HETATM   14  C   UNK N   1      27.972  28.774  -6.714  0.00  0.00     0.028 C 
BRANCH  14  15
HETATM   15  C   UNK N   1      28.391  27.994  -7.949  0.00  0.00     0.002 C 
BRANCH  15  16
HETATM   16  C   UNK N   1      27.811  26.585  -7.937  0.00  0.00     0.000 C 
BRANCH  16  17
HETATM   17  C   UNK N   1      26.619  26.484  -8.877  0.00  0.00     0.000 C 
BRANCH  17  18
HETATM   18  C   UNK N   1      26.585  25.128  -9.546  0.00  0.00     0.000 C 
BRANCH  18  19
HETATM   19  C   UNK N   1      25.728  24.195  -8.719  0.00  0.00     0.000 C 
BRANCH  19  20
HETATM   20  C   UNK N   1      26.329  22.810  -8.720  0.00  0.00     0.000 C 
BRANCH  20  21
HETATM   21  C   UNK N   1      26.846  22.513  -7.331  0.00  0.00     0.000 C 
BRANCH  21  22
HETATM   22  C   UNK N   1      28.122  21.708  -7.420  0.00  0.00    -0.000 C 
BRANCH  22  23
HETATM   23  C   UNK N   1      29.049  22.130  -6.302  0.00  0.00    -0.005 C 
HETATM   24  C   UNK N   1      28.972  23.630  -6.120  0.00  0.00     0.005 C 
ENDBRANCH  22  23
ENDBRANCH  21  22
ENDBRANCH  20  21
ENDBRANCH  19  20
ENDBRANCH  18  19
ENDBRANCH  17  18
ENDBRANCH  16  17
ENDBRANCH  15  16
ENDBRANCH  14  15
ENDBRANCH  13  14
ENDBRANCH   1  13
TORSDOF 15
ENDMDL
MODEL 7
REMARK VINA RESULT:      -4.6      2.269      5.510
REMARK  15 active torsions:
REMARK  status: ('A' for Active; 'I' for Inactive)
REMARK    1  A    between atoms: C_5  and  O_7 
REMARK    2  A    between atoms: O_7  and  C_8 
REMARK    3  A    between atoms: C_8  and  C_9 
REMARK    4  A    between atoms: C_9  and  N_10 
REMARK    5  A    between atoms: N_10  and  C_11 
REMARK    6  A    between atoms: C_11  and  C_14 
REMARK    7  A    between atoms: C_14  and  C_15 
REMARK    8  A    between atoms: C_15  and  C_16 
REMARK    9  A    between atoms: C_16  and  C_17 
REMARK   10  A    between atoms: C_17  and  C_18 
REMARK   11  A    between atoms: C_18  and  C_19 
REMARK   12  A    between atoms: C_19  and  C_20 
REMARK   13  A    between atoms: C_20  and  C_21 
REMARK   14  A    between atoms: C_21  and  C_22 
REMARK   15  A    between atoms: C_22  and  C_23 
ROOT
HETATM    1  N   UNK N   1      26.452  23.824 -10.022  0.00  0.00    -0.073 N 
HETATM    2  C   UNK N   1      27.263  22.607  -9.975  0.00  0.00     0.272 C 
HETATM    3  C   UNK N   1      25.888  23.973 -11.358  0.00  0.00     0.272 C 
ENDROOT
BRANCH   1   4
HETATM    4  C   UNK N   1      25.365  23.777  -9.037  0.00  0.00     0.263 C 
BRANCH   4   5
HETATM    5  C   UNK N   1      25.437  22.561  -8.105  0.00  0.00     0.203 C 
BRANCH   5   6
HETATM    6  O   UNK N   1      25.197  22.926  -6.792  0.00  0.00    -0.349 OA
BRANCH   6   7
HETATM    7  C   UNK N   1      26.137  23.419  -5.944  0.00  0.00     0.068 A 
HETATM    8  C   UNK N   1      27.487  23.341  -6.305  0.00  0.00     0.037 A 
HETATM    9  C   UNK N   1      28.477  23.836  -5.451  0.00  0.00     0.003 A 
HETATM   10  C   UNK N   1      28.125  24.408  -4.224  0.00  0.00     0.000 A 
HETATM   11  C   UNK N   1      26.782  24.491  -3.854  0.00  0.00     0.003 A 
HETATM   12  C   UNK N   1      25.793  24.003  -4.711  0.00  0.00     0.037 A 
ENDBRANCH   6   7
ENDBRANCH   5   6
ENDBRANCH   4   5
ENDBRANCH   1   4
BRANCH   1  13
HETATM   13  C   UNK N   1      27.259  25.005  -9.698  0.00  0.00     0.236 C 
BRANCH  13  14
HETATM   14  C   UNK N   1      26.533  26.012  -8.803  0.00  0.00     0.028 C 
BRANCH  14  15
HETATM   15  C   UNK N   1      27.516  26.811  -7.964  0.00  0.00     0.002 C 
BRANCH  15  16
HETATM   16  C   UNK N   1      26.868  27.314  -6.681  0.00  0.00     0.000 C 
BRANCH  16  17
HETATM   17  C   UNK N   1      25.399  26.917  -6.626  0.00  0.00     0.000 C 
BRANCH  17  18
HETATM   18  C   UNK N   1      24.769  27.397  -5.337  0.00  0.00     0.000 C 
BRANCH  18  19
HETATM   19  C   UNK N   1      25.697  28.394  -4.679  0.00  0.00     0.000 C 
BRANCH  19  20
HETATM   20  C   UNK N   1      25.969  27.979  -3.253  0.00  0.00     0.000 C 
BRANCH  20  21
HETATM   21  C   UNK N   1      27.462  28.009  -3.024  0.00  0.00     0.000 C 
BRANCH  21  22
HETATM   22  C   UNK N   1      28.019  29.349  -3.446  0.00  0.00    -0.000 C 
BRANCH  22  23
HETATM   23  C   UNK N   1      28.982  29.838  -2.386  0.00  0.00    -0.005 C 
HETATM   24  C   UNK N   1      28.297  29.828  -1.038  0.00  0.00     0.005 C 
ENDBRANCH  22  23
ENDBRANCH  21  22
ENDBRANCH  20  21
ENDBRANCH  19  20
ENDBRANCH  18  19
ENDBRANCH  17  18
ENDBRANCH  16  17
ENDBRANCH  15  16
ENDBRANCH  14  15
ENDBRANCH  13  14
ENDBRANCH   1  13
TORSDOF 15
ENDMDL
MODEL 8
REMARK VINA RESULT:      -4.5     16.930     21.145
REMARK  15 active torsions:
REMARK  status: ('A' for Active; 'I' for Inactive)
REMARK    1  A    between atoms: C_5  and  O_7 
REMARK    2  A    between atoms: O_7  and  C_8 
REMARK    3  A    between atoms: C_8  and  C_9 
REMARK    4  A    between atoms: C_9  and  N_10 
REMARK    5  A    between atoms: N_10  and  C_11 
REMARK    6  A    between atoms: C_11  and  C_14 
REMARK    7  A    between atoms: C_14  and  C_15 
REMARK    8  A    between atoms: C_15  and  C_16 
REMARK    9  A    between atoms: C_16  and  C_17 
REMARK   10  A    between atoms: C_17  and  C_18 
REMARK   11  A    between atoms: C_18  and  C_19 
REMARK   12  A    between atoms: C_19  and  C_20 
REMARK   13  A    between atoms: C_20  and  C_21 
REMARK   14  A    between atoms: C_21  and  C_22 
REMARK   15  A    between atoms: C_22  and  C_23 
ROOT
HETATM    1  N   UNK N   1      35.331  14.280  10.172  0.00  0.00    -0.073 N 
HETATM    2  C   UNK N   1      36.764  14.289   9.877  0.00  0.00     0.272 C 
HETATM    3  C   UNK N   1      34.838  12.910  10.119  0.00  0.00     0.272 C 
ENDROOT
BRANCH   1   4
HETATM    4  C   UNK N   1      35.057  14.845  11.498  0.00  0.00     0.263 C 
BRANCH   4   5
HETATM    5  C   UNK N   1      35.583  13.982  12.652  0.00  0.00     0.203 C 
BRANCH   5   6
HETATM    6  O   UNK N   1      34.552  13.299  13.272  0.00  0.00    -0.349 OA
BRANCH   6   7
HETATM    7  C   UNK N   1      34.704  12.487  14.352  0.00  0.00     0.068 A 
HETATM    8  C   UNK N   1      35.420  12.956  15.460  0.00  0.00     0.037 A 
HETATM    9  C   UNK N   1      35.596  12.142  16.583  0.00  0.00     0.003 A 
HETATM   10  C   UNK N   1      35.064  10.849  16.604  0.00  0.00     0.000 A 
HETATM   11  C   UNK N   1      34.349  10.372  15.504  0.00  0.00     0.003 A 
HETATM   12  C   UNK N   1      34.167  11.188  14.386  0.00  0.00     0.037 A 
ENDBRANCH   6   7
ENDBRANCH   5   6
ENDBRANCH   4   5
ENDBRANCH   1   4
BRANCH   1  13
HETATM   13  C   UNK N   1      34.593  15.102   9.206  0.00  0.00     0.236 C 
BRANCH  13  14
HETATM   14  C   UNK N   1      34.532  16.583   9.589  0.00  0.00     0.028 C 
BRANCH  14  15
HETATM   15  C   UNK N   1      34.494  17.469   8.356  0.00  0.00     0.002 C 
BRANCH  15  16
HETATM   16  C   UNK N   1      33.190  18.253   8.277  0.00  0.00     0.000 C 
BRANCH  16  17
HETATM   17  C   UNK N   1      32.108  17.435   7.587  0.00  0.00     0.000 C 
BRANCH  17  18
HETATM   18  C   UNK N   1      30.981  17.131   8.549  0.00  0.00     0.000 C 
BRANCH  18  19
HETATM   19  C   UNK N   1      30.397  18.434   9.047  0.00  0.00     0.000 C 
BRANCH  19  20
HETATM   20  C   UNK N   1      28.943  18.241   9.406  0.00  0.00     0.000 C 
BRANCH  20  21
HETATM   21  C   UNK N   1      28.140  18.175   8.128  0.00  0.00     0.000 C 
BRANCH  21  22
HETATM   22  C   UNK N   1      28.462  19.369   7.258  0.00  0.00    -0.000 C 
BRANCH  22  23
HETATM   23  C   UNK N   1      27.222  19.761   6.483  0.00  0.00    -0.005 C 
HETATM   24  C   UNK N   1      27.348  21.197   6.023  0.00  0.00     0.005 C 
ENDBRANCH  22  23
ENDBRANCH  21  22
ENDBRANCH  20  21
ENDBRANCH  19  20
ENDBRANCH  18  19
ENDBRANCH  17  18
ENDBRANCH  16  17
ENDBRANCH  15  16
ENDBRANCH  14  15
ENDBRANCH  13  14
ENDBRANCH   1  13
TORSDOF 15
ENDMDL
MODEL 9
REMARK VINA RESULT:      -4.5     16.981     21.262
REMARK  15 active torsions:
REMARK  status: ('A' for Active; 'I' for Inactive)
REMARK    1  A    between atoms: C_5  and  O_7 
REMARK    2  A    between atoms: O_7  and  C_8 
REMARK    3  A    between atoms: C_8  and  C_9 
REMARK    4  A    between atoms: C_9  and  N_10 
REMARK    5  A    between atoms: N_10  and  C_11 
REMARK    6  A    between atoms: C_11  and  C_14 
REMARK    7  A    between atoms: C_14  and  C_15 
REMARK    8  A    between atoms: C_15  and  C_16 
REMARK    9  A    between atoms: C_16  and  C_17 
REMARK   10  A    between atoms: C_17  and  C_18 
REMARK   11  A    between atoms: C_18  and  C_19 
REMARK   12  A    between atoms: C_19  and  C_20 
REMARK   13  A    between atoms: C_20  and  C_21 
REMARK   14  A    between atoms: C_21  and  C_22 
REMARK   15  A    between atoms: C_22  and  C_23 
ROOT
HETATM    1  N   UNK N   1      35.822  14.292  10.340  0.00  0.00    -0.073 N 
HETATM    2  C   UNK N   1      37.253  14.467  10.087  0.00  0.00     0.272 C 
HETATM    3  C   UNK N   1      35.497  12.872  10.295  0.00  0.00     0.272 C 
ENDROOT
BRANCH   1   4
HETATM    4  C   UNK N   1      35.443  14.838  11.648  0.00  0.00     0.263 C 
BRANCH   4   5
HETATM    5  C   UNK N   1      35.989  14.027  12.831  0.00  0.00     0.203 C 
BRANCH   5   6
HETATM    6  O   UNK N   1      34.989  13.743  13.743  0.00  0.00    -0.349 OA
BRANCH   6   7
HETATM    7  C   UNK N   1      34.990  12.672  14.580  0.00  0.00     0.068 A 
HETATM    8  C   UNK N   1      34.178  11.572  14.278  0.00  0.00     0.037 A 
HETATM    9  C   UNK N   1      34.156  10.458  15.123  0.00  0.00     0.003 A 
HETATM   10  C   UNK N   1      34.940  10.437  16.280  0.00  0.00     0.000 A 
HETATM   11  C   UNK N   1      35.753  11.529  16.591  0.00  0.00     0.003 A 
HETATM   12  C   UNK N   1      35.780  12.638  15.743  0.00  0.00     0.037 A 
ENDBRANCH   6   7
ENDBRANCH   5   6
ENDBRANCH   4   5
ENDBRANCH   1   4
BRANCH   1  13
HETATM   13  C   UNK N   1      35.022  15.008   9.340  0.00  0.00     0.236 C 
BRANCH  13  14
HETATM   14  C   UNK N   1      34.916  16.511   9.608  0.00  0.00     0.028 C 
BRANCH  14  15
HETATM   15  C   UNK N   1      33.661  17.094   8.983  0.00  0.00     0.002 C 
BRANCH  15  16
HETATM   16  C   UNK N   1      33.999  18.026   7.827  0.00  0.00     0.000 C 
BRANCH  16  17
HETATM   17  C   UNK N   1      34.187  17.240   6.537  0.00  0.00     0.000 C 
BRANCH  17  18
HETATM   18  C   UNK N   1      33.060  17.532   5.571  0.00  0.00     0.000 C 
BRANCH  18  19
HETATM   19  C   UNK N   1      32.039  16.420   5.659  0.00  0.00     0.000 C 
BRANCH  19  20
HETATM   20  C   UNK N   1      30.651  16.982   5.459  0.00  0.00     0.000 C 
BRANCH  20  21
HETATM   21  C   UNK N   1      30.192  17.597   6.760  0.00  0.00     0.000 C 
BRANCH  21  22
HETATM   22  C   UNK N   1      30.273  16.571   7.868  0.00  0.00    -0.000 C 
BRANCH  22  23
HETATM   23  C   UNK N   1      30.052  17.263   9.196  0.00  0.00    -0.005 C 
HETATM   24  C   UNK N   1      30.289  18.749   9.037  0.00  0.00     0.005 C 
ENDBRANCH  22  23
ENDBRANCH  21  22
ENDBRANCH  20  21
ENDBRANCH  19  20
ENDBRANCH  18  19
ENDBRANCH  17  18
ENDBRANCH  16  17
ENDBRANCH  15  16
ENDBRANCH  14  15
ENDBRANCH  13  14
ENDBRANCH   1  13
TORSDOF 15
ENDMDL
