MODEL 1
REMARK VINA RESULT:      -4.8      0.000      0.000
REMARK  13 active torsions:
REMARK  status: ('A' for Active; 'I' for Inactive)
REMARK    1  A    between atoms: P_2  and  C_1 
REMARK    2  A    between atoms: P_3  and  C_1 
REMARK    3  A    between atoms: O_6  and  C_1 
REMARK    4  A    between atoms: C_12  and  C_1 
REMARK    5  A    between atoms: O_8  and  P_2 
REMARK    6  A    between atoms: O_11  and  P_2 
REMARK    7  A    between atoms: O_9  and  P_3 
REMARK    8  A    between atoms: O_10  and  P_3 
REMARK    9  A    between atoms: N_7  and  C_13 
REMARK   10  A    between atoms: C_14  and  C_12 
REMARK   11  A    between atoms: C_13  and  C_15 
REMARK   12  A    between atoms: C_16  and  C_14 
REMARK   13  A    between atoms: C_15  and  C_16 
ROOT
HETATM    1  C   UNK N   1      34.590  16.303   8.990  0.00  0.00     0.252 C 
ENDROOT
BRANCH   1   2
HETATM    2  P   UNK N   1      34.241  17.903   8.089  0.00  0.00     0.283 P 
HETATM    3  O   UNK N   1      34.424  17.756   6.554  0.00  0.00    -0.651 OA
BRANCH   2   4
HETATM    4  O   UNK N   1      32.615  18.482   8.272  0.00  0.00    -0.327 OA
HETATM    5  H   UNK N   1      32.274  19.084   8.952  0.00  0.00     0.220 HD
ENDBRANCH   2   4
BRANCH   2   6
HETATM    6  O   UNK N   1      35.284  19.222   8.518  0.00  0.00    -0.327 OA
HETATM    7  H   UNK N   1      35.621  19.420   9.406  0.00  0.00     0.220 HD
ENDBRANCH   2   6
ENDBRANCH   1   2
BRANCH   1   8
HETATM    8  P   UNK N   1      33.011  15.328   9.221  0.00  0.00     0.283 P 
HETATM    9  O   UNK N   1      33.179  13.901   8.637  0.00  0.00    -0.651 OA
BRANCH   8  10
HETATM   10  O   UNK N   1      32.512  15.056  10.861  0.00  0.00    -0.327 OA
HETATM   11  H   UNK N   1      32.672  15.366  11.766  0.00  0.00     0.220 HD
ENDBRANCH   8  10
BRANCH   8  12
HETATM   12  O   UNK N   1      31.635  15.961   8.373  0.00  0.00    -0.327 OA
HETATM   13  H   UNK N   1      31.565  16.867   8.035  0.00  0.00     0.220 HD
ENDBRANCH   8  12
ENDBRANCH   1   8
BRANCH   1  14
HETATM   14  O   UNK N   1      35.456  15.545   8.201  0.00  0.00    -0.368 OA
HETATM   15  H   UNK N   1      35.635  14.632   7.927  0.00  0.00     0.212 HD
ENDBRANCH   1  14
BRANCH   1  16
HETATM   16  C   UNK N   1      35.276  16.565  10.334  0.00  0.00     0.063 C 
BRANCH  16  17
HETATM   17  C   UNK N   1      36.204  15.446  10.790  0.00  0.00     0.004 C 
BRANCH  17  18
HETATM   18  C   UNK N   1      35.980  15.185  12.267  0.00  0.00     0.002 C 
BRANCH  18  19
HETATM   19  C   UNK N   1      35.306  13.843  12.492  0.00  0.00     0.019 C 
BRANCH  19  20
HETATM   20  C   UNK N   1      35.485  12.957  11.274  0.00  0.00     0.111 C 
BRANCH  20  21
HETATM   21  N   UNK N   1      34.239  12.268  10.991  0.00  0.00    -0.430 N 
HETATM   22  H   UNK N   1      33.848  11.570  11.622  0.00  0.00     0.149 HD
HETATM   23  H   UNK N   1      33.738  12.491  10.130  0.00  0.00     0.149 HD
ENDBRANCH  20  21
ENDBRANCH  19  20
ENDBRANCH  18  19
ENDBRANCH  17  18
ENDBRANCH  16  17
ENDBRANCH   1  16
TORSDOF 13
ENDMDL
MODEL 2
REMARK VINA RESULT:      -4.6      3.589      5.586
REMARK  13 active torsions:
REMARK  status: ('A' for Active; 'I' for Inactive)
REMARK    1  A    between atoms: P_2  and  C_1 
REMARK    2  A    between atoms: P_3  and  C_1 
REMARK    3  A    between atoms: O_6  and  C_1 
REMARK    4  A    between atoms: C_12  and  C_1 
REMARK    5  A    between atoms: O_8  and  P_2 
REMARK    6  A    between atoms: O_11  and  P_2 
REMARK    7  A    between atoms: O_9  and  P_3 
REMARK    8  A    between atoms: O_10  and  P_3 
REMARK    9  A    between atoms: N_7  and  C_13 
REMARK   10  A    between atoms: C_14  and  C_12 
REMARK   11  A    between atoms: C_13  and  C_15 
REMARK   12  A    between atoms: C_16  and  C_14 
REMARK   13  A    between atoms: C_15  and  C_16 
ROOT
HETATM    1  C   UNK N   1      33.988  15.985   8.364  0.00  0.00     0.252 C 
ENDROOT
BRANCH   1   2
HETATM    2  P   UNK N   1      34.617  15.771  10.111  0.00  0.00     0.283 P 
HETATM    3  O   UNK N   1      35.907  14.908  10.161  0.00  0.00    -0.651 OA
BRANCH   2   4
HETATM    4  O   UNK N   1      35.065  17.255  10.893  0.00  0.00    -0.327 OA
HETATM    5  H   UNK N   1      35.122  18.139  10.496  0.00  0.00     0.220 HD
ENDBRANCH   2   4
BRANCH   2   6
HETATM    6  O   UNK N   1      33.521  14.961  11.185  0.00  0.00    -0.327 OA
HETATM    7  H   UNK N   1      32.734  15.349  11.600  0.00  0.00     0.220 HD
ENDBRANCH   2   6
ENDBRANCH   1   2
BRANCH   1   8
HETATM    8  P   UNK N   1      34.040  17.788   7.870  0.00  0.00     0.283 P 
HETATM    9  O   UNK N   1      32.699  18.476   8.234  0.00  0.00    -0.651 OA
BRANCH   8  10
HETATM   10  O   UNK N   1      35.241  18.763   8.657  0.00  0.00    -0.327 OA
HETATM   11  H   UNK N   1      35.341  19.579   9.172  0.00  0.00     0.220 HD
ENDBRANCH   8  10
BRANCH   8  12
HETATM   12  O   UNK N   1      34.199  18.070   6.165  0.00  0.00    -0.327 OA
HETATM   13  H   UNK N   1      34.106  18.937   5.738  0.00  0.00     0.220 HD
ENDBRANCH   8  12
ENDBRANCH   1   8
BRANCH   1  14
HETATM   14  O   UNK N   1      34.836  15.277   7.512  0.00  0.00    -0.368 OA
HETATM   15  H   UNK N   1      35.449  14.527   7.499  0.00  0.00     0.212 HD
ENDBRANCH   1  14
BRANCH   1  16
HETATM   16  C   UNK N   1      32.575  15.414   8.213  0.00  0.00     0.063 C 
BRANCH  16  17
HETATM   17  C   UNK N   1      32.076  15.354   6.774  0.00  0.00     0.004 C 
BRANCH  17  18
HETATM   18  C   UNK N   1      30.674  15.928   6.709  0.00  0.00     0.002 C 
BRANCH  18  19
HETATM   19  C   UNK N   1      30.592  17.065   5.706  0.00  0.00     0.019 C 
BRANCH  19  20
HETATM   20  C   UNK N   1      31.388  16.724   4.462  0.00  0.00     0.111 C 
BRANCH  20  21
HETATM   21  N   UNK N   1      31.903  17.944   3.868  0.00  0.00    -0.430 N 
HETATM   22  H   UNK N   1      31.362  18.496   3.203  0.00  0.00     0.149 HD
HETATM   23  H   UNK N   1      32.839  18.260   4.124  0.00  0.00     0.149 HD
ENDBRANCH  20  21
ENDBRANCH  19  20
ENDBRANCH  18  19
ENDBRANCH  17  18
ENDBRANCH  16  17
ENDBRANCH   1  16
TORSDOF 13
ENDMDL
MODEL 3
REMARK VINA RESULT:      -4.5      3.783      5.545
REMARK  13 active torsions:
REMARK  status: ('A' for Active; 'I' for Inactive)
REMARK    1  A    between atoms: P_2  and  C_1 
REMARK    2  A    between atoms: P_3  and  C_1 
REMARK    3  A    between atoms: O_6  and  C_1 
REMARK    4  A    between atoms: C_12  and  C_1 
REMARK    5  A    between atoms: O_8  and  P_2 
REMARK    6  A    between atoms: O_11  and  P_2 
REMARK    7  A    between atoms: O_9  and  P_3 
REMARK    8  A    between atoms: O_10  and  P_3 
REMARK    9  A    between atoms: N_7  and  C_13 
REMARK   10  A    between atoms: C_14  and  C_12 
REMARK   11  A    between atoms: C_13  and  C_15 
REMARK   12  A    between atoms: C_16  and  C_14 
REMARK   13  A    between atoms: C_15  and  C_16 
ROOT
HETATM    1  C   UNK N   1      33.156  15.877   8.090  0.00  0.00     0.252 C 
ENDROOT
BRANCH   1   2
HETATM    2  P   UNK N   1      34.238  15.747   9.608  0.00  0.00     0.283 P 
HETATM    3  O   UNK N   1      34.789  17.131  10.048  0.00  0.00    -0.651 OA
BRANCH   2   4
HETATM    4  O   UNK N   1      33.420  15.146  11.016  0.00  0.00    -0.327 OA
HETATM    5  H   UNK N   1      33.255  15.614  11.850  0.00  0.00     0.220 HD
ENDBRANCH   2   4
BRANCH   2   6
HETATM    6  O   UNK N   1      35.657  14.768   9.408  0.00  0.00    -0.327 OA
HETATM    7  H   UNK N   1      36.544  15.086   9.178  0.00  0.00     0.220 HD
ENDBRANCH   2   6
ENDBRANCH   1   2
BRANCH   1   8
HETATM    8  P   UNK N   1      33.973  16.954   6.799  0.00  0.00     0.283 P 
HETATM    9  O   UNK N   1      35.133  16.180   6.120  0.00  0.00    -0.651 OA
BRANCH   8  10
HETATM   10  O   UNK N   1      32.969  17.456   5.474  0.00  0.00    -0.327 OA
HETATM   11  H   UNK N   1      32.184  17.188   4.970  0.00  0.00     0.220 HD
ENDBRANCH   8  10
BRANCH   8  12
HETATM   12  O   UNK N   1      34.738  18.383   7.420  0.00  0.00    -0.327 OA
HETATM   13  H   UNK N   1      34.697  19.257   7.001  0.00  0.00     0.220 HD
ENDBRANCH   8  12
ENDBRANCH   1   8
BRANCH   1  14
HETATM   14  O   UNK N   1      33.007  14.597   7.556  0.00  0.00    -0.368 OA
HETATM   15  H   UNK N   1      32.517  13.771   7.684  0.00  0.00     0.212 HD
ENDBRANCH   1  14
BRANCH   1  16
HETATM   16  C   UNK N   1      31.765  16.408   8.449  0.00  0.00     0.063 C 
BRANCH  16  17
HETATM   17  C   UNK N   1      31.701  17.920   8.632  0.00  0.00     0.004 C 
BRANCH  17  18
HETATM   18  C   UNK N   1      30.252  18.344   8.771  0.00  0.00     0.002 C 
BRANCH  18  19
HETATM   19  C   UNK N   1      29.411  17.807   7.627  0.00  0.00     0.019 C 
BRANCH  19  20
HETATM   20  C   UNK N   1      28.041  17.397   8.132  0.00  0.00     0.111 C 
BRANCH  20  21
HETATM   21  N   UNK N   1      27.593  18.342   9.138  0.00  0.00    -0.430 N 
HETATM   22  H   UNK N   1      27.324  18.051  10.077  0.00  0.00     0.149 HD
HETATM   23  H   UNK N   1      27.548  19.333   8.897  0.00  0.00     0.149 HD
ENDBRANCH  20  21
ENDBRANCH  19  20
ENDBRANCH  18  19
ENDBRANCH  17  18
ENDBRANCH  16  17
ENDBRANCH   1  16
TORSDOF 13
ENDMDL
MODEL 4
REMARK VINA RESULT:      -4.3     11.865     13.064
REMARK  13 active torsions:
REMARK  status: ('A' for Active; 'I' for Inactive)
REMARK    1  A    between atoms: P_2  and  C_1 
REMARK    2  A    between atoms: P_3  and  C_1 
REMARK    3  A    between atoms: O_6  and  C_1 
REMARK    4  A    between atoms: C_12  and  C_1 
REMARK    5  A    between atoms: O_8  and  P_2 
REMARK    6  A    between atoms: O_11  and  P_2 
REMARK    7  A    between atoms: O_9  and  P_3 
REMARK    8  A    between atoms: O_10  and  P_3 
REMARK    9  A    between atoms: N_7  and  C_13 
REMARK   10  A    between atoms: C_14  and  C_12 
REMARK   11  A    between atoms: C_13  and  C_15 
REMARK   12  A    between atoms: C_16  and  C_14 
REMARK   13  A    between atoms: C_15  and  C_16 
ROOT
HETATM    1  C   UNK N   1      20.995  14.484   8.172  0.00  0.00     0.252 C 
ENDROOT
BRANCH   1   2
HETATM    2  P   UNK N   1      22.421  14.811   7.010  0.00  0.00     0.283 P 
HETATM    3  O   UNK N   1      22.213  14.129   5.630  0.00  0.00    -0.651 OA
BRANCH   2   4
HETATM    4  O   UNK N   1      22.657  16.488   6.626  0.00  0.00    -0.327 OA
HETATM    5  H   UNK N   1      23.084  16.860   5.839  0.00  0.00     0.220 HD
ENDBRANCH   2   4
BRANCH   2   6
HETATM    6  O   UNK N   1      23.956  14.211   7.554  0.00  0.00    -0.327 OA
HETATM    7  H   UNK N   1      24.097  13.467   8.161  0.00  0.00     0.220 HD
ENDBRANCH   2   6
ENDBRANCH   1   2
BRANCH   1   8
HETATM    8  P   UNK N   1      19.811  15.932   8.173  0.00  0.00     0.283 P 
HETATM    9  O   UNK N   1      18.759  15.756   9.299  0.00  0.00    -0.651 OA
BRANCH   8  10
HETATM   10  O   UNK N   1      20.508  17.490   8.488  0.00  0.00    -0.327 OA
HETATM   11  H   UNK N   1      20.887  18.024   9.205  0.00  0.00     0.220 HD
ENDBRANCH   8  10
BRANCH   8  12
HETATM   12  O   UNK N   1      18.853  16.090   6.734  0.00  0.00    -0.327 OA
HETATM   13  H   UNK N   1      19.213  16.243   5.846  0.00  0.00     0.220 HD
ENDBRANCH   8  12
ENDBRANCH   1   8
BRANCH   1  14
HETATM   14  O   UNK N   1      20.308  13.363   7.706  0.00  0.00    -0.368 OA
HETATM   15  H   UNK N   1      20.117  12.440   7.930  0.00  0.00     0.212 HD
ENDBRANCH   1  14
BRANCH   1  16
HETATM   16  C   UNK N   1      21.495  14.182   9.587  0.00  0.00     0.063 C 
BRANCH  16  17
HETATM   17  C   UNK N   1      20.719  13.083  10.303  0.00  0.00     0.004 C 
BRANCH  17  18
HETATM   18  C   UNK N   1      21.697  12.142  10.979  0.00  0.00     0.002 C 
BRANCH  18  19
HETATM   19  C   UNK N   1      23.043  12.151  10.276  0.00  0.00     0.019 C 
BRANCH  19  20
HETATM   20  C   UNK N   1      24.164  12.051  11.292  0.00  0.00     0.111 C 
BRANCH  20  21
HETATM   21  N   UNK N   1      25.272  12.891  10.874  0.00  0.00    -0.430 N 
HETATM   22  H   UNK N   1      25.736  12.771   9.974  0.00  0.00     0.149 HD
HETATM   23  H   UNK N   1      25.596  13.627  11.502  0.00  0.00     0.149 HD
ENDBRANCH  20  21
ENDBRANCH  19  20
ENDBRANCH  18  19
ENDBRANCH  17  18
ENDBRANCH  16  17
ENDBRANCH   1  16
TORSDOF 13
ENDMDL
MODEL 5
REMARK VINA RESULT:      -4.3      2.413      3.607
REMARK  13 active torsions:
REMARK  status: ('A' for Active; 'I' for Inactive)
REMARK    1  A    between atoms: P_2  and  C_1 
REMARK    2  A    between atoms: P_3  and  C_1 
REMARK    3  A    between atoms: O_6  and  C_1 
REMARK    4  A    between atoms: C_12  and  C_1 
REMARK    5  A    between atoms: O_8  and  P_2 
REMARK    6  A    between atoms: O_11  and  P_2 
REMARK    7  A    between atoms: O_9  and  P_3 
REMARK    8  A    between atoms: O_10  and  P_3 
REMARK    9  A    between atoms: N_7  and  C_13 
REMARK   10  A    between atoms: C_14  and  C_12 
REMARK   11  A    between atoms: C_13  and  C_15 
REMARK   12  A    between atoms: C_16  and  C_14 
REMARK   13  A    between atoms: C_15  and  C_16 
ROOT
HETATM    1  C   UNK N   1      34.450  14.798  10.315  0.00  0.00     0.252 C 
ENDROOT
BRANCH   1   2
HETATM    2  P   UNK N   1      33.766  15.689   8.820  0.00  0.00     0.283 P 
HETATM    3  O   UNK N   1      34.833  15.851   7.704  0.00  0.00    -0.651 OA
BRANCH   2   4
HETATM    4  O   UNK N   1      32.453  14.864   8.040  0.00  0.00    -0.327 OA
HETATM    5  H   UNK N   1      32.224  13.923   8.103  0.00  0.00     0.220 HD
ENDBRANCH   2   4
BRANCH   2   6
HETATM    6  O   UNK N   1      33.219  17.307   9.125  0.00  0.00    -0.327 OA
HETATM    7  H   UNK N   1      32.348  17.562   9.468  0.00  0.00     0.220 HD
ENDBRANCH   2   6
ENDBRANCH   1   2
BRANCH   1   8
HETATM    8  P   UNK N   1      35.974  15.672  10.952  0.00  0.00     0.283 P 
HETATM    9  O   UNK N   1      35.872  17.193  10.664  0.00  0.00    -0.651 OA
BRANCH   8  10
HETATM   10  O   UNK N   1      36.247  15.585  12.665  0.00  0.00    -0.327 OA
HETATM   11  H   UNK N   1      35.916  15.151  13.467  0.00  0.00     0.220 HD
ENDBRANCH   8  10
BRANCH   8  12
HETATM   12  O   UNK N   1      37.457  15.205  10.181  0.00  0.00    -0.327 OA
HETATM   13  H   UNK N   1      37.770  14.290  10.095  0.00  0.00     0.220 HD
ENDBRANCH   8  12
ENDBRANCH   1   8
BRANCH   1  14
HETATM   14  O   UNK N   1      33.480  14.832  11.317  0.00  0.00    -0.368 OA
HETATM   15  H   UNK N   1      32.525  14.934  11.450  0.00  0.00     0.212 HD
ENDBRANCH   1  14
BRANCH   1  16
HETATM   16  C   UNK N   1      34.751  13.332   9.993  0.00  0.00     0.063 C 
BRANCH  16  17
HETATM   17  C   UNK N   1      35.142  12.494  11.204  0.00  0.00     0.004 C 
BRANCH  17  18
HETATM   18  C   UNK N   1      36.490  11.847  10.948  0.00  0.00     0.002 C 
BRANCH  18  19
HETATM   19  C   UNK N   1      37.456  12.121  12.086  0.00  0.00     0.019 C 
BRANCH  19  20
HETATM   20  C   UNK N   1      36.718  12.121  13.411  0.00  0.00     0.111 C 
BRANCH  20  21
HETATM   21  N   UNK N   1      37.169  13.240  14.216  0.00  0.00    -0.430 N 
HETATM   22  H   UNK N   1      36.718  14.154  14.178  0.00  0.00     0.149 HD
HETATM   23  H   UNK N   1      37.964  13.108  14.842  0.00  0.00     0.149 HD
ENDBRANCH  20  21
ENDBRANCH  19  20
ENDBRANCH  18  19
ENDBRANCH  17  18
ENDBRANCH  16  17
ENDBRANCH   1  16
TORSDOF 13
ENDMDL
MODEL 6
REMARK VINA RESULT:      -4.3     13.177     14.514
REMARK  13 active torsions:
REMARK  status: ('A' for Active; 'I' for Inactive)
REMARK    1  A    between atoms: P_2  and  C_1 
REMARK    2  A    between atoms: P_3  and  C_1 
REMARK    3  A    between atoms: O_6  and  C_1 
REMARK    4  A    between atoms: C_12  and  C_1 
REMARK    5  A    between atoms: O_8  and  P_2 
REMARK    6  A    between atoms: O_11  and  P_2 
REMARK    7  A    between atoms: O_9  and  P_3 
REMARK    8  A    between atoms: O_10  and  P_3 
REMARK    9  A    between atoms: N_7  and  C_13 
REMARK   10  A    between atoms: C_14  and  C_12 
REMARK   11  A    between atoms: C_13  and  C_15 
REMARK   12  A    between atoms: C_16  and  C_14 
REMARK   13  A    between atoms: C_15  and  C_16 
ROOT
HETATM    1  C   UNK N   1      21.398  18.554   3.684  0.00  0.00     0.252 C 
ENDROOT
BRANCH   1   2
HETATM    2  P   UNK N   1      20.184  17.304   3.007  0.00  0.00     0.283 P 
HETATM    3  O   UNK N   1      20.891  15.999   2.551  0.00  0.00    -0.651 OA
BRANCH   2   4
HETATM    4  O   UNK N   1      18.999  16.769   4.157  0.00  0.00    -0.327 OA
HETATM    5  H   UNK N   1      18.865  17.092   5.062  0.00  0.00     0.220 HD
ENDBRANCH   2   4
BRANCH   2   6
HETATM    6  O   UNK N   1      19.307  17.827   1.604  0.00  0.00    -0.327 OA
HETATM    7  H   UNK N   1      19.568  18.537   0.997  0.00  0.00     0.220 HD
ENDBRANCH   2   6
ENDBRANCH   1   2
BRANCH   1   8
HETATM    8  P   UNK N   1      21.129  20.222   2.882  0.00  0.00     0.283 P 
HETATM    9  O   UNK N   1      22.467  21.004   2.825  0.00  0.00    -0.651 OA
BRANCH   8  10
HETATM   10  O   UNK N   1      20.583  20.200   1.234  0.00  0.00    -0.327 OA
HETATM   11  H   UNK N   1      20.915  20.224   0.323  0.00  0.00     0.220 HD
ENDBRANCH   8  10
BRANCH   8  12
HETATM   12  O   UNK N   1      20.066  21.284   3.751  0.00  0.00    -0.327 OA
HETATM   13  H   UNK N   1      19.528  21.980   3.343  0.00  0.00     0.220 HD
ENDBRANCH   8  12
ENDBRANCH   1   8
BRANCH   1  14
HETATM   14  O   UNK N   1      21.161  18.688   5.052  0.00  0.00    -0.368 OA
HETATM   15  H   UNK N   1      20.531  19.071   5.682  0.00  0.00     0.212 HD
ENDBRANCH   1  14
BRANCH   1  16
HETATM   16  C   UNK N   1      22.841  18.079   3.494  0.00  0.00     0.063 C 
BRANCH  16  17
HETATM   17  C   UNK N   1      23.657  18.033   4.781  0.00  0.00     0.004 C 
BRANCH  17  18
HETATM   18  C   UNK N   1      24.687  19.146   4.757  0.00  0.00     0.002 C 
BRANCH  18  19
HETATM   19  C   UNK N   1      25.444  19.166   3.442  0.00  0.00     0.019 C 
BRANCH  19  20
HETATM   20  C   UNK N   1      26.515  20.239   3.470  0.00  0.00     0.111 C 
BRANCH  20  21
HETATM   21  N   UNK N   1      27.802  19.631   3.750  0.00  0.00    -0.430 N 
HETATM   22  H   UNK N   1      27.895  18.789   4.316  0.00  0.00     0.149 HD
HETATM   23  H   UNK N   1      28.644  20.063   3.366  0.00  0.00     0.149 HD
ENDBRANCH  20  21
ENDBRANCH  19  20
ENDBRANCH  18  19
ENDBRANCH  17  18
ENDBRANCH  16  17
ENDBRANCH   1  16
TORSDOF 13
ENDMDL
MODEL 7
REMARK VINA RESULT:      -4.2      3.622      5.782
REMARK  13 active torsions:
REMARK  status: ('A' for Active; 'I' for Inactive)
REMARK    1  A    between atoms: P_2  and  C_1 
REMARK    2  A    between atoms: P_3  and  C_1 
REMARK    3  A    between atoms: O_6  and  C_1 
REMARK    4  A    between atoms: C_12  and  C_1 
REMARK    5  A    between atoms: O_8  and  P_2 
REMARK    6  A    between atoms: O_11  and  P_2 
REMARK    7  A    between atoms: O_9  and  P_3 
REMARK    8  A    between atoms: O_10  and  P_3 
REMARK    9  A    between atoms: N_7  and  C_13 
REMARK   10  A    between atoms: C_14  and  C_12 
REMARK   11  A    between atoms: C_13  and  C_15 
REMARK   12  A    between atoms: C_16  and  C_14 
REMARK   13  A    between atoms: C_15  and  C_16 
ROOT
HETATM    1  C   UNK N   1      34.152  15.428   8.073  0.00  0.00     0.252 C 
ENDROOT
BRANCH   1   2
HETATM    2  P   UNK N   1      33.612  14.278   9.444  0.00  0.00     0.283 P 
HETATM    3  O   UNK N   1      34.773  13.367   9.928  0.00  0.00    -0.651 OA
BRANCH   2   4
HETATM    4  O   UNK N   1      33.076  15.088  10.882  0.00  0.00    -0.327 OA
HETATM    5  H   UNK N   1      32.747  15.997  10.962  0.00  0.00     0.220 HD
ENDBRANCH   2   4
BRANCH   2   6
HETATM    6  O   UNK N   1      32.353  13.166   9.007  0.00  0.00    -0.327 OA
HETATM    7  H   UNK N   1      31.629  13.337   8.385  0.00  0.00     0.220 HD
ENDBRANCH   2   6
ENDBRANCH   1   2
BRANCH   1   8
HETATM    8  P   UNK N   1      34.069  17.206   8.645  0.00  0.00     0.283 P 
HETATM    9  O   UNK N   1      34.902  17.385   9.941  0.00  0.00    -0.651 OA
BRANCH   8  10
HETATM   10  O   UNK N   1      34.722  18.391   7.558  0.00  0.00    -0.327 OA
HETATM   11  H   UNK N   1      34.514  18.870   6.740  0.00  0.00     0.220 HD
ENDBRANCH   8  10
BRANCH   8  12
HETATM   12  O   UNK N   1      32.484  17.753   9.094  0.00  0.00    -0.327 OA
HETATM   13  H   UNK N   1      31.784  17.990   8.465  0.00  0.00     0.220 HD
ENDBRANCH   8  12
ENDBRANCH   1   8
BRANCH   1  14
HETATM   14  O   UNK N   1      35.480  15.134   7.763  0.00  0.00    -0.368 OA
HETATM   15  H   UNK N   1      36.294  14.784   8.156  0.00  0.00     0.212 HD
ENDBRANCH   1  14
BRANCH   1  16
HETATM   16  C   UNK N   1      33.310  15.216   6.812  0.00  0.00     0.063 C 
BRANCH  16  17
HETATM   17  C   UNK N   1      34.059  15.475   5.510  0.00  0.00     0.004 C 
BRANCH  17  18
HETATM   18  C   UNK N   1      33.421  16.649   4.794  0.00  0.00     0.002 C 
BRANCH  18  19
HETATM   19  C   UNK N   1      32.052  16.966   5.370  0.00  0.00     0.019 C 
BRANCH  19  20
HETATM   20  C   UNK N   1      31.093  17.351   4.260  0.00  0.00     0.111 C 
BRANCH  20  21
HETATM   21  N   UNK N   1      31.787  17.309   2.986  0.00  0.00    -0.430 N 
HETATM   22  H   UNK N   1      31.895  16.446   2.454  0.00  0.00     0.149 HD
HETATM   23  H   UNK N   1      32.179  18.173   2.610  0.00  0.00     0.149 HD
ENDBRANCH  20  21
ENDBRANCH  19  20
ENDBRANCH  18  19
ENDBRANCH  17  18
ENDBRANCH  16  17
ENDBRANCH   1  16
TORSDOF 13
ENDMDL
MODEL 8
REMARK VINA RESULT:      -4.2     14.583     15.640
REMARK  13 active torsions:
REMARK  status: ('A' for Active; 'I' for Inactive)
REMARK    1  A    between atoms: P_2  and  C_1 
REMARK    2  A    between atoms: P_3  and  C_1 
REMARK    3  A    between atoms: O_6  and  C_1 
REMARK    4  A    between atoms: C_12  and  C_1 
REMARK    5  A    between atoms: O_8  and  P_2 
REMARK    6  A    between atoms: O_11  and  P_2 
REMARK    7  A    between atoms: O_9  and  P_3 
REMARK    8  A    between atoms: O_10  and  P_3 
REMARK    9  A    between atoms: N_7  and  C_13 
REMARK   10  A    between atoms: C_14  and  C_12 
REMARK   11  A    between atoms: C_13  and  C_15 
REMARK   12  A    between atoms: C_16  and  C_14 
REMARK   13  A    between atoms: C_15  and  C_16 
ROOT
HETATM    1  C   UNK N   1      20.369  17.079   2.708  0.00  0.00     0.252 C 
ENDROOT
BRANCH   1   2
HETATM    2  P   UNK N   1      20.258  16.208   1.058  0.00  0.00     0.283 P 
HETATM    3  O   UNK N   1      21.483  15.287   0.805  0.00  0.00    -0.651 OA
BRANCH   2   4
HETATM    4  O   UNK N   1      18.890  15.152   0.901  0.00  0.00    -0.327 OA
HETATM    5  H   UNK N   1      18.387  14.725   1.613  0.00  0.00     0.220 HD
ENDBRANCH   2   4
BRANCH   2   6
HETATM    6  O   UNK N   1      20.227  17.262  -0.321  0.00  0.00    -0.327 OA
HETATM    7  H   UNK N   1      20.953  17.408  -0.947  0.00  0.00     0.220 HD
ENDBRANCH   2   6
ENDBRANCH   1   2
BRANCH   1   8
HETATM    8  P   UNK N   1      19.797  18.852   2.548  0.00  0.00     0.283 P 
HETATM    9  O   UNK N   1      20.176  19.648   3.824  0.00  0.00    -0.651 OA
BRANCH   8  10
HETATM   10  O   UNK N   1      20.502  19.770   1.254  0.00  0.00    -0.327 OA
HETATM   11  H   UNK N   1      20.678  20.682   0.976  0.00  0.00     0.220 HD
ENDBRANCH   8  10
BRANCH   8  12
HETATM   12  O   UNK N   1      18.077  19.054   2.430  0.00  0.00    -0.327 OA
HETATM   13  H   UNK N   1      17.476  18.426   2.000  0.00  0.00     0.220 HD
ENDBRANCH   8  12
ENDBRANCH   1   8
BRANCH   1  14
HETATM   14  O   UNK N   1      19.514  16.427   3.597  0.00  0.00    -0.368 OA
HETATM   15  H   UNK N   1      18.576  16.333   3.821  0.00  0.00     0.212 HD
ENDBRANCH   1  14
BRANCH   1  16
HETATM   16  C   UNK N   1      21.790  17.008   3.274  0.00  0.00     0.063 C 
BRANCH  16  17
HETATM   17  C   UNK N   1      21.992  15.917   4.319  0.00  0.00     0.004 C 
BRANCH  17  18
HETATM   18  C   UNK N   1      22.567  16.534   5.579  0.00  0.00     0.002 C 
BRANCH  18  19
HETATM   19  C   UNK N   1      21.792  16.094   6.808  0.00  0.00     0.019 C 
BRANCH  19  20
HETATM   20  C   UNK N   1      20.576  16.978   7.005  0.00  0.00     0.111 C 
BRANCH  20  21
HETATM   21  N   UNK N   1      19.375  16.221   6.704  0.00  0.00    -0.430 N 
HETATM   22  H   UNK N   1      19.388  15.211   6.565  0.00  0.00     0.149 HD
HETATM   23  H   UNK N   1      18.487  16.718   6.628  0.00  0.00     0.149 HD
ENDBRANCH  20  21
ENDBRANCH  19  20
ENDBRANCH  18  19
ENDBRANCH  17  18
ENDBRANCH  16  17
ENDBRANCH   1  16
TORSDOF 13
ENDMDL
MODEL 9
REMARK VINA RESULT:      -4.2     12.798     14.481
REMARK  13 active torsions:
REMARK  status: ('A' for Active; 'I' for Inactive)
REMARK    1  A    between atoms: P_2  and  C_1 
REMARK    2  A    between atoms: P_3  and  C_1 
REMARK    3  A    between atoms: O_6  and  C_1 
REMARK    4  A    between atoms: C_12  and  C_1 
REMARK    5  A    between atoms: O_8  and  P_2 
REMARK    6  A    between atoms: O_11  and  P_2 
REMARK    7  A    between atoms: O_9  and  P_3 
REMARK    8  A    between atoms: O_10  and  P_3 
REMARK    9  A    between atoms: N_7  and  C_13 
REMARK   10  A    between atoms: C_14  and  C_12 
REMARK   11  A    between atoms: C_13  and  C_15 
REMARK   12  A    between atoms: C_16  and  C_14 
REMARK   13  A    between atoms: C_15  and  C_16 
ROOT
HETATM    1  C   UNK N   1      42.064  23.015   1.629  0.00  0.00     0.252 C 
ENDROOT
BRANCH   1   2
HETATM    2  P   UNK N   1      43.215  22.535   3.022  0.00  0.00     0.283 P 
HETATM    3  O   UNK N   1      44.617  22.122   2.499  0.00  0.00    -0.651 OA
BRANCH   2   4
HETATM    4  O   UNK N   1      43.539  23.813   4.150  0.00  0.00    -0.327 OA
HETATM    5  H   UNK N   1      43.161  24.707   4.156  0.00  0.00     0.220 HD
ENDBRANCH   2   4
BRANCH   2   6
HETATM    6  O   UNK N   1      42.692  21.171   3.960  0.00  0.00    -0.327 OA
HETATM    7  H   UNK N   1      43.004  20.258   3.865  0.00  0.00     0.220 HD
ENDBRANCH   2   6
ENDBRANCH   1   2
BRANCH   1   8
HETATM    8  P   UNK N   1      40.772  21.689   1.366  0.00  0.00     0.283 P 
HETATM    9  O   UNK N   1      41.460  20.327   1.090  0.00  0.00    -0.651 OA
BRANCH   8  10
HETATM   10  O   UNK N   1      39.722  21.367   2.710  0.00  0.00    -0.327 OA
HETATM   11  H   UNK N   1      38.807  21.120   2.919  0.00  0.00     0.220 HD
ENDBRANCH   8  10
BRANCH   8  12
HETATM   12  O   UNK N   1      39.757  21.928  -0.021  0.00  0.00    -0.327 OA
HETATM   13  H   UNK N   1      38.846  22.261   0.013  0.00  0.00     0.220 HD
ENDBRANCH   8  12
ENDBRANCH   1   8
BRANCH   1  14
HETATM   14  O   UNK N   1      41.410  24.191   1.997  0.00  0.00    -0.368 OA
HETATM   15  H   UNK N   1      41.424  24.893   2.666  0.00  0.00     0.212 HD
ENDBRANCH   1  14
BRANCH   1  16
HETATM   16  C   UNK N   1      42.844  23.287   0.340  0.00  0.00     0.063 C 
BRANCH  16  17
HETATM   17  C   UNK N   1      43.279  24.738   0.167  0.00  0.00     0.004 C 
BRANCH  17  18
HETATM   18  C   UNK N   1      44.786  24.825   0.310  0.00  0.00     0.002 C 
BRANCH  18  19
HETATM   19  C   UNK N   1      45.211  26.191   0.820  0.00  0.00     0.019 C 
BRANCH  19  20
HETATM   20  C   UNK N   1      45.782  26.072   2.220  0.00  0.00     0.111 C 
BRANCH  20  21
HETATM   21  N   UNK N   1      46.147  24.691   2.478  0.00  0.00    -0.430 N 
HETATM   22  H   UNK N   1      45.454  23.944   2.522  0.00  0.00     0.149 HD
HETATM   23  H   UNK N   1      47.131  24.460   2.619  0.00  0.00     0.149 HD
ENDBRANCH  20  21
ENDBRANCH  19  20
ENDBRANCH  18  19
ENDBRANCH  17  18
ENDBRANCH  16  17
ENDBRANCH   1  16
TORSDOF 13
ENDMDL
