MODEL 1
REMARK VINA RESULT:      -6.2      0.000      0.000
REMARK  1 active torsions:
REMARK  status: ('A' for Active; 'I' for Inactive)
REMARK    1  A    between atoms: N_16  and  C_5 
ROOT
HETATM    1  N   UNK N   1      34.727  12.515  16.043  0.00  0.00    -0.355 N 
ATOM      2  HN  UNK N   1      34.166  12.155  16.815  1.00  0.00     0.166 HD
HETATM    3  C   UNK N   1      34.623  11.931  14.822  0.00  0.00     0.045 A 
HETATM    4  C   UNK N   1      35.557  13.563  16.260  0.00  0.00     0.045 A 
HETATM    5  C   UNK N   1      36.259  13.498  13.930  0.00  0.00     0.051 A 
HETATM    6  C   UNK N   1      36.346  14.082  15.206  0.00  0.00     0.018 A 
HETATM    7  C   UNK N   1      35.390  12.412  13.734  0.00  0.00     0.018 A 
HETATM    8  C   UNK N   1      33.754  10.854  14.648  0.00  0.00     0.030 A 
HETATM    9  C   UNK N   1      35.629  14.129  17.533  0.00  0.00     0.030 A 
HETATM   10  C   UNK N   1      37.197  15.167  15.455  0.00  0.00     0.016 A 
HETATM   11  C   UNK N   1      35.265  11.793  12.482  0.00  0.00     0.016 A 
HETATM   12  C   UNK N   1      33.638  10.246  13.397  0.00  0.00     0.002 A 
HETATM   13  C   UNK N   1      37.262  15.727  16.735  0.00  0.00     0.001 A 
HETATM   14  C   UNK N   1      36.480  15.209  17.771  0.00  0.00     0.002 A 
HETATM   15  C   UNK N   1      34.392  10.714  12.317  0.00  0.00     0.001 A 
ENDROOT
BRANCH   5  16
HETATM   16  N   UNK N   1      37.037  13.997  12.859  0.00  0.00    -0.398 N 
HETATM   17  H   UNK N   1      36.709  13.917  11.933  0.00  0.00     0.156 HD
HETATM   18  H   UNK N   1      37.905  14.425  13.037  0.00  0.00     0.156 HD
ENDBRANCH   5  16
TORSDOF 1
ENDMDL
MODEL 2
REMARK VINA RESULT:      -6.2      0.105      4.659
REMARK  1 active torsions:
REMARK  status: ('A' for Active; 'I' for Inactive)
REMARK    1  A    between atoms: N_16  and  C_5 
ROOT
HETATM    1  N   UNK N   1      34.692  12.437  15.957  0.00  0.00    -0.355 N 
ATOM      2  HN  UNK N   1      34.120  12.062  16.714  1.00  0.00     0.166 HD
HETATM    3  C   UNK N   1      35.517  13.485  16.208  0.00  0.00     0.045 A 
HETATM    4  C   UNK N   1      34.609  11.877  14.726  0.00  0.00     0.045 A 
HETATM    5  C   UNK N   1      36.255  13.462  13.888  0.00  0.00     0.051 A 
HETATM    6  C   UNK N   1      35.391  12.377  13.657  0.00  0.00     0.018 A 
HETATM    7  C   UNK N   1      36.320  14.023  15.174  0.00  0.00     0.018 A 
HETATM    8  C   UNK N   1      35.566  14.027  17.491  0.00  0.00     0.030 A 
HETATM    9  C   UNK N   1      33.746  10.801  14.518  0.00  0.00     0.030 A 
HETATM   10  C   UNK N   1      35.289  11.781  12.394  0.00  0.00     0.016 A 
HETATM   11  C   UNK N   1      37.165  15.106  15.457  0.00  0.00     0.016 A 
HETATM   12  C   UNK N   1      36.411  15.105  17.761  0.00  0.00     0.002 A 
HETATM   13  C   UNK N   1      34.421  10.703  12.195  0.00  0.00     0.001 A 
HETATM   14  C   UNK N   1      33.651  10.214  13.255  0.00  0.00     0.002 A 
HETATM   15  C   UNK N   1      37.208  15.643  16.747  0.00  0.00     0.001 A 
ENDROOT
BRANCH   5  16
HETATM   16  N   UNK N   1      37.049  13.981  12.837  0.00  0.00    -0.398 N 
HETATM   17  H   UNK N   1      37.358  13.389  12.114  0.00  0.00     0.156 HD
HETATM   18  H   UNK N   1      37.293  14.935  12.829  0.00  0.00     0.156 HD
ENDBRANCH   5  16
TORSDOF 1
ENDMDL
MODEL 3
REMARK VINA RESULT:      -5.8     11.408     12.625
REMARK  1 active torsions:
REMARK  status: ('A' for Active; 'I' for Inactive)
REMARK    1  A    between atoms: N_16  and  C_5 
ROOT
HETATM    1  N   UNK N   1      28.606  18.955   7.660  0.00  0.00    -0.355 N 
ATOM      2  HN  UNK N   1      28.392  19.331   8.584  1.00  0.00     0.166 HD
HETATM    3  C   UNK N   1      29.532  17.969   7.546  0.00  0.00     0.045 A 
HETATM    4  C   UNK N   1      27.959  19.450   6.578  0.00  0.00     0.045 A 
HETATM    5  C   UNK N   1      29.191  17.925   5.136  0.00  0.00     0.051 A 
HETATM    6  C   UNK N   1      28.236  18.947   5.285  0.00  0.00     0.018 A 
HETATM    7  C   UNK N   1      29.847  17.431   6.276  0.00  0.00     0.018 A 
HETATM    8  C   UNK N   1      30.171  17.492   8.690  0.00  0.00     0.030 A 
HETATM    9  C   UNK N   1      27.015  20.464   6.747  0.00  0.00     0.030 A 
HETATM   10  C   UNK N   1      27.554  19.475   4.181  0.00  0.00     0.016 A 
HETATM   11  C   UNK N   1      30.807  16.413   6.182  0.00  0.00     0.016 A 
HETATM   12  C   UNK N   1      31.125  16.479   8.584  0.00  0.00     0.002 A 
HETATM   13  C   UNK N   1      26.610  20.491   4.361  0.00  0.00     0.001 A 
HETATM   14  C   UNK N   1      26.341  20.983   5.642  0.00  0.00     0.002 A 
HETATM   15  C   UNK N   1      31.443  15.941   7.334  0.00  0.00     0.001 A 
ENDROOT
BRANCH   5  16
HETATM   16  N   UNK N   1      29.488  17.403   3.854  0.00  0.00    -0.398 N 
HETATM   17  H   UNK N   1      29.467  17.993   3.066  0.00  0.00     0.156 HD
HETATM   18  H   UNK N   1      29.715  16.451   3.750  0.00  0.00     0.156 HD
ENDBRANCH   5  16
TORSDOF 1
ENDMDL
MODEL 4
REMARK VINA RESULT:      -5.8     11.410     12.560
REMARK  1 active torsions:
REMARK  status: ('A' for Active; 'I' for Inactive)
REMARK    1  A    between atoms: N_16  and  C_5 
ROOT
HETATM    1  N   UNK N   1      28.608  18.949   7.658  0.00  0.00    -0.355 N 
ATOM      2  HN  UNK N   1      28.397  19.325   8.582  1.00  0.00     0.166 HD
HETATM    3  C   UNK N   1      27.958  19.449   6.576  0.00  0.00     0.045 A 
HETATM    4  C   UNK N   1      29.531  17.964   7.540  0.00  0.00     0.045 A 
HETATM    5  C   UNK N   1      29.186  17.923   5.131  0.00  0.00     0.051 A 
HETATM    6  C   UNK N   1      29.844  17.424   6.269  0.00  0.00     0.018 A 
HETATM    7  C   UNK N   1      28.234  18.944   5.283  0.00  0.00     0.018 A 
HETATM    8  C   UNK N   1      27.017  20.463   6.749  0.00  0.00     0.030 A 
HETATM    9  C   UNK N   1      30.172  17.484   8.682  0.00  0.00     0.030 A 
HETATM   10  C   UNK N   1      30.801  16.407   6.172  0.00  0.00     0.016 A 
HETATM   11  C   UNK N   1      27.551  19.476   4.180  0.00  0.00     0.016 A 
HETATM   12  C   UNK N   1      26.342  20.984   5.644  0.00  0.00     0.002 A 
HETATM   13  C   UNK N   1      31.439  15.931   7.323  0.00  0.00     0.001 A 
HETATM   14  C   UNK N   1      31.124  16.469   8.575  0.00  0.00     0.002 A 
HETATM   15  C   UNK N   1      26.608  20.493   4.363  0.00  0.00     0.001 A 
ENDROOT
BRANCH   5  16
HETATM   16  N   UNK N   1      29.480  17.401   3.848  0.00  0.00    -0.398 N 
HETATM   17  H   UNK N   1      30.238  16.784   3.730  0.00  0.00     0.156 HD
HETATM   18  H   UNK N   1      28.928  17.655   3.074  0.00  0.00     0.156 HD
ENDBRANCH   5  16
TORSDOF 1
ENDMDL
MODEL 5
REMARK VINA RESULT:      -5.8      2.306      4.129
REMARK  1 active torsions:
REMARK  status: ('A' for Active; 'I' for Inactive)
REMARK    1  A    between atoms: N_16  and  C_5 
ROOT
HETATM    1  N   UNK N   1      34.374  12.373  12.221  0.00  0.00    -0.355 N 
ATOM      2  HN  UNK N   1      33.755  11.782  11.666  1.00  0.00     0.166 HD
HETATM    3  C   UNK N   1      34.644  12.024  13.505  0.00  0.00     0.045 A 
HETATM    4  C   UNK N   1      34.905  13.485  11.660  0.00  0.00     0.045 A 
HETATM    5  C   UNK N   1      36.065  13.987  13.741  0.00  0.00     0.051 A 
HETATM    6  C   UNK N   1      35.766  14.323  12.408  0.00  0.00     0.018 A 
HETATM    7  C   UNK N   1      35.500  12.827  14.296  0.00  0.00     0.018 A 
HETATM    8  C   UNK N   1      34.073  10.869  14.037  0.00  0.00     0.030 A 
HETATM    9  C   UNK N   1      34.597  13.802  10.337  0.00  0.00     0.030 A 
HETATM   10  C   UNK N   1      36.304  15.469  11.807  0.00  0.00     0.016 A 
HETATM   11  C   UNK N   1      35.765  12.447  15.620  0.00  0.00     0.016 A 
HETATM   12  C   UNK N   1      34.344  10.500  15.355  0.00  0.00     0.002 A 
HETATM   13  C   UNK N   1      35.989  15.777  10.480  0.00  0.00     0.001 A 
HETATM   14  C   UNK N   1      35.137  14.945   9.747  0.00  0.00     0.002 A 
HETATM   15  C   UNK N   1      35.187  11.287  16.145  0.00  0.00     0.001 A 
ENDROOT
BRANCH   5  16
HETATM   16  N   UNK N   1      36.923  14.807  14.512  0.00  0.00    -0.398 N 
HETATM   17  H   UNK N   1      37.645  15.313  14.073  0.00  0.00     0.156 HD
HETATM   18  H   UNK N   1      36.799  14.872  15.486  0.00  0.00     0.156 HD
ENDBRANCH   5  16
TORSDOF 1
ENDMDL
MODEL 6
REMARK VINA RESULT:      -5.7      9.704     11.395
REMARK  1 active torsions:
REMARK  status: ('A' for Active; 'I' for Inactive)
REMARK    1  A    between atoms: N_16  and  C_5 
ROOT
HETATM    1  N   UNK N   1      29.478  17.187   5.751  0.00  0.00    -0.355 N 
ATOM      2  HN  UNK N   1      28.603  17.050   5.245  1.00  0.00     0.166 HD
HETATM    3  C   UNK N   1      29.436  17.496   7.072  0.00  0.00     0.045 A 
HETATM    4  C   UNK N   1      30.652  17.057   5.089  0.00  0.00     0.045 A 
HETATM    5  C   UNK N   1      31.869  17.562   7.135  0.00  0.00     0.051 A 
HETATM    6  C   UNK N   1      31.881  17.242   5.766  0.00  0.00     0.018 A 
HETATM    7  C   UNK N   1      30.636  17.692   7.796  0.00  0.00     0.018 A 
HETATM    8  C   UNK N   1      28.202  17.620   7.709  0.00  0.00     0.030 A 
HETATM    9  C   UNK N   1      30.643  16.738   3.730  0.00  0.00     0.030 A 
HETATM   10  C   UNK N   1      33.083  17.101   5.061  0.00  0.00     0.016 A 
HETATM   11  C   UNK N   1      30.569  18.010   9.160  0.00  0.00     0.016 A 
HETATM   12  C   UNK N   1      28.147  17.937   9.067  0.00  0.00     0.002 A 
HETATM   13  C   UNK N   1      33.063  16.782   3.699  0.00  0.00     0.001 A 
HETATM   14  C   UNK N   1      31.845  16.600   3.036  0.00  0.00     0.002 A 
HETATM   15  C   UNK N   1      29.327  18.132   9.791  0.00  0.00     0.001 A 
ENDROOT
BRANCH   5  16
HETATM   16  N   UNK N   1      33.083  17.753   7.837  0.00  0.00    -0.398 N 
HETATM   17  H   UNK N   1      33.536  16.985   8.256  0.00  0.00     0.156 HD
HETATM   18  H   UNK N   1      33.476  18.652   7.908  0.00  0.00     0.156 HD
ENDBRANCH   5  16
TORSDOF 1
ENDMDL
MODEL 7
REMARK VINA RESULT:      -5.7      9.697     10.966
REMARK  1 active torsions:
REMARK  status: ('A' for Active; 'I' for Inactive)
REMARK    1  A    between atoms: N_16  and  C_5 
ROOT
HETATM    1  N   UNK N   1      29.472  17.185   5.764  0.00  0.00    -0.355 N 
ATOM      2  HN  UNK N   1      28.598  17.047   5.256  1.00  0.00     0.166 HD
HETATM    3  C   UNK N   1      30.650  17.054   5.102  0.00  0.00     0.045 A 
HETATM    4  C   UNK N   1      29.429  17.495   7.083  0.00  0.00     0.045 A 
HETATM    5  C   UNK N   1      31.861  17.562   7.152  0.00  0.00     0.051 A 
HETATM    6  C   UNK N   1      30.626  17.692   7.812  0.00  0.00     0.018 A 
HETATM    7  C   UNK N   1      31.876  17.241   5.785  0.00  0.00     0.018 A 
HETATM    8  C   UNK N   1      30.642  16.734   3.745  0.00  0.00     0.030 A 
HETATM    9  C   UNK N   1      28.193  17.618   7.719  0.00  0.00     0.030 A 
HETATM   10  C   UNK N   1      30.556  18.011   9.174  0.00  0.00     0.016 A 
HETATM   11  C   UNK N   1      33.080  17.100   5.080  0.00  0.00     0.016 A 
HETATM   12  C   UNK N   1      31.847  16.597   3.054  0.00  0.00     0.002 A 
HETATM   13  C   UNK N   1      29.313  18.133   9.803  0.00  0.00     0.001 A 
HETATM   14  C   UNK N   1      28.134  17.937   9.076  0.00  0.00     0.002 A 
HETATM   15  C   UNK N   1      33.063  16.780   3.720  0.00  0.00     0.001 A 
ENDROOT
BRANCH   5  16
HETATM   16  N   UNK N   1      33.073  17.754   7.857  0.00  0.00    -0.398 N 
HETATM   17  H   UNK N   1      33.933  17.705   7.380  0.00  0.00     0.156 HD
HETATM   18  H   UNK N   1      33.057  17.936   8.824  0.00  0.00     0.156 HD
ENDBRANCH   5  16
TORSDOF 1
ENDMDL
MODEL 8
REMARK VINA RESULT:      -5.7      2.309      4.070
REMARK  1 active torsions:
REMARK  status: ('A' for Active; 'I' for Inactive)
REMARK    1  A    between atoms: N_16  and  C_5 
ROOT
HETATM    1  N   UNK N   1      34.398  12.101  12.100  0.00  0.00    -0.355 N 
ATOM      2  HN  UNK N   1      33.821  11.432  11.590  1.00  0.00     0.166 HD
HETATM    3  C   UNK N   1      34.930  13.158  11.436  0.00  0.00     0.045 A 
HETATM    4  C   UNK N   1      34.615  11.913  13.424  0.00  0.00     0.045 A 
HETATM    5  C   UNK N   1      35.974  13.930  13.494  0.00  0.00     0.051 A 
HETATM    6  C   UNK N   1      35.411  12.825  14.157  0.00  0.00     0.018 A 
HETATM    7  C   UNK N   1      35.733  14.100  12.121  0.00  0.00     0.018 A 
HETATM    8  C   UNK N   1      34.678  13.309  10.073  0.00  0.00     0.030 A 
HETATM    9  C   UNK N   1      34.046  10.810  14.063  0.00  0.00     0.030 A 
HETATM   10  C   UNK N   1      35.620  12.610  15.525  0.00  0.00     0.016 A 
HETATM   11  C   UNK N   1      36.272  15.185  11.414  0.00  0.00     0.016 A 
HETATM   12  C   UNK N   1      35.219  14.392   9.379  0.00  0.00     0.002 A 
HETATM   13  C   UNK N   1      35.046  11.501  16.156  0.00  0.00     0.001 A 
HETATM   14  C   UNK N   1      34.261  10.604  15.426  0.00  0.00     0.002 A 
HETATM   15  C   UNK N   1      36.014  15.328  10.047  0.00  0.00     0.001 A 
ENDROOT
BRANCH   5  16
HETATM   16  N   UNK N   1      36.774  14.858  14.203  0.00  0.00    -0.398 N 
HETATM   17  H   UNK N   1      37.715  14.995  13.945  0.00  0.00     0.156 HD
HETATM   18  H   UNK N   1      36.391  15.367  14.954  0.00  0.00     0.156 HD
ENDBRANCH   5  16
TORSDOF 1
ENDMDL
MODEL 9
REMARK VINA RESULT:      -5.6      1.153      2.827
REMARK  1 active torsions:
REMARK  status: ('A' for Active; 'I' for Inactive)
REMARK    1  A    between atoms: N_16  and  C_5 
ROOT
HETATM    1  N   UNK N   1      36.987  14.175  13.984  0.00  0.00    -0.355 N 
ATOM      2  HN  UNK N   1      37.732  14.823  13.727  1.00  0.00     0.166 HD
HETATM    3  C   UNK N   1      36.495  13.328  13.045  0.00  0.00     0.045 A 
HETATM    4  C   UNK N   1      36.514  14.182  15.253  0.00  0.00     0.045 A 
HETATM    5  C   UNK N   1      34.951  12.404  14.685  0.00  0.00     0.051 A 
HETATM    6  C   UNK N   1      35.481  13.293  15.637  0.00  0.00     0.018 A 
HETATM    7  C   UNK N   1      35.462  12.419  13.376  0.00  0.00     0.018 A 
HETATM    8  C   UNK N   1      37.016  13.359  11.752  0.00  0.00     0.030 A 
HETATM    9  C   UNK N   1      37.052  15.072  16.182  0.00  0.00     0.030 A 
HETATM   10  C   UNK N   1      35.007  13.318  16.955  0.00  0.00     0.016 A 
HETATM   11  C   UNK N   1      34.969  11.553  12.390  0.00  0.00     0.016 A 
HETATM   12  C   UNK N   1      36.518  12.492  10.778  0.00  0.00     0.002 A 
HETATM   13  C   UNK N   1      35.554  14.215  17.879  0.00  0.00     0.001 A 
HETATM   14  C   UNK N   1      36.574  15.089  17.493  0.00  0.00     0.002 A 
HETATM   15  C   UNK N   1      35.497  11.592  11.096  0.00  0.00     0.001 A 
ENDROOT
BRANCH   5  16
HETATM   16  N   UNK N   1      33.918  11.505  15.041  0.00  0.00    -0.398 N 
HETATM   17  H   UNK N   1      33.336  11.704  15.811  0.00  0.00     0.156 HD
HETATM   18  H   UNK N   1      33.780  10.681  14.521  0.00  0.00     0.156 HD
ENDBRANCH   5  16
TORSDOF 1
ENDMDL
