REMARK  13 active torsions:
REMARK  status: ('A' for Active; 'I' for Inactive)
REMARK    1  A    between atoms: P_2  and  C_1 
REMARK    2  A    between atoms: P_3  and  C_1 
REMARK    3  A    between atoms: O_6  and  C_1 
REMARK    4  A    between atoms: C_12  and  C_1 
REMARK    5  A    between atoms: O_8  and  P_2 
REMARK    6  A    between atoms: O_11  and  P_2 
REMARK    7  A    between atoms: O_9  and  P_3 
REMARK    8  A    between atoms: O_10  and  P_3 
REMARK    9  A    between atoms: N_7  and  C_13 
REMARK   10  A    between atoms: C_14  and  C_12 
REMARK   11  A    between atoms: C_13  and  C_15 
REMARK   12  A    between atoms: C_16  and  C_14 
REMARK   13  A    between atoms: C_15  and  C_16 
ROOT
HETATM    1  C   UNK N   1      -2.299  -0.081  -0.756  0.00  0.00     0.252 C 
ENDROOT
BRANCH   1   2
HETATM    2  P   UNK N   1      -2.718   1.391   0.317  0.00  0.00     0.283 P 
HETATM    3  O   UNK N   1      -1.740   1.532   1.515  0.00  0.00    -0.651 OA
BRANCH   2   4
HETATM    4  O   UNK N   1      -2.616   2.919  -0.500  0.00  0.00    -0.327 OA
HETATM    5  H   UNK N   1      -1.847   3.296  -0.956  0.00  0.00     0.220 HD
ENDBRANCH   2   4
BRANCH   2   6
HETATM    6  O   UNK N   1      -4.288   1.331   1.054  0.00  0.00    -0.327 OA
HETATM    7  H   UNK N   1      -4.756   2.074   1.466  0.00  0.00     0.220 HD
ENDBRANCH   2   6
ENDBRANCH   1   2
BRANCH   1   8
HETATM    8  P   UNK N   1      -2.471  -1.667   0.219  0.00  0.00     0.283 P 
HETATM    9  O   UNK N   1      -2.214  -2.887  -0.704  0.00  0.00    -0.651 OA
BRANCH   8  10
HETATM   10  O   UNK N   1      -1.352  -1.886   1.528  0.00  0.00    -0.327 OA
HETATM   11  H   UNK N   1      -1.145  -2.489   2.259  0.00  0.00     0.220 HD
ENDBRANCH   8  10
BRANCH   8  12
HETATM   12  O   UNK N   1      -4.058  -1.960   0.858  0.00  0.00    -0.327 OA
HETATM   13  H   UNK N   1      -4.644  -1.274   1.215  0.00  0.00     0.220 HD
ENDBRANCH   8  12
ENDBRANCH   1   8
BRANCH   1  14
HETATM   14  O   UNK N   1      -3.212  -0.119  -1.810  0.00  0.00    -0.368 OA
HETATM   15  H   UNK N   1      -3.552   0.417  -2.543  0.00  0.00     0.212 HD
ENDBRANCH   1  14
BRANCH   1  16
HETATM   16  C   UNK N   1      -0.893   0.051  -1.348  0.00  0.00     0.063 C 
BRANCH  16  17
HETATM   17  C   UNK N   1       0.220   0.104  -0.308  0.00  0.00     0.004 C 
BRANCH  17  18
HETATM   18  C   UNK N   1       1.194  -1.030  -0.563  0.00  0.00     0.002 C 
BRANCH  18  19
HETATM   19  C   UNK N   1       2.398  -0.937   0.357  0.00  0.00     0.019 C 
BRANCH  19  20
HETATM   20  C   UNK N   1       3.378   0.095  -0.166  0.00  0.00     0.111 C 
BRANCH  20  21
HETATM   21  N   UNK N   1       4.727  -0.284   0.212  0.00  0.00    -0.430 N 
HETATM   22  H   UNK N   1       4.970  -1.238   0.477  0.00  0.00     0.149 HD
HETATM   23  H   UNK N   1       5.457   0.429   0.212  0.00  0.00     0.149 HD
ENDBRANCH  20  21
ENDBRANCH  19  20
ENDBRANCH  18  19
ENDBRANCH  17  18
ENDBRANCH  16  17
ENDBRANCH   1  16
TORSDOF 13
