MODEL 1
REMARK VINA RESULT:      -7.7      0.000      0.000
REMARK  5 active torsions:
REMARK  status: ('A' for Active; 'I' for Inactive)
REMARK    1  A    between atoms: C_7  and  C_4 
REMARK    2  A    between atoms: C_13  and  C_4 
REMARK    3  A    between atoms: C_21  and  C_7 
REMARK    4  A    between atoms: C_16  and  C_13 
REMARK    5  A    between atoms: O_29  and  C_21 
ROOT
HETATM    1  C   UNK N   1      33.537  23.022  -5.181  0.00  0.00     0.016 C 
HETATM    2  C   UNK N   1      29.600  26.597  -5.244  0.00  0.00     0.024 C 
HETATM    3  C   UNK N   1      27.025  24.339  -3.627  0.00  0.00     0.006 C 
HETATM    4  C   UNK N   1      28.339  23.730  -3.149  0.00  0.00     0.007 C 
HETATM    5  C   UNK N   1      32.203  20.213  -6.831  0.00  0.00     0.079 C 
HETATM    6  C   UNK N   1      32.152  21.744  -6.770  0.00  0.00     0.017 C 
HETATM    7  C   UNK N   1      33.092  20.162  -4.395  0.00  0.00     0.084 C 
HETATM    8  C   UNK N   1      32.172  21.890  -2.862  0.00  0.00     0.084 C 
HETATM    9  C   UNK N   1      29.693  23.001  -5.762  0.00  0.00     0.085 C 
HETATM   10  C   UNK N   1      32.019  21.247  -4.240  0.00  0.00     0.008 C 
HETATM   11  C   UNK N   1      33.161  19.675  -5.814  0.00  0.00     0.127 C 
HETATM   12  C   UNK N   1      27.424  25.625  -4.331  0.00  0.00     0.005 C 
HETATM   13  C   UNK N   1      29.473  24.698  -3.559  0.00  0.00     0.013 C 
HETATM   14  C   UNK N   1      31.054  23.415  -5.200  0.00  0.00     0.013 C 
HETATM   15  C   UNK N   1      31.107  22.918  -2.674  0.00  0.00     0.132 C 
HETATM   16  C   UNK N   1      28.944  24.298  -5.976  0.00  0.00     0.136 C 
HETATM   17  C   UNK N   1      30.872  23.986  -3.748  0.00  0.00     0.066 C 
HETATM   18  C   UNK N   1      32.173  22.340  -5.337  0.00  0.00    -0.035 C 
HETATM   19  C   UNK N   1      28.862  25.327  -4.835  0.00  0.00     0.025 C 
HETATM   20  O   UNK N   1      34.023  18.879  -6.147  0.00  0.00    -0.298 OA
HETATM   21  O   UNK N   1      30.414  22.858  -1.671  0.00  0.00    -0.298 OA
HETATM   22  O   UNK N   1      28.548  24.571  -7.098  0.00  0.00    -0.297 OA
ENDROOT
BRANCH  12  23
HETATM   23  C   UNK N   1      26.336  26.169  -5.300  0.00  0.00    -0.013 C 
HETATM   24  C   UNK N   1      25.236  25.166  -5.594  0.00  0.00     0.010 C 
BRANCH  23  25
HETATM   25  C   UNK N   1      25.603  27.397  -4.732  0.00  0.00     0.015 C 
BRANCH  25  26
HETATM   26  C   UNK N   1      25.989  27.836  -3.320  0.00  0.00     0.110 C 
BRANCH  26  27
HETATM   27  C   UNK N   1      26.673  29.162  -3.283  0.00  0.00     0.139 C 
HETATM   28  O   UNK N   1      27.843  29.243  -2.946  0.00  0.00    -0.650 OA
BRANCH  27  29
HETATM   29  O   UNK N   1      26.003  30.268  -3.654  0.00  0.00    -0.776 OA
HETATM   30  H   UNK N   1      25.212  30.446  -4.123  0.00  0.00     0.167 HD
ENDBRANCH  27  29
ENDBRANCH  26  27
ENDBRANCH  25  26
ENDBRANCH  23  25
ENDBRANCH  12  23
TORSDOF 5
ENDMDL
MODEL 2
REMARK VINA RESULT:      -7.3     14.860     17.627
REMARK  5 active torsions:
REMARK  status: ('A' for Active; 'I' for Inactive)
REMARK    1  A    between atoms: C_7  and  C_4 
REMARK    2  A    between atoms: C_13  and  C_4 
REMARK    3  A    between atoms: C_21  and  C_7 
REMARK    4  A    between atoms: C_16  and  C_13 
REMARK    5  A    between atoms: O_29  and  C_21 
ROOT
HETATM    1  C   UNK N   1      21.910  16.185   2.687  0.00  0.00     0.016 C 
HETATM    2  C   UNK N   1      22.092  12.495   6.513  0.00  0.00     0.024 C 
HETATM    3  C   UNK N   1      20.280  14.569   9.113  0.00  0.00     0.006 C 
HETATM    4  C   UNK N   1      19.798  15.191   7.807  0.00  0.00     0.007 C 
HETATM    5  C   UNK N   1      23.356  19.043   4.150  0.00  0.00     0.079 C 
HETATM    6  C   UNK N   1      23.385  17.509   4.152  0.00  0.00     0.017 C 
HETATM    7  C   UNK N   1      20.944  18.978   3.199  0.00  0.00     0.084 C 
HETATM    8  C   UNK N   1      19.495  17.133   4.025  0.00  0.00     0.084 C 
HETATM    9  C   UNK N   1      22.395  16.117   6.544  0.00  0.00     0.085 C 
HETATM   10  C   UNK N   1      20.828  17.851   4.234  0.00  0.00     0.008 C 
HETATM   11  C   UNK N   1      22.332  19.550   3.182  0.00  0.00     0.127 C 
HETATM   12  C   UNK N   1      21.070  13.341   8.693  0.00  0.00     0.005 C 
HETATM   13  C   UNK N   1      20.293  14.286   6.655  0.00  0.00     0.013 C 
HETATM   14  C   UNK N   1      21.893  15.714   5.157  0.00  0.00     0.013 C 
HETATM   15  C   UNK N   1      19.343  16.062   5.053  0.00  0.00     0.132 C 
HETATM   16  C   UNK N   1      22.669  14.812   7.259  0.00  0.00     0.136 C 
HETATM   17  C   UNK N   1      20.474  15.052   5.283  0.00  0.00     0.066 C 
HETATM   18  C   UNK N   1      21.992  16.831   4.076  0.00  0.00    -0.035 C 
HETATM   19  C   UNK N   1      21.589  13.714   7.279  0.00  0.00     0.025 C 
HETATM   20  O   UNK N   1      22.637  20.391   2.354  0.00  0.00    -0.298 OA
HETATM   21  O   UNK N   1      18.321  16.040   5.721  0.00  0.00    -0.298 OA
HETATM   22  O   UNK N   1      23.795  14.592   7.675  0.00  0.00    -0.297 OA
ENDROOT
BRANCH  12  23
HETATM   23  C   UNK N   1      22.043  12.820   9.790  0.00  0.00    -0.013 C 
HETATM   24  C   UNK N   1      21.342  12.427  11.077  0.00  0.00     0.010 C 
BRANCH  23  25
HETATM   25  C   UNK N   1      22.799  11.553   9.353  0.00  0.00     0.015 C 
BRANCH  25  26
HETATM   26  C   UNK N   1      24.324  11.630   9.347  0.00  0.00     0.110 C 
BRANCH  26  27
HETATM   27  C   UNK N   1      24.875  12.463  10.456  0.00  0.00     0.139 C 
HETATM   28  O   UNK N   1      24.862  12.049  11.604  0.00  0.00    -0.650 OA
BRANCH  27  29
HETATM   29  O   UNK N   1      25.417  13.663  10.182  0.00  0.00    -0.776 OA
HETATM   30  H   UNK N   1      25.852  14.330  10.675  0.00  0.00     0.167 HD
ENDBRANCH  27  29
ENDBRANCH  26  27
ENDBRANCH  25  26
ENDBRANCH  23  25
ENDBRANCH  12  23
TORSDOF 5
ENDMDL
MODEL 3
REMARK VINA RESULT:      -7.3      1.781      8.116
REMARK  5 active torsions:
REMARK  status: ('A' for Active; 'I' for Inactive)
REMARK    1  A    between atoms: C_7  and  C_4 
REMARK    2  A    between atoms: C_13  and  C_4 
REMARK    3  A    between atoms: C_21  and  C_7 
REMARK    4  A    between atoms: C_16  and  C_13 
REMARK    5  A    between atoms: O_29  and  C_21 
ROOT
HETATM    1  C   UNK N   1      27.378  27.142  -6.206  0.00  0.00     0.016 C 
HETATM    2  C   UNK N   1      30.377  22.750  -6.222  0.00  0.00     0.024 C 
HETATM    3  C   UNK N   1      30.524  22.389  -2.454  0.00  0.00     0.006 C 
HETATM    4  C   UNK N   1      29.246  23.198  -2.655  0.00  0.00     0.007 C 
HETATM    5  C   UNK N   1      29.144  29.407  -4.169  0.00  0.00     0.079 C 
HETATM    6  C   UNK N   1      29.315  28.236  -5.145  0.00  0.00     0.017 C 
HETATM    7  C   UNK N   1      26.720  28.624  -3.682  0.00  0.00     0.084 C 
HETATM    8  C   UNK N   1      26.354  26.164  -3.653  0.00  0.00     0.084 C 
HETATM    9  C   UNK N   1      30.275  25.675  -4.068  0.00  0.00     0.085 C 
HETATM   10  C   UNK N   1      27.420  27.259  -3.691  0.00  0.00     0.008 C 
HETATM   11  C   UNK N   1      27.694  29.728  -3.979  0.00  0.00     0.127 C 
HETATM   12  C   UNK N   1      30.959  21.992  -3.855  0.00  0.00     0.005 C 
HETATM   13  C   UNK N   1      28.950  23.223  -4.172  0.00  0.00     0.013 C 
HETATM   14  C   UNK N   1      29.029  25.718  -4.953  0.00  0.00     0.013 C 
HETATM   15  C   UNK N   1      27.017  24.828  -3.615  0.00  0.00     0.132 C 
HETATM   16  C   UNK N   1      31.075  24.493  -4.569  0.00  0.00     0.136 C 
HETATM   17  C   UNK N   1      28.112  24.484  -4.631  0.00  0.00     0.066 C 
HETATM   18  C   UNK N   1      28.287  27.088  -4.972  0.00  0.00    -0.035 C 
HETATM   19  C   UNK N   1      30.385  23.128  -4.745  0.00  0.00     0.025 C 
HETATM   20  O   UNK N   1      27.298  30.873  -4.108  0.00  0.00    -0.298 OA
HETATM   21  O   UNK N   1      26.691  24.044  -2.737  0.00  0.00    -0.298 OA
HETATM   22  O   UNK N   1      32.212  24.678  -4.970  0.00  0.00    -0.297 OA
ENDROOT
BRANCH  12  23
HETATM   23  C   UNK N   1      32.456  21.582  -3.950  0.00  0.00    -0.013 C 
HETATM   24  C   UNK N   1      33.099  21.336  -2.598  0.00  0.00     0.010 C 
BRANCH  23  25
HETATM   25  C   UNK N   1      32.659  20.268  -4.725  0.00  0.00     0.015 C 
BRANCH  25  26
HETATM   26  C   UNK N   1      34.101  19.857  -5.015  0.00  0.00     0.110 C 
BRANCH  26  27
HETATM   27  C   UNK N   1      34.483  18.563  -4.377  0.00  0.00     0.139 C 
HETATM   28  O   UNK N   1      35.601  18.101  -4.539  0.00  0.00    -0.650 OA
BRANCH  27  29
HETATM   29  O   UNK N   1      33.599  17.920  -3.594  0.00  0.00    -0.776 OA
HETATM   30  H   UNK N   1      33.212  17.067  -3.581  0.00  0.00     0.167 HD
ENDBRANCH  27  29
ENDBRANCH  26  27
ENDBRANCH  25  26
ENDBRANCH  23  25
ENDBRANCH  12  23
TORSDOF 5
ENDMDL
MODEL 4
REMARK VINA RESULT:      -7.3     22.494     25.718
REMARK  5 active torsions:
REMARK  status: ('A' for Active; 'I' for Inactive)
REMARK    1  A    between atoms: C_7  and  C_4 
REMARK    2  A    between atoms: C_13  and  C_4 
REMARK    3  A    between atoms: C_21  and  C_7 
REMARK    4  A    between atoms: C_16  and  C_13 
REMARK    5  A    between atoms: O_29  and  C_21 
ROOT
HETATM    1  C   UNK N   1      34.363   8.041  18.839  0.00  0.00     0.016 C 
HETATM    2  C   UNK N   1      33.737  11.092  14.528  0.00  0.00     0.024 C 
HETATM    3  C   UNK N   1      37.396  12.010  14.190  0.00  0.00     0.006 C 
HETATM    4  C   UNK N   1      37.460  10.697  14.964  0.00  0.00     0.007 C 
HETATM    5  C   UNK N   1      35.999  10.123  21.161  0.00  0.00     0.079 C 
HETATM    6  C   UNK N   1      35.008  10.123  19.990  0.00  0.00     0.017 C 
HETATM    7  C   UNK N   1      36.968   7.870  20.316  0.00  0.00     0.084 C 
HETATM    8  C   UNK N   1      37.071   7.584  17.848  0.00  0.00     0.084 C 
HETATM    9  C   UNK N   1      35.868  11.351  17.461  0.00  0.00     0.085 C 
HETATM   10  C   UNK N   1      36.817   8.590  18.970  0.00  0.00     0.008 C 
HETATM   11  C   UNK N   1      36.480   8.733  21.444  0.00  0.00     0.127 C 
HETATM   12  C   UNK N   1      35.936  12.162  13.798  0.00  0.00     0.005 C 
HETATM   13  C   UNK N   1      36.034  10.098  14.974  0.00  0.00     0.013 C 
HETATM   14  C   UNK N   1      35.254   9.950  17.466  0.00  0.00     0.013 C 
HETATM   15  C   UNK N   1      36.973   8.276  16.530  0.00  0.00     0.132 C 
HETATM   16  C   UNK N   1      35.214  12.063  16.297  0.00  0.00     0.136 C 
HETATM   17  C   UNK N   1      35.756   9.151  16.210  0.00  0.00     0.066 C 
HETATM   18  C   UNK N   1      35.387   9.183  18.816  0.00  0.00    -0.035 C 
HETATM   19  C   UNK N   1      35.182  11.389  14.913  0.00  0.00     0.025 C 
HETATM   20  O   UNK N   1      36.434   8.289  22.578  0.00  0.00    -0.298 OA
HETATM   21  O   UNK N   1      37.899   8.157  15.742  0.00  0.00    -0.298 OA
HETATM   22  O   UNK N   1      34.590  13.090  16.510  0.00  0.00    -0.297 OA
ENDROOT
BRANCH  12  23
HETATM   23  C   UNK N   1      35.539  13.619  13.427  0.00  0.00    -0.013 C 
HETATM   24  C   UNK N   1      36.464  14.664  14.021  0.00  0.00     0.010 C 
BRANCH  23  25
HETATM   25  C   UNK N   1      35.582  13.874  11.910  0.00  0.00     0.015 C 
BRANCH  25  26
HETATM   26  C   UNK N   1      34.795  15.076  11.392  0.00  0.00     0.110 C 
BRANCH  26  27
HETATM   27  C   UNK N   1      35.667  16.183  10.900  0.00  0.00     0.139 C 
HETATM   28  O   UNK N   1      35.179  17.249  10.563  0.00  0.00    -0.650 OA
BRANCH  27  29
HETATM   29  O   UNK N   1      37.001  16.012  10.861  0.00  0.00    -0.776 OA
HETATM   30  H   UNK N   1      37.603  15.566  10.299  0.00  0.00     0.167 HD
ENDBRANCH  27  29
ENDBRANCH  26  27
ENDBRANCH  25  26
ENDBRANCH  23  25
ENDBRANCH  12  23
TORSDOF 5
ENDMDL
MODEL 5
REMARK VINA RESULT:      -7.2     10.955     12.959
REMARK  5 active torsions:
REMARK  status: ('A' for Active; 'I' for Inactive)
REMARK    1  A    between atoms: C_7  and  C_4 
REMARK    2  A    between atoms: C_13  and  C_4 
REMARK    3  A    between atoms: C_21  and  C_7 
REMARK    4  A    between atoms: C_16  and  C_13 
REMARK    5  A    between atoms: O_29  and  C_21 
ROOT
HETATM    1  C   UNK N   1      32.745  17.967   7.517  0.00  0.00     0.016 C 
HETATM    2  C   UNK N   1      28.411  19.323   4.749  0.00  0.00     0.024 C 
HETATM    3  C   UNK N   1      26.276  16.443   5.971  0.00  0.00     0.006 C 
HETATM    4  C   UNK N   1      27.310  16.577   7.084  0.00  0.00     0.007 C 
HETATM    5  C   UNK N   1      33.378  14.631   6.583  0.00  0.00     0.079 C 
HETATM    6  C   UNK N   1      32.807  15.964   6.082  0.00  0.00     0.017 C 
HETATM    7  C   UNK N   1      32.938  15.382   9.027  0.00  0.00     0.084 C 
HETATM    8  C   UNK N   1      30.884  16.734   9.399  0.00  0.00     0.084 C 
HETATM    9  C   UNK N   1      29.912  16.123   5.595  0.00  0.00     0.085 C 
HETATM   10  C   UNK N   1      31.637  15.877   8.382  0.00  0.00     0.008 C 
HETATM   11  C   UNK N   1      33.840  14.756   8.002  0.00  0.00     0.127 C 
HETATM   12  C   UNK N   1      26.520  17.638   5.064  0.00  0.00     0.005 C 
HETATM   13  C   UNK N   1      28.112  17.871   6.814  0.00  0.00     0.013 C 
HETATM   14  C   UNK N   1      30.609  17.191   6.439  0.00  0.00     0.013 C 
HETATM   15  C   UNK N   1      29.593  17.188   8.805  0.00  0.00     0.132 C 
HETATM   16  C   UNK N   1      28.984  16.890   4.679  0.00  0.00     0.136 C 
HETATM   17  C   UNK N   1      29.573  17.846   7.421  0.00  0.00     0.066 C 
HETATM   18  C   UNK N   1      31.936  16.728   7.114  0.00  0.00    -0.035 C 
HETATM   19  C   UNK N   1      28.029  17.942   5.270  0.00  0.00     0.025 C 
HETATM   20  O   UNK N   1      34.960  14.391   8.315  0.00  0.00    -0.298 OA
HETATM   21  O   UNK N   1      28.564  16.986   9.431  0.00  0.00    -0.298 OA
HETATM   22  O   UNK N   1      29.116  16.770   3.471  0.00  0.00    -0.297 OA
ENDROOT
BRANCH  12  23
HETATM   23  C   UNK N   1      25.927  17.468   3.636  0.00  0.00    -0.013 C 
HETATM   24  C   UNK N   1      25.647  16.023   3.269  0.00  0.00     0.010 C 
BRANCH  23  25
HETATM   25  C   UNK N   1      24.575  18.184   3.472  0.00  0.00     0.015 C 
BRANCH  25  26
HETATM   26  C   UNK N   1      24.492  19.623   3.978  0.00  0.00     0.110 C 
BRANCH  26  27
HETATM   27  C   UNK N   1      24.218  20.613   2.896  0.00  0.00     0.139 C 
HETATM   28  O   UNK N   1      23.239  21.339   2.957  0.00  0.00    -0.650 OA
BRANCH  27  29
HETATM   29  O   UNK N   1      25.073  20.725   1.864  0.00  0.00    -0.776 OA
HETATM   30  H   UNK N   1      25.986  20.564   1.729  0.00  0.00     0.167 HD
ENDBRANCH  27  29
ENDBRANCH  26  27
ENDBRANCH  25  26
ENDBRANCH  23  25
ENDBRANCH  12  23
TORSDOF 5
ENDMDL
MODEL 6
REMARK VINA RESULT:      -7.2      2.468      8.234
REMARK  5 active torsions:
REMARK  status: ('A' for Active; 'I' for Inactive)
REMARK    1  A    between atoms: C_7  and  C_4 
REMARK    2  A    between atoms: C_13  and  C_4 
REMARK    3  A    between atoms: C_21  and  C_7 
REMARK    4  A    between atoms: C_16  and  C_13 
REMARK    5  A    between atoms: O_29  and  C_21 
ROOT
HETATM    1  C   UNK N   1      25.091  27.337  -5.793  0.00  0.00     0.016 C 
HETATM    2  C   UNK N   1      26.773  22.702  -7.787  0.00  0.00     0.024 C 
HETATM    3  C   UNK N   1      29.656  22.283  -5.368  0.00  0.00     0.006 C 
HETATM    4  C   UNK N   1      28.715  23.202  -4.596  0.00  0.00     0.007 C 
HETATM    5  C   UNK N   1      27.933  29.415  -5.879  0.00  0.00     0.079 C 
HETATM    6  C   UNK N   1      27.240  28.246  -6.590  0.00  0.00     0.017 C 
HETATM    7  C   UNK N   1      26.638  28.839  -3.707  0.00  0.00     0.084 C 
HETATM    8  C   UNK N   1      26.252  26.420  -3.276  0.00  0.00     0.084 C 
HETATM    9  C   UNK N   1      28.508  25.599  -6.442  0.00  0.00     0.085 C 
HETATM   10  C   UNK N   1      27.004  27.419  -4.156  0.00  0.00     0.008 C 
HETATM   11  C   UNK N   1      27.135  29.858  -4.692  0.00  0.00     0.127 C 
HETATM   12  C   UNK N   1      28.873  21.868  -6.601  0.00  0.00     0.005 C 
HETATM   13  C   UNK N   1      27.388  23.272  -5.387  0.00  0.00     0.013 C 
HETATM   14  C   UNK N   1      27.025  25.760  -6.107  0.00  0.00     0.013 C 
HETATM   15  C   UNK N   1      26.631  25.031  -3.669  0.00  0.00     0.132 C 
HETATM   16  C   UNK N   1      28.584  24.358  -7.304  0.00  0.00     0.136 C 
HETATM   17  C   UNK N   1      26.575  24.606  -5.140  0.00  0.00     0.066 C 
HETATM   18  C   UNK N   1      26.611  27.190  -5.644  0.00  0.00    -0.035 C 
HETATM   19  C   UNK N   1      27.905  23.060  -6.831  0.00  0.00     0.025 C 
HETATM   20  O   UNK N   1      26.854  31.035  -4.548  0.00  0.00    -0.298 OA
HETATM   21  O   UNK N   1      27.018  24.268  -2.798  0.00  0.00    -0.298 OA
HETATM   22  O   UNK N   1      29.051  24.448  -8.428  0.00  0.00    -0.297 OA
ENDROOT
BRANCH  12  23
HETATM   23  C   UNK N   1      29.766  21.331  -7.756  0.00  0.00    -0.013 C 
HETATM   24  C   UNK N   1      31.170  20.968  -7.310  0.00  0.00     0.010 C 
BRANCH  23  25
HETATM   25  C   UNK N   1      29.208  20.040  -8.381  0.00  0.00     0.015 C 
BRANCH  25  26
HETATM   26  C   UNK N   1      29.994  18.755  -8.122  0.00  0.00     0.110 C 
BRANCH  26  27
HETATM   27  C   UNK N   1      30.336  18.014  -9.371  0.00  0.00     0.139 C 
HETATM   28  O   UNK N   1      30.030  18.468 -10.461  0.00  0.00    -0.650 OA
BRANCH  27  29
HETATM   29  O   UNK N   1      31.014  16.855  -9.293  0.00  0.00    -0.776 OA
HETATM   30  H   UNK N   1      31.262  16.268  -8.606  0.00  0.00     0.167 HD
ENDBRANCH  27  29
ENDBRANCH  26  27
ENDBRANCH  25  26
ENDBRANCH  23  25
ENDBRANCH  12  23
TORSDOF 5
ENDMDL
MODEL 7
REMARK VINA RESULT:      -7.1     14.595     16.421
REMARK  5 active torsions:
REMARK  status: ('A' for Active; 'I' for Inactive)
REMARK    1  A    between atoms: C_7  and  C_4 
REMARK    2  A    between atoms: C_13  and  C_4 
REMARK    3  A    between atoms: C_21  and  C_7 
REMARK    4  A    between atoms: C_16  and  C_13 
REMARK    5  A    between atoms: O_29  and  C_21 
ROOT
HETATM    1  C   UNK N   1      23.423  11.191   8.027  0.00  0.00     0.016 C 
HETATM    2  C   UNK N   1      21.697  13.650   3.638  0.00  0.00     0.024 C 
HETATM    3  C   UNK N   1      22.493  17.153   4.840  0.00  0.00     0.006 C 
HETATM    4  C   UNK N   1      23.448  16.299   5.668  0.00  0.00     0.007 C 
HETATM    5  C   UNK N   1      21.647  12.725  10.652  0.00  0.00     0.079 C 
HETATM    6  C   UNK N   1      21.561  12.330   9.172  0.00  0.00     0.017 C 
HETATM    7  C   UNK N   1      24.236  12.695  10.492  0.00  0.00     0.084 C 
HETATM    8  C   UNK N   1      25.205  13.482   8.340  0.00  0.00     0.084 C 
HETATM    9  C   UNK N   1      21.541  14.484   7.172  0.00  0.00     0.085 C 
HETATM   10  C   UNK N   1      23.918  13.385   9.159  0.00  0.00     0.008 C 
HETATM   11  C   UNK N   1      22.975  12.338  11.225  0.00  0.00     0.127 C 
HETATM   12  C   UNK N   1      21.870  16.188   3.845  0.00  0.00     0.005 C 
HETATM   13  C   UNK N   1      23.382  14.858   5.110  0.00  0.00     0.013 C 
HETATM   14  C   UNK N   1      22.506  13.307   7.024  0.00  0.00     0.013 C 
HETATM   15  C   UNK N   1      24.924  14.193   7.058  0.00  0.00     0.132 C 
HETATM   16  C   UNK N   1      20.973  14.704   5.788  0.00  0.00     0.136 C 
HETATM   17  C   UNK N   1      23.751  13.751   6.176  0.00  0.00     0.066 C 
HETATM   18  C   UNK N   1      22.857  12.578   8.356  0.00  0.00    -0.035 C 
HETATM   19  C   UNK N   1      21.926  14.824   4.584  0.00  0.00     0.025 C 
HETATM   20  O   UNK N   1      23.031  11.696  12.260  0.00  0.00    -0.298 OA
HETATM   21  O   UNK N   1      25.624  15.148   6.760  0.00  0.00    -0.298 OA
HETATM   22  O   UNK N   1      19.765  14.631   5.627  0.00  0.00    -0.297 OA
ENDROOT
BRANCH  12  23
HETATM   23  C   UNK N   1      20.541  16.705   3.224  0.00  0.00    -0.013 C 
HETATM   24  C   UNK N   1      19.645  17.412   4.224  0.00  0.00     0.010 C 
BRANCH  23  25
HETATM   25  C   UNK N   1      20.776  17.740   2.109  0.00  0.00     0.015 C 
BRANCH  25  26
HETATM   26  C   UNK N   1      20.413  19.190   2.429  0.00  0.00     0.110 C 
BRANCH  26  27
HETATM   27  C   UNK N   1      20.741  20.135   1.322  0.00  0.00     0.139 C 
HETATM   28  O   UNK N   1      21.128  21.266   1.571  0.00  0.00    -0.650 OA
BRANCH  27  29
HETATM   29  O   UNK N   1      20.639  19.727   0.045  0.00  0.00    -0.776 OA
HETATM   30  H   UNK N   1      21.233  19.606  -0.669  0.00  0.00     0.167 HD
ENDBRANCH  27  29
ENDBRANCH  26  27
ENDBRANCH  25  26
ENDBRANCH  23  25
ENDBRANCH  12  23
TORSDOF 5
ENDMDL
MODEL 8
REMARK VINA RESULT:      -7.1     19.612     23.244
REMARK  5 active torsions:
REMARK  status: ('A' for Active; 'I' for Inactive)
REMARK    1  A    between atoms: C_7  and  C_4 
REMARK    2  A    between atoms: C_13  and  C_4 
REMARK    3  A    between atoms: C_21  and  C_7 
REMARK    4  A    between atoms: C_16  and  C_13 
REMARK    5  A    between atoms: O_29  and  C_21 
ROOT
HETATM    1  C   UNK N   1      37.088  13.710   9.507  0.00  0.00     0.016 C 
HETATM    2  C   UNK N   1      37.928  11.401  14.224  0.00  0.00     0.024 C 
HETATM    3  C   UNK N   1      34.269  11.146  15.168  0.00  0.00     0.006 C 
HETATM    4  C   UNK N   1      34.209  11.211  13.646  0.00  0.00     0.007 C 
HETATM    5  C   UNK N   1      35.138  16.546  10.250  0.00  0.00     0.079 C 
HETATM    6  C   UNK N   1      36.228  15.621  10.805  0.00  0.00     0.017 C 
HETATM    7  C   UNK N   1      34.374  14.655   8.647  0.00  0.00     0.084 C 
HETATM    8  C   UNK N   1      34.509  12.341   9.548  0.00  0.00     0.084 C 
HETATM    9  C   UNK N   1      35.532  13.877  13.067  0.00  0.00     0.085 C 
HETATM   10  C   UNK N   1      34.605  13.822   9.914  0.00  0.00     0.008 C 
HETATM   11  C   UNK N   1      34.711  16.099   8.886  0.00  0.00     0.127 C 
HETATM   12  C   UNK N   1      35.748  11.025  15.496  0.00  0.00     0.005 C 
HETATM   13  C   UNK N   1      35.659  11.091  13.121  0.00  0.00     0.013 C 
HETATM   14  C   UNK N   1      36.219  13.295  11.831  0.00  0.00     0.013 C 
HETATM   15  C   UNK N   1      34.686  11.514  10.777  0.00  0.00     0.132 C 
HETATM   16  C   UNK N   1      36.247  13.253  14.245  0.00  0.00     0.136 C 
HETATM   17  C   UNK N   1      35.877  11.767  11.708  0.00  0.00     0.066 C 
HETATM   18  C   UNK N   1      36.009  14.112  10.520  0.00  0.00    -0.035 C 
HETATM   19  C   UNK N   1      36.440  11.727  14.297  0.00  0.00     0.025 C 
HETATM   20  O   UNK N   1      34.680  16.895   7.963  0.00  0.00    -0.298 OA
HETATM   21  O   UNK N   1      33.843  10.669  11.033  0.00  0.00    -0.298 OA
HETATM   22  O   UNK N   1      36.792  13.983  15.057  0.00  0.00    -0.297 OA
ENDROOT
BRANCH  12  23
HETATM   23  C   UNK N   1      36.096  11.418  16.960  0.00  0.00    -0.013 C 
HETATM   24  C   UNK N   1      35.131  12.424  17.559  0.00  0.00     0.010 C 
BRANCH  23  25
HETATM   25  C   UNK N   1      36.051  10.215  17.919  0.00  0.00     0.015 C 
BRANCH  25  26
HETATM   26  C   UNK N   1      34.739   9.979  18.665  0.00  0.00     0.110 C 
BRANCH  26  27
HETATM   27  C   UNK N   1      34.911   9.895  20.145  0.00  0.00     0.139 C 
HETATM   28  O   UNK N   1      34.857   8.815  20.712  0.00  0.00    -0.650 OA
BRANCH  27  29
HETATM   29  O   UNK N   1      35.160  11.012  20.851  0.00  0.00    -0.776 OA
HETATM   30  H   UNK N   1      34.942  11.326  21.706  0.00  0.00     0.167 HD
ENDBRANCH  27  29
ENDBRANCH  26  27
ENDBRANCH  25  26
ENDBRANCH  23  25
ENDBRANCH  12  23
TORSDOF 5
ENDMDL
MODEL 9
REMARK VINA RESULT:      -6.9     13.800     16.944
REMARK  5 active torsions:
REMARK  status: ('A' for Active; 'I' for Inactive)
REMARK    1  A    between atoms: C_7  and  C_4 
REMARK    2  A    between atoms: C_13  and  C_4 
REMARK    3  A    between atoms: C_21  and  C_7 
REMARK    4  A    between atoms: C_16  and  C_13 
REMARK    5  A    between atoms: O_29  and  C_21 
ROOT
HETATM    1  C   UNK N   1      36.986  12.928   9.903  0.00  0.00     0.016 C 
HETATM    2  C   UNK N   1      34.837  15.676   5.888  0.00  0.00     0.024 C 
HETATM    3  C   UNK N   1      32.199  17.399   7.989  0.00  0.00     0.006 C 
HETATM    4  C   UNK N   1      33.268  17.058   9.023  0.00  0.00     0.007 C 
HETATM    5  C   UNK N   1      34.278  11.180  11.322  0.00  0.00     0.079 C 
HETATM    6  C   UNK N   1      34.824  11.748  10.006  0.00  0.00     0.017 C 
HETATM    7  C   UNK N   1      35.755  12.859  12.637  0.00  0.00     0.084 C 
HETATM    8  C   UNK N   1      36.039  15.103  11.604  0.00  0.00     0.084 C 
HETATM    9  C   UNK N   1      33.424  14.038   8.808  0.00  0.00     0.085 C 
HETATM   10  C   UNK N   1      35.261  13.791  11.522  0.00  0.00     0.008 C 
HETATM   11  C   UNK N   1      35.219  11.469  12.451  0.00  0.00     0.127 C 
HETATM   12  C   UNK N   1      32.826  17.048   6.650  0.00  0.00     0.005 C 
HETATM   13  C   UNK N   1      34.508  16.547   8.253  0.00  0.00     0.013 C 
HETATM   14  C   UNK N   1      34.941  14.078   8.998  0.00  0.00     0.013 C 
HETATM   15  C   UNK N   1      35.541  16.040  10.554  0.00  0.00     0.132 C 
HETATM   16  C   UNK N   1      33.186  14.587   7.419  0.00  0.00     0.136 C 
HETATM   17  C   UNK N   1      35.419  15.571   9.100  0.00  0.00     0.066 C 
HETATM   18  C   UNK N   1      35.484  13.147  10.123  0.00  0.00    -0.035 C 
HETATM   19  C   UNK N   1      33.833  15.923   7.008  0.00  0.00     0.025 C 
HETATM   20  O   UNK N   1      35.583  10.570  13.189  0.00  0.00    -0.298 OA
HETATM   21  O   UNK N   1      35.202  17.163  10.894  0.00  0.00    -0.298 OA
HETATM   22  O   UNK N   1      32.612  13.889   6.599  0.00  0.00    -0.297 OA
ENDROOT
BRANCH  12  23
HETATM   23  C   UNK N   1      31.787  16.857   5.507  0.00  0.00    -0.013 C 
HETATM   24  C   UNK N   1      30.414  17.406   5.845  0.00  0.00     0.010 C 
BRANCH  23  25
HETATM   25  C   UNK N   1      32.193  17.587   4.215  0.00  0.00     0.015 C 
BRANCH  25  26
HETATM   26  C   UNK N   1      32.031  16.813   2.908  0.00  0.00     0.110 C 
BRANCH  26  27
HETATM   27  C   UNK N   1      32.830  15.553   2.868  0.00  0.00     0.139 C 
HETATM   28  O   UNK N   1      33.889  15.513   2.263  0.00  0.00    -0.650 OA
BRANCH  27  29
HETATM   29  O   UNK N   1      32.393  14.467   3.529  0.00  0.00    -0.776 OA
HETATM   30  H   UNK N   1      31.634  13.919   3.492  0.00  0.00     0.167 HD
ENDBRANCH  27  29
ENDBRANCH  26  27
ENDBRANCH  25  26
ENDBRANCH  23  25
ENDBRANCH  12  23
TORSDOF 5
ENDMDL
