MODEL 1
REMARK VINA RESULT:      -9.3      0.000      0.000
REMARK  12 active torsions:
REMARK  status: ('A' for Active; 'I' for Inactive)
REMARK    1  A    between atoms: C_34  and  C_16 
REMARK    2  A    between atoms: C_33  and  C_17 
REMARK    3  A    between atoms: C_20  and  N_35 
REMARK    4  A    between atoms: O_47  and  C_21 
REMARK    5  A    between atoms: C_22  and  O_49 
REMARK    6  A    between atoms: C_23  and  O_49 
REMARK    7  A    between atoms: C_28  and  O_40 
REMARK    8  A    between atoms: O_42  and  C_30 
REMARK    9  A    between atoms: O_44  and  C_32 
REMARK   10  A    between atoms: C_33  and  O_45 
REMARK   11  A    between atoms: C_34  and  O_46 
REMARK   12  A    between atoms: N_36  and  N_38 
ROOT
HETATM    1  C   UNK N   1      33.853  18.314   8.038  0.00  0.00     0.004 A 
HETATM    2  C   UNK N   1      34.752  17.654   8.864  0.00  0.00     0.017 A 
HETATM    3  C   UNK N   1      32.753  17.634   7.530  0.00  0.00     0.038 A 
HETATM    4  C   UNK N   1      37.593  11.428  11.836  0.00  0.00     0.086 C 
HETATM    5  C   UNK N   1      35.859   9.679  12.493  0.00  0.00     0.081 C 
HETATM    6  C   UNK N   1      34.551  16.313   9.213  0.00  0.00     0.032 A 
HETATM    7  C   UNK N   1      36.415  12.122  11.199  0.00  0.00    -0.009 A 
HETATM    8  C   UNK N   1      32.524  16.290   7.844  0.00  0.00     0.083 A 
HETATM    9  C   UNK N   1      35.296   9.895  11.087  0.00  0.00     0.164 C 
HETATM   10  C   UNK N   1      33.424  15.610   8.730  0.00  0.00     0.062 A 
HETATM   11  C   UNK N   1      35.273  11.393  10.811  0.00  0.00     0.014 A 
HETATM   12  C   UNK N   1      35.448  14.181  10.338  0.00  0.00     0.066 A 
HETATM   13  C   UNK N   1      34.302  13.469   9.920  0.00  0.00     0.066 A 
HETATM   14  C   UNK N   1      35.551  15.643  10.067  0.00  0.00     0.197 C 
HETATM   15  C   UNK N   1      36.495  13.497  10.981  0.00  0.00     0.088 A 
HETATM   16  C   UNK N   1      33.221  14.194   9.182  0.00  0.00     0.200 C 
HETATM   17  C   UNK N   1      34.210  12.072  10.174  0.00  0.00     0.090 A 
HETATM   18  C   UNK N   1      37.314  10.135  12.626  0.00  0.00     0.103 C 
HETATM   19  O   UNK N   1      36.492  16.291  10.503  0.00  0.00    -0.286 OA
HETATM   20  O   UNK N   1      32.163  13.628   8.965  0.00  0.00    -0.286 OA
ENDROOT
BRANCH  18  21
HETATM   21  C   UNK N   1      37.644  10.198  14.120  0.00  0.00     0.034 C 
HETATM   22  C   UNK N   1      38.693   9.268  14.638  0.00  0.00     0.068 C 
HETATM   23  N   UNK N   1      37.116  11.025  14.967  0.00  0.00    -0.304 N 
ATOM     24  HN  UNK N   1      37.472  11.020  15.923  1.00  0.00     0.186 HD
BRANCH  23  25
HETATM   25  N   UNK N   1      36.109  11.905  14.660  0.00  0.00    -0.280 N 
HETATM   26  C   UNK N   1      35.229  12.308  15.522  0.00  0.00     0.165 C 
ATOM     27  HN  UNK N   1      36.050  12.261  13.706  1.00  0.00     0.189 HD
BRANCH  26  28
HETATM   28  C   UNK N   1      35.268  11.939  16.971  0.00  0.00     0.016 A 
HETATM   29  C   UNK N   1      35.350  10.609  17.413  0.00  0.00     0.016 A 
HETATM   30  C   UNK N   1      35.419  10.309  18.774  0.00  0.00     0.001 A 
HETATM   31  C   UNK N   1      35.408  11.340  19.715  0.00  0.00     0.000 A 
HETATM   32  C   UNK N   1      35.329  12.669  19.293  0.00  0.00     0.001 A 
HETATM   33  C   UNK N   1      35.264  12.967  17.928  0.00  0.00     0.016 A 
ENDBRANCH  26  28
BRANCH  26  34
HETATM   34  O   UNK N   1      34.248  13.126  15.097  0.00  0.00    -0.344 OA
HETATM   35  H   UNK N   1      33.567  12.794  14.547  0.00  0.00     0.219 HD
ENDBRANCH  26  34
ENDBRANCH  23  25
ENDBRANCH  18  21
BRANCH  18  36
HETATM   36  O   UNK N   1      38.126   9.150  12.058  0.00  0.00    -0.383 OA
HETATM   37  H   UNK N   1      38.441   8.232  12.035  0.00  0.00     0.211 HD
ENDBRANCH  18  36
BRANCH   9  38
HETATM   38  O   UNK N   1      34.111   9.151  10.799  0.00  0.00    -0.351 OA
BRANCH  38  39
HETATM   39  C   UNK N   1      34.257   7.994   9.976  0.00  0.00     0.263 C 
HETATM   40  C   UNK N   1      33.806   8.168   8.504  0.00  0.00     0.088 C 
HETATM   41  C   UNK N   1      32.301   8.363   8.331  0.00  0.00     0.110 C 
HETATM   42  C   UNK N   1      31.572   8.157   9.659  0.00  0.00     0.169 C 
HETATM   43  C   UNK N   1      32.134   6.896  10.361  0.00  0.00     0.151 C 
HETATM   44  C   UNK N   1      31.791   5.639   9.571  0.00  0.00     0.042 C 
HETATM   45  O   UNK N   1      33.552   6.915  10.587  0.00  0.00    -0.354 OA
BRANCH  41  46
HETATM   46  N   UNK N   1      32.023   9.687   7.800  0.00  0.00    -0.423 N 
HETATM   47  H   UNK N   1      31.688  10.494   8.325  0.00  0.00     0.150 HD
HETATM   48  H   UNK N   1      32.180   9.822   6.801  0.00  0.00     0.150 HD
ENDBRANCH  41  46
BRANCH  42  49
HETATM   49  O   UNK N   1      30.193   8.055   9.450  0.00  0.00    -0.391 OA
HETATM   50  H   UNK N   1      29.804   8.104   8.562  0.00  0.00     0.210 HD
ENDBRANCH  42  49
ENDBRANCH  38  39
ENDBRANCH   9  38
BRANCH  15  51
HETATM   51  O   UNK N   1      37.605  14.156  11.369  0.00  0.00    -0.359 OA
HETATM   52  H   UNK N   1      37.950  14.031  12.232  0.00  0.00     0.217 HD
ENDBRANCH  15  51
BRANCH  17  53
HETATM   53  O   UNK N   1      33.129  11.385   9.762  0.00  0.00    -0.359 OA
HETATM   54  H   UNK N   1      32.280  11.779   9.794  0.00  0.00     0.217 HD
ENDBRANCH  17  53
BRANCH   8  55
HETATM   55  O   UNK N   1      31.458  15.698   7.253  0.00  0.00    -0.355 OA
HETATM   56  C   UNK N   1      30.655  16.342   6.340  0.00  0.00     0.210 C 
ENDBRANCH   8  55
TORSDOF 12
ENDMDL
MODEL 2
REMARK VINA RESULT:      -8.7      5.208      9.681
REMARK  12 active torsions:
REMARK  status: ('A' for Active; 'I' for Inactive)
REMARK    1  A    between atoms: C_34  and  C_16 
REMARK    2  A    between atoms: C_33  and  C_17 
REMARK    3  A    between atoms: C_20  and  N_35 
REMARK    4  A    between atoms: O_47  and  C_21 
REMARK    5  A    between atoms: C_22  and  O_49 
REMARK    6  A    between atoms: C_23  and  O_49 
REMARK    7  A    between atoms: C_28  and  O_40 
REMARK    8  A    between atoms: O_42  and  C_30 
REMARK    9  A    between atoms: O_44  and  C_32 
REMARK   10  A    between atoms: C_33  and  O_45 
REMARK   11  A    between atoms: C_34  and  O_46 
REMARK   12  A    between atoms: N_36  and  N_38 
ROOT
HETATM    1  C   UNK N   1      31.391   9.213   1.511  0.00  0.00     0.004 A 
HETATM    2  C   UNK N   1      32.009   9.804   2.604  0.00  0.00     0.017 A 
HETATM    3  C   UNK N   1      30.354   9.872   0.863  0.00  0.00     0.038 A 
HETATM    4  C   UNK N   1      32.309  14.961   7.989  0.00  0.00     0.086 C 
HETATM    5  C   UNK N   1      31.580  17.294   7.265  0.00  0.00     0.081 C 
HETATM    6  C   UNK N   1      31.616  11.073   3.049  0.00  0.00     0.032 A 
HETATM    7  C   UNK N   1      31.792  14.554   6.631  0.00  0.00    -0.009 A 
HETATM    8  C   UNK N   1      29.922  11.135   1.285  0.00  0.00     0.083 A 
HETATM    9  C   UNK N   1      30.351  16.590   6.684  0.00  0.00     0.164 C 
HETATM   10  C   UNK N   1      30.582  11.774   2.387  0.00  0.00     0.062 A 
HETATM   11  C   UNK N   1      30.822  15.331   5.967  0.00  0.00     0.014 A 
HETATM   12  C   UNK N   1      31.789  12.925   4.824  0.00  0.00     0.066 A 
HETATM   13  C   UNK N   1      30.800  13.675   4.150  0.00  0.00     0.066 A 
HETATM   14  C   UNK N   1      32.279  11.647   4.235  0.00  0.00     0.197 C 
HETATM   15  C   UNK N   1      32.280  13.378   6.062  0.00  0.00     0.088 A 
HETATM   16  C   UNK N   1      30.239  13.154   2.864  0.00  0.00     0.200 C 
HETATM   17  C   UNK N   1      30.329  14.891   4.718  0.00  0.00     0.090 A 
HETATM   18  C   UNK N   1      32.288  16.461   8.337  0.00  0.00     0.103 C 
HETATM   19  O   UNK N   1      33.199  11.035   4.759  0.00  0.00    -0.286 OA
HETATM   20  O   UNK N   1      29.511  13.869   2.196  0.00  0.00    -0.286 OA
ENDROOT
BRANCH  18  21
HETATM   21  C   UNK N   1      33.661  17.094   8.581  0.00  0.00     0.034 C 
HETATM   22  C   UNK N   1      34.180  18.044   7.550  0.00  0.00     0.068 C 
HETATM   23  N   UNK N   1      34.395  16.903   9.632  0.00  0.00    -0.304 N 
ATOM     24  HN  UNK N   1      35.259  17.440   9.714  1.00  0.00     0.186 HD
BRANCH  23  25
HETATM   25  N   UNK N   1      34.084  16.028  10.642  0.00  0.00    -0.280 N 
HETATM   26  C   UNK N   1      34.685  14.892  10.808  0.00  0.00     0.165 C 
ATOM     27  HN  UNK N   1      33.344  16.285  11.295  1.00  0.00     0.189 HD
BRANCH  26  28
HETATM   28  C   UNK N   1      35.850  14.448   9.982  0.00  0.00     0.016 A 
HETATM   29  C   UNK N   1      37.180  14.617  10.396  0.00  0.00     0.016 A 
HETATM   30  C   UNK N   1      38.239  14.157   9.610  0.00  0.00     0.001 A 
HETATM   31  C   UNK N   1      37.979  13.519   8.397  0.00  0.00     0.000 A 
HETATM   32  C   UNK N   1      36.660  13.340   7.971  0.00  0.00     0.001 A 
HETATM   33  C   UNK N   1      35.602  13.798   8.762  0.00  0.00     0.016 A 
ENDBRANCH  26  28
BRANCH  26  34
HETATM   34  O   UNK N   1      34.257  14.083  11.796  0.00  0.00    -0.344 OA
HETATM   35  H   UNK N   1      33.340  13.951  11.930  0.00  0.00     0.219 HD
ENDBRANCH  26  34
ENDBRANCH  23  25
ENDBRANCH  18  21
BRANCH  18  36
HETATM   36  O   UNK N   1      31.557  16.576   9.522  0.00  0.00    -0.383 OA
HETATM   37  H   UNK N   1      30.820  16.965  10.019  0.00  0.00     0.211 HD
ENDBRANCH  18  36
BRANCH   9  38
HETATM   38  O   UNK N   1      29.447  17.449   5.988  0.00  0.00    -0.351 OA
BRANCH  38  39
HETATM   39  C   UNK N   1      28.216  17.759   6.641  0.00  0.00     0.263 C 
HETATM   40  C   UNK N   1      26.938  17.315   5.886  0.00  0.00     0.088 C 
HETATM   41  C   UNK N   1      26.684  18.075   4.586  0.00  0.00     0.110 C 
HETATM   42  C   UNK N   1      27.674  19.231   4.432  0.00  0.00     0.169 C 
HETATM   43  C   UNK N   1      27.796  19.983   5.781  0.00  0.00     0.151 C 
HETATM   44  C   UNK N   1      26.488  20.682   6.131  0.00  0.00     0.042 C 
HETATM   45  O   UNK N   1      28.181  19.162   6.895  0.00  0.00    -0.354 OA
BRANCH  41  46
HETATM   46  N   UNK N   1      26.778  17.173   3.450  0.00  0.00    -0.423 N 
HETATM   47  H   UNK N   1      26.014  16.643   3.031  0.00  0.00     0.150 HD
HETATM   48  H   UNK N   1      27.700  17.059   3.030  0.00  0.00     0.150 HD
ENDBRANCH  41  46
BRANCH  42  49
HETATM   49  O   UNK N   1      27.271  20.087   3.403  0.00  0.00    -0.391 OA
HETATM   50  H   UNK N   1      26.342  20.335   3.276  0.00  0.00     0.210 HD
ENDBRANCH  42  49
ENDBRANCH  38  39
ENDBRANCH   9  38
BRANCH  15  51
HETATM   51  O   UNK N   1      33.210  12.666   6.730  0.00  0.00    -0.359 OA
HETATM   52  H   UNK N   1      33.375  12.840   7.636  0.00  0.00     0.217 HD
ENDBRANCH  15  51
BRANCH  17  53
HETATM   53  O   UNK N   1      29.374  15.601   4.089  0.00  0.00    -0.359 OA
HETATM   54  H   UNK N   1      29.607  16.218   3.425  0.00  0.00     0.217 HD
ENDBRANCH  17  53
BRANCH   8  55
HETATM   55  O   UNK N   1      28.866  11.670   0.627  0.00  0.00    -0.355 OA
HETATM   56  C   UNK N   1      27.572  11.242   0.815  0.00  0.00     0.210 C 
ENDBRANCH   8  55
TORSDOF 12
ENDMDL
MODEL 3
REMARK VINA RESULT:      -8.6      3.739      5.979
REMARK  12 active torsions:
REMARK  status: ('A' for Active; 'I' for Inactive)
REMARK    1  A    between atoms: C_34  and  C_16 
REMARK    2  A    between atoms: C_33  and  C_17 
REMARK    3  A    between atoms: C_20  and  N_35 
REMARK    4  A    between atoms: O_47  and  C_21 
REMARK    5  A    between atoms: C_22  and  O_49 
REMARK    6  A    between atoms: C_23  and  O_49 
REMARK    7  A    between atoms: C_28  and  O_40 
REMARK    8  A    between atoms: O_42  and  C_30 
REMARK    9  A    between atoms: O_44  and  C_32 
REMARK   10  A    between atoms: C_33  and  O_45 
REMARK   11  A    between atoms: C_34  and  O_46 
REMARK   12  A    between atoms: N_36  and  N_38 
ROOT
HETATM    1  C   UNK N   1      28.845  17.769   6.649  0.00  0.00     0.004 A 
HETATM    2  C   UNK N   1      29.651  17.243   7.650  0.00  0.00     0.017 A 
HETATM    3  C   UNK N   1      29.250  17.689   5.322  0.00  0.00     0.038 A 
HETATM    4  C   UNK N   1      36.148  14.512  10.099  0.00  0.00     0.086 C 
HETATM    5  C   UNK N   1      37.321  12.943   8.468  0.00  0.00     0.081 C 
HETATM    6  C   UNK N   1      30.860  16.610   7.337  0.00  0.00     0.032 A 
HETATM    7  C   UNK N   1      35.222  14.767   8.935  0.00  0.00    -0.009 A 
HETATM    8  C   UNK N   1      30.458  17.076   4.969  0.00  0.00     0.083 A 
HETATM    9  C   UNK N   1      37.078  14.043   7.433  0.00  0.00     0.164 C 
HETATM   10  C   UNK N   1      31.278  16.493   5.991  0.00  0.00     0.062 A 
HETATM   11  C   UNK N   1      35.653  14.553   7.612  0.00  0.00     0.014 A 
HETATM   12  C   UNK N   1      33.056  15.549   8.152  0.00  0.00     0.066 A 
HETATM   13  C   UNK N   1      33.472  15.364   6.815  0.00  0.00     0.066 A 
HETATM   14  C   UNK N   1      31.699  16.096   8.436  0.00  0.00     0.197 C 
HETATM   15  C   UNK N   1      33.938  15.241   9.203  0.00  0.00     0.088 A 
HETATM   16  C   UNK N   1      32.550  15.752   5.703  0.00  0.00     0.200 C 
HETATM   17  C   UNK N   1      34.771  14.848   6.547  0.00  0.00     0.090 A 
HETATM   18  C   UNK N   1      37.256  13.458   9.908  0.00  0.00     0.103 C 
HETATM   19  O   UNK N   1      31.289  16.174   9.585  0.00  0.00    -0.286 OA
HETATM   20  O   UNK N   1      32.833  15.445   4.557  0.00  0.00    -0.286 OA
ENDROOT
BRANCH  18  21
HETATM   21  C   UNK N   1      37.163  12.240  10.831  0.00  0.00     0.034 C 
HETATM   22  C   UNK N   1      37.096  10.890  10.193  0.00  0.00     0.068 C 
HETATM   23  N   UNK N   1      37.179  12.282  12.127  0.00  0.00    -0.304 N 
ATOM     24  HN  UNK N   1      37.186  11.396  12.632  1.00  0.00     0.186 HD
BRANCH  23  25
HETATM   25  N   UNK N   1      37.188  13.441  12.861  0.00  0.00    -0.280 N 
HETATM   26  C   UNK N   1      36.539  13.583  13.974  0.00  0.00     0.165 C 
ATOM     27  HN  UNK N   1      37.733  14.230  12.515  1.00  0.00     0.189 HD
BRANCH  26  28
HETATM   28  C   UNK N   1      35.788  12.472  14.636  0.00  0.00     0.016 A 
HETATM   29  C   UNK N   1      36.238  11.847  15.810  0.00  0.00     0.016 A 
HETATM   30  C   UNK N   1      35.489  10.837  16.416  0.00  0.00     0.001 A 
HETATM   31  C   UNK N   1      34.276  10.438  15.854  0.00  0.00     0.000 A 
HETATM   32  C   UNK N   1      33.812  11.050  14.687  0.00  0.00     0.001 A 
HETATM   33  C   UNK N   1      34.562  12.064  14.085  0.00  0.00     0.016 A 
ENDBRANCH  26  28
BRANCH  26  34
HETATM   34  O   UNK N   1      36.569  14.784  14.581  0.00  0.00    -0.344 OA
HETATM   35  H   UNK N   1      37.129  15.460  14.254  0.00  0.00     0.219 HD
ENDBRANCH  26  34
ENDBRANCH  23  25
ENDBRANCH  18  21
BRANCH  18  36
HETATM   36  O   UNK N   1      38.462  14.106  10.188  0.00  0.00    -0.383 OA
HETATM   37  H   UNK N   1      39.325  14.117  10.629  0.00  0.00     0.211 HD
ENDBRANCH  18  36
BRANCH   9  38
HETATM   38  O   UNK N   1      37.504  13.720   6.109  0.00  0.00    -0.351 OA
BRANCH  38  39
HETATM   39  C   UNK N   1      38.591  14.476   5.576  0.00  0.00     0.263 C 
HETATM   40  C   UNK N   1      39.167  13.953   4.237  0.00  0.00     0.088 C 
HETATM   41  C   UNK N   1      39.881  12.607   4.348  0.00  0.00     0.110 C 
HETATM   42  C   UNK N   1      40.010  12.181   5.812  0.00  0.00     0.169 C 
HETATM   43  C   UNK N   1      40.467  13.395   6.659  0.00  0.00     0.151 C 
HETATM   44  C   UNK N   1      41.884  13.813   6.286  0.00  0.00     0.042 C 
HETATM   45  O   UNK N   1      39.616  14.549   6.564  0.00  0.00    -0.354 OA
BRANCH  41  46
HETATM   46  N   UNK N   1      39.168  11.595   3.587  0.00  0.00    -0.423 N 
HETATM   47  H   UNK N   1      38.162  11.428   3.592  0.00  0.00     0.150 HD
HETATM   48  H   UNK N   1      39.730  10.990   2.989  0.00  0.00     0.150 HD
ENDBRANCH  41  46
BRANCH  42  49
HETATM   49  O   UNK N   1      40.899  11.108   5.933  0.00  0.00    -0.391 OA
HETATM   50  H   UNK N   1      40.687  10.324   6.464  0.00  0.00     0.210 HD
ENDBRANCH  42  49
ENDBRANCH  38  39
ENDBRANCH   9  38
BRANCH  15  51
HETATM   51  O   UNK N   1      33.566  15.429  10.485  0.00  0.00    -0.359 OA
HETATM   52  H   UNK N   1      33.193  14.724  10.977  0.00  0.00     0.217 HD
ENDBRANCH  15  51
BRANCH  17  53
HETATM   53  O   UNK N   1      35.180  14.687   5.275  0.00  0.00    -0.359 OA
HETATM   54  H   UNK N   1      35.389  13.834   4.953  0.00  0.00     0.217 HD
ENDBRANCH  17  53
BRANCH   8  55
HETATM   55  O   UNK N   1      30.793  17.101   3.657  0.00  0.00    -0.355 OA
HETATM   56  C   UNK N   1      30.076  16.437   2.688  0.00  0.00     0.210 C 
ENDBRANCH   8  55
TORSDOF 12
ENDMDL
MODEL 4
REMARK VINA RESULT:      -8.5      4.171      7.323
REMARK  12 active torsions:
REMARK  status: ('A' for Active; 'I' for Inactive)
REMARK    1  A    between atoms: C_34  and  C_16 
REMARK    2  A    between atoms: C_33  and  C_17 
REMARK    3  A    between atoms: C_20  and  N_35 
REMARK    4  A    between atoms: O_47  and  C_21 
REMARK    5  A    between atoms: C_22  and  O_49 
REMARK    6  A    between atoms: C_23  and  O_49 
REMARK    7  A    between atoms: C_28  and  O_40 
REMARK    8  A    between atoms: O_42  and  C_30 
REMARK    9  A    between atoms: O_44  and  C_32 
REMARK   10  A    between atoms: C_33  and  O_45 
REMARK   11  A    between atoms: C_34  and  O_46 
REMARK   12  A    between atoms: N_36  and  N_38 
ROOT
HETATM    1  C   UNK N   1      26.385  20.930   6.880  0.00  0.00     0.004 A 
HETATM    2  C   UNK N   1      27.434  20.317   7.550  0.00  0.00     0.017 A 
HETATM    3  C   UNK N   1      25.990  20.459   5.634  0.00  0.00     0.038 A 
HETATM    4  C   UNK N   1      33.306  15.718   7.752  0.00  0.00     0.086 C 
HETATM    5  C   UNK N   1      32.998  13.546   6.453  0.00  0.00     0.081 C 
HETATM    6  C   UNK N   1      28.089  19.210   6.994  0.00  0.00     0.032 A 
HETATM    7  C   UNK N   1      32.004  16.106   7.096  0.00  0.00    -0.009 A 
HETATM    8  C   UNK N   1      26.627  19.364   5.039  0.00  0.00     0.083 A 
HETATM    9  C   UNK N   1      32.530  14.447   5.308  0.00  0.00     0.164 C 
HETATM   10  C   UNK N   1      27.685  18.697   5.740  0.00  0.00     0.062 A 
HETATM   11  C   UNK N   1      31.599  15.504   5.888  0.00  0.00     0.014 A 
HETATM   12  C   UNK N   1      30.032  17.529   7.102  0.00  0.00     0.066 A 
HETATM   13  C   UNK N   1      29.615  16.958   5.879  0.00  0.00     0.066 A 
HETATM   14  C   UNK N   1      29.220  18.612   7.727  0.00  0.00     0.197 C 
HETATM   15  C   UNK N   1      31.225  17.091   7.703  0.00  0.00     0.088 A 
HETATM   16  C   UNK N   1      28.377  17.473   5.217  0.00  0.00     0.200 C 
HETATM   17  C   UNK N   1      30.395  15.929   5.281  0.00  0.00     0.090 A 
HETATM   18  C   UNK N   1      33.837  14.295   7.492  0.00  0.00     0.103 C 
HETATM   19  O   UNK N   1      29.517  19.052   8.829  0.00  0.00    -0.286 OA
HETATM   20  O   UNK N   1      27.922  16.878   4.254  0.00  0.00    -0.286 OA
ENDROOT
BRANCH  18  21
HETATM   21  C   UNK N   1      33.943  13.402   8.731  0.00  0.00     0.034 C 
HETATM   22  C   UNK N   1      33.043  12.211   8.806  0.00  0.00     0.068 C 
HETATM   23  N   UNK N   1      34.782  13.572   9.704  0.00  0.00    -0.304 N 
ATOM     24  HN  UNK N   1      34.808  12.865  10.440  1.00  0.00     0.186 HD
BRANCH  23  25
HETATM   25  N   UNK N   1      35.638  14.639   9.808  0.00  0.00    -0.280 N 
HETATM   26  C   UNK N   1      36.394  14.847  10.839  0.00  0.00     0.165 C 
ATOM     27  HN  UNK N   1      35.682  15.301   9.033  1.00  0.00     0.189 HD
BRANCH  26  28
HETATM   28  C   UNK N   1      36.495  13.898  11.990  0.00  0.00     0.016 A 
HETATM   29  C   UNK N   1      37.223  12.699  11.922  0.00  0.00     0.016 A 
HETATM   30  C   UNK N   1      37.321  11.857  13.031  0.00  0.00     0.001 A 
HETATM   31  C   UNK N   1      36.691  12.205  14.227  0.00  0.00     0.000 A 
HETATM   32  C   UNK N   1      35.965  13.395  14.312  0.00  0.00     0.001 A 
HETATM   33  C   UNK N   1      35.871  14.238  13.201  0.00  0.00     0.016 A 
ENDBRANCH  26  28
BRANCH  26  34
HETATM   34  O   UNK N   1      37.151  15.960  10.860  0.00  0.00    -0.344 OA
HETATM   35  H   UNK N   1      37.108  16.543  11.592  0.00  0.00     0.219 HD
ENDBRANCH  26  34
ENDBRANCH  23  25
ENDBRANCH  18  21
BRANCH  18  36
HETATM   36  O   UNK N   1      35.125  14.449   6.973  0.00  0.00    -0.383 OA
HETATM   37  H   UNK N   1      35.727  14.850   6.327  0.00  0.00     0.211 HD
ENDBRANCH  18  36
BRANCH   9  38
HETATM   38  O   UNK N   1      32.093  13.749   4.142  0.00  0.00    -0.351 OA
BRANCH  38  39
HETATM   39  C   UNK N   1      31.820  12.355   4.286  0.00  0.00     0.263 C 
HETATM   40  C   UNK N   1      32.352  11.455   3.143  0.00  0.00     0.088 C 
HETATM   41  C   UNK N   1      31.652  11.669   1.802  0.00  0.00     0.110 C 
HETATM   42  C   UNK N   1      30.455  12.610   1.960  0.00  0.00     0.169 C 
HETATM   43  C   UNK N   1      29.651  12.207   3.220  0.00  0.00     0.151 C 
HETATM   44  C   UNK N   1      29.004  10.840   3.035  0.00  0.00     0.042 C 
HETATM   45  O   UNK N   1      30.412  12.185   4.438  0.00  0.00    -0.354 OA
BRANCH  41  46
HETATM   46  N   UNK N   1      32.588  12.200   0.825  0.00  0.00    -0.423 N 
HETATM   47  H   UNK N   1      32.883  13.172   0.732  0.00  0.00     0.150 HD
HETATM   48  H   UNK N   1      32.991  11.533   0.167  0.00  0.00     0.150 HD
ENDBRANCH  41  46
BRANCH  42  49
HETATM   49  O   UNK N   1      29.658  12.583   0.812  0.00  0.00    -0.391 OA
HETATM   50  H   UNK N   1      29.753  13.240   0.105  0.00  0.00     0.210 HD
ENDBRANCH  42  49
ENDBRANCH  38  39
ENDBRANCH   9  38
BRANCH  15  51
HETATM   51  O   UNK N   1      31.650  17.639   8.859  0.00  0.00    -0.359 OA
HETATM   52  H   UNK N   1      31.730  17.111   9.629  0.00  0.00     0.217 HD
ENDBRANCH  15  51
BRANCH  17  53
HETATM   53  O   UNK N   1      30.013  15.393   4.107  0.00  0.00    -0.359 OA
HETATM   54  H   UNK N   1      30.208  15.833   3.304  0.00  0.00     0.217 HD
ENDBRANCH  17  53
BRANCH   8  55
HETATM   55  O   UNK N   1      26.210  19.017   3.798  0.00  0.00    -0.355 OA
HETATM   56  C   UNK N   1      25.283  19.745   3.088  0.00  0.00     0.210 C 
ENDBRANCH   8  55
TORSDOF 12
ENDMDL
MODEL 5
REMARK VINA RESULT:      -8.4      9.646     14.721
REMARK  12 active torsions:
REMARK  status: ('A' for Active; 'I' for Inactive)
REMARK    1  A    between atoms: C_34  and  C_16 
REMARK    2  A    between atoms: C_33  and  C_17 
REMARK    3  A    between atoms: C_20  and  N_35 
REMARK    4  A    between atoms: O_47  and  C_21 
REMARK    5  A    between atoms: C_22  and  O_49 
REMARK    6  A    between atoms: C_23  and  O_49 
REMARK    7  A    between atoms: C_28  and  O_40 
REMARK    8  A    between atoms: O_42  and  C_30 
REMARK    9  A    between atoms: O_44  and  C_32 
REMARK   10  A    between atoms: C_33  and  O_45 
REMARK   11  A    between atoms: C_34  and  O_46 
REMARK   12  A    between atoms: N_36  and  N_38 
ROOT
HETATM    1  C   UNK N   1      25.788   8.638  -0.188  0.00  0.00     0.004 A 
HETATM    2  C   UNK N   1      26.509   9.610   0.489  0.00  0.00     0.017 A 
HETATM    3  C   UNK N   1      24.445   8.850  -0.479  0.00  0.00     0.038 A 
HETATM    4  C   UNK N   1      26.913  15.854   4.554  0.00  0.00     0.086 C 
HETATM    5  C   UNK N   1      25.299  17.693   3.837  0.00  0.00     0.081 C 
HETATM    6  C   UNK N   1      25.907  10.818   0.864  0.00  0.00     0.032 A 
HETATM    7  C   UNK N   1      26.138  15.014   3.569  0.00  0.00    -0.009 A 
HETATM    8  C   UNK N   1      23.803  10.037  -0.110  0.00  0.00     0.083 A 
HETATM    9  C   UNK N   1      24.233  16.596   3.875  0.00  0.00     0.164 C 
HETATM   10  C   UNK N   1      24.550  11.066   0.554  0.00  0.00     0.062 A 
HETATM   11  C   UNK N   1      24.815  15.349   3.222  0.00  0.00     0.014 A 
HETATM   12  C   UNK N   1      26.058  13.038   2.154  0.00  0.00     0.066 A 
HETATM   13  C   UNK N   1      24.722  13.339   1.808  0.00  0.00     0.066 A 
HETATM   14  C   UNK N   1      26.704  11.809   1.612  0.00  0.00     0.197 C 
HETATM   15  C   UNK N   1      26.757  13.886   3.032  0.00  0.00     0.088 A 
HETATM   16  C   UNK N   1      23.968  12.398   0.922  0.00  0.00     0.200 C 
HETATM   17  C   UNK N   1      24.106  14.509   2.332  0.00  0.00     0.090 A 
HETATM   18  C   UNK N   1      26.539  17.345   4.665  0.00  0.00     0.103 C 
HETATM   19  O   UNK N   1      27.886  11.582   1.828  0.00  0.00    -0.286 OA
HETATM   20  O   UNK N   1      22.878  12.731   0.487  0.00  0.00    -0.286 OA
ENDROOT
BRANCH  18  21
HETATM   21  C   UNK N   1      27.647  18.327   4.273  0.00  0.00     0.034 C 
HETATM   22  C   UNK N   1      27.474  19.759   4.664  0.00  0.00     0.068 C 
HETATM   23  N   UNK N   1      28.746  18.008   3.664  0.00  0.00    -0.304 N 
ATOM     24  HN  UNK N   1      29.443  18.740   3.523  1.00  0.00     0.186 HD
BRANCH  23  25
HETATM   25  N   UNK N   1      29.033  16.750   3.197  0.00  0.00    -0.280 N 
HETATM   26  C   UNK N   1      30.138  16.128   3.460  0.00  0.00     0.165 C 
ATOM     27  HN  UNK N   1      28.339  16.280   2.614  1.00  0.00     0.189 HD
BRANCH  26  28
HETATM   28  C   UNK N   1      31.186  16.666   4.381  0.00  0.00     0.016 A 
HETATM   29  C   UNK N   1      31.062  16.619   5.779  0.00  0.00     0.016 A 
HETATM   30  C   UNK N   1      32.079  17.102   6.605  0.00  0.00     0.001 A 
HETATM   31  C   UNK N   1      33.237  17.638   6.041  0.00  0.00     0.000 A 
HETATM   32  C   UNK N   1      33.377  17.691   4.653  0.00  0.00     0.001 A 
HETATM   33  C   UNK N   1      32.359  17.204   3.828  0.00  0.00     0.016 A 
ENDBRANCH  26  28
BRANCH  26  34
HETATM   34  O   UNK N   1      30.340  14.921   2.898  0.00  0.00    -0.344 OA
HETATM   35  H   UNK N   1      29.855  14.178   3.198  0.00  0.00     0.219 HD
ENDBRANCH  26  34
ENDBRANCH  23  25
ENDBRANCH  18  21
BRANCH  18  36
HETATM   36  O   UNK N   1      26.234  17.571   6.009  0.00  0.00    -0.383 OA
HETATM   37  H   UNK N   1      25.836  18.127   6.698  0.00  0.00     0.211 HD
ENDBRANCH  18  36
BRANCH   9  38
HETATM   38  O   UNK N   1      22.932  17.015   3.461  0.00  0.00    -0.351 OA
BRANCH  38  39
HETATM   39  C   UNK N   1      22.253  17.945   4.305  0.00  0.00     0.263 C 
HETATM   40  C   UNK N   1      20.871  17.477   4.826  0.00  0.00     0.088 C 
HETATM   41  C   UNK N   1      19.803  17.356   3.741  0.00  0.00     0.110 C 
HETATM   42  C   UNK N   1      20.317  17.907   2.410  0.00  0.00     0.169 C 
HETATM   43  C   UNK N   1      21.047  19.250   2.660  0.00  0.00     0.151 C 
HETATM   44  C   UNK N   1      20.067  20.318   3.129  0.00  0.00     0.042 C 
HETATM   45  O   UNK N   1      22.127  19.181   3.605  0.00  0.00    -0.354 OA
BRANCH  41  46
HETATM   46  N   UNK N   1      19.392  15.970   3.592  0.00  0.00    -0.423 N 
HETATM   47  H   UNK N   1      18.815  15.434   4.240  0.00  0.00     0.150 HD
HETATM   48  H   UNK N   1      19.714  15.484   2.755  0.00  0.00     0.150 HD
ENDBRANCH  41  46
BRANCH  42  49
HETATM   49  O   UNK N   1      19.264  18.056   1.503  0.00  0.00    -0.391 OA
HETATM   50  H   UNK N   1      18.704  18.848   1.492  0.00  0.00     0.210 HD
ENDBRANCH  42  49
ENDBRANCH  38  39
ENDBRANCH   9  38
BRANCH  15  51
HETATM   51  O   UNK N   1      28.025  13.604   3.390  0.00  0.00    -0.359 OA
HETATM   52  H   UNK N   1      28.735  13.803   2.811  0.00  0.00     0.217 HD
ENDBRANCH  15  51
BRANCH  17  53
HETATM   53  O   UNK N   1      22.828  14.793   2.020  0.00  0.00    -0.359 OA
HETATM   54  H   UNK N   1      22.592  14.989   1.135  0.00  0.00     0.217 HD
ENDBRANCH  17  53
BRANCH   8  55
HETATM   55  O   UNK N   1      22.480  10.125  -0.385  0.00  0.00    -0.355 OA
HETATM   56  C   UNK N   1      21.523   9.407   0.296  0.00  0.00     0.210 C 
ENDBRANCH   8  55
TORSDOF 12
ENDMDL
MODEL 6
REMARK VINA RESULT:      -8.4      4.769     10.340
REMARK  12 active torsions:
REMARK  status: ('A' for Active; 'I' for Inactive)
REMARK    1  A    between atoms: C_34  and  C_16 
REMARK    2  A    between atoms: C_33  and  C_17 
REMARK    3  A    between atoms: C_20  and  N_35 
REMARK    4  A    between atoms: O_47  and  C_21 
REMARK    5  A    between atoms: C_22  and  O_49 
REMARK    6  A    between atoms: C_23  and  O_49 
REMARK    7  A    between atoms: C_28  and  O_40 
REMARK    8  A    between atoms: O_42  and  C_30 
REMARK    9  A    between atoms: O_44  and  C_32 
REMARK   10  A    between atoms: C_33  and  O_45 
REMARK   11  A    between atoms: C_34  and  O_46 
REMARK   12  A    between atoms: N_36  and  N_38 
ROOT
HETATM    1  C   UNK N   1      36.307  12.950   0.612  0.00  0.00     0.004 A 
HETATM    2  C   UNK N   1      35.344  13.811   1.118  0.00  0.00     0.017 A 
HETATM    3  C   UNK N   1      37.037  12.143   1.477  0.00  0.00     0.038 A 
HETATM    4  C   UNK N   1      32.060  17.404   6.772  0.00  0.00     0.086 C 
HETATM    5  C   UNK N   1      31.798  16.022   8.898  0.00  0.00     0.081 C 
HETATM    6  C   UNK N   1      35.078  13.859   2.492  0.00  0.00     0.032 A 
HETATM    7  C   UNK N   1      32.891  16.234   6.308  0.00  0.00    -0.009 A 
HETATM    8  C   UNK N   1      36.810  12.172   2.858  0.00  0.00     0.083 A 
HETATM    9  C   UNK N   1      33.280  15.689   8.711  0.00  0.00     0.164 C 
HETATM   10  C   UNK N   1      35.788  13.027   3.388  0.00  0.00     0.062 A 
HETATM   11  C   UNK N   1      33.512  15.377   7.238  0.00  0.00     0.014 A 
HETATM   12  C   UNK N   1      33.863  14.998   4.452  0.00  0.00     0.066 A 
HETATM   13  C   UNK N   1      34.513  14.138   5.365  0.00  0.00     0.066 A 
HETATM   14  C   UNK N   1      34.067  14.814   2.988  0.00  0.00     0.197 C 
HETATM   15  C   UNK N   1      33.051  16.039   4.936  0.00  0.00     0.088 A 
HETATM   16  C   UNK N   1      35.424  13.073   4.842  0.00  0.00     0.200 C 
HETATM   17  C   UNK N   1      34.322  14.321   6.763  0.00  0.00     0.090 A 
HETATM   18  C   UNK N   1      31.375  17.288   8.148  0.00  0.00     0.103 C 
HETATM   19  O   UNK N   1      33.440  15.489   2.183  0.00  0.00    -0.286 OA
HETATM   20  O   UNK N   1      35.856  12.227   5.607  0.00  0.00    -0.286 OA
ENDROOT
BRANCH  18  21
HETATM   21  C   UNK N   1      29.845  17.320   8.120  0.00  0.00     0.034 C 
HETATM   22  C   UNK N   1      29.132  17.499   9.422  0.00  0.00     0.068 C 
HETATM   23  N   UNK N   1      29.116  17.245   7.051  0.00  0.00    -0.304 N 
ATOM     24  HN  UNK N   1      28.106  17.352   7.154  1.00  0.00     0.186 HD
BRANCH  23  25
HETATM   25  N   UNK N   1      29.614  17.031   5.791  0.00  0.00    -0.280 N 
HETATM   26  C   UNK N   1      29.086  17.538   4.722  0.00  0.00     0.165 C 
ATOM     27  HN  UNK N   1      30.442  16.444   5.690  1.00  0.00     0.189 HD
BRANCH  26  28
HETATM   28  C   UNK N   1      27.935  18.492   4.745  0.00  0.00     0.016 A 
HETATM   29  C   UNK N   1      28.100  19.874   4.933  0.00  0.00     0.016 A 
HETATM   30  C   UNK N   1      27.002  20.736   4.914  0.00  0.00     0.001 A 
HETATM   31  C   UNK N   1      25.720  20.225   4.705  0.00  0.00     0.000 A 
HETATM   32  C   UNK N   1      25.538  18.853   4.515  0.00  0.00     0.001 A 
HETATM   33  C   UNK N   1      26.640  17.993   4.531  0.00  0.00     0.016 A 
ENDBRANCH  26  28
BRANCH  26  34
HETATM   34  O   UNK N   1      29.621  17.212   3.530  0.00  0.00    -0.344 OA
HETATM   35  H   UNK N   1      30.530  17.368   3.366  0.00  0.00     0.219 HD
ENDBRANCH  26  34
ENDBRANCH  23  25
ENDBRANCH  18  21
BRANCH  18  36
HETATM   36  O   UNK N   1      31.805  18.391   8.890  0.00  0.00    -0.383 OA
HETATM   37  H   UNK N   1      31.983  19.342   8.953  0.00  0.00     0.211 HD
ENDBRANCH  18  36
BRANCH   9  38
HETATM   38  O   UNK N   1      33.810  14.775   9.672  0.00  0.00    -0.351 OA
BRANCH  38  39
HETATM   39  C   UNK N   1      34.507  15.338  10.784  0.00  0.00     0.263 C 
HETATM   40  C   UNK N   1      36.030  15.535  10.578  0.00  0.00     0.088 C 
HETATM   41  C   UNK N   1      36.819  14.231  10.472  0.00  0.00     0.110 C 
HETATM   42  C   UNK N   1      35.924  13.029  10.777  0.00  0.00     0.169 C 
HETATM   43  C   UNK N   1      35.064  13.337  12.027  0.00  0.00     0.151 C 
HETATM   44  C   UNK N   1      35.938  13.451  13.270  0.00  0.00     0.042 C 
HETATM   45  O   UNK N   1      34.262  14.524  11.929  0.00  0.00    -0.354 OA
BRANCH  41  46
HETATM   46  N   UNK N   1      37.404  14.105   9.147  0.00  0.00    -0.423 N 
HETATM   47  H   UNK N   1      37.445  13.258   8.580  0.00  0.00     0.150 HD
HETATM   48  H   UNK N   1      37.815  14.947   8.744  0.00  0.00     0.150 HD
ENDBRANCH  41  46
BRANCH  42  49
HETATM   49  O   UNK N   1      36.696  11.877  10.956  0.00  0.00    -0.391 OA
HETATM   50  H   UNK N   1      37.061  11.633  11.821  0.00  0.00     0.210 HD
ENDBRANCH  42  49
ENDBRANCH  38  39
ENDBRANCH   9  38
BRANCH  15  51
HETATM   51  O   UNK N   1      32.438  16.881   4.081  0.00  0.00    -0.359 OA
HETATM   52  H   UNK N   1      31.899  16.545   3.392  0.00  0.00     0.217 HD
ENDBRANCH  15  51
BRANCH  17  53
HETATM   53  O   UNK N   1      34.953  13.517   7.638  0.00  0.00    -0.359 OA
HETATM   54  H   UNK N   1      34.484  12.830   8.068  0.00  0.00     0.217 HD
ENDBRANCH  17  53
BRANCH   8  55
HETATM   55  O   UNK N   1      37.612  11.393   3.624  0.00  0.00    -0.355 OA
HETATM   56  C   UNK N   1      38.934  11.687   3.864  0.00  0.00     0.210 C 
ENDBRANCH   8  55
TORSDOF 12
ENDMDL
MODEL 7
REMARK VINA RESULT:      -8.3      2.603      8.284
REMARK  12 active torsions:
REMARK  status: ('A' for Active; 'I' for Inactive)
REMARK    1  A    between atoms: C_34  and  C_16 
REMARK    2  A    between atoms: C_33  and  C_17 
REMARK    3  A    between atoms: C_20  and  N_35 
REMARK    4  A    between atoms: O_47  and  C_21 
REMARK    5  A    between atoms: C_22  and  O_49 
REMARK    6  A    between atoms: C_23  and  O_49 
REMARK    7  A    between atoms: C_28  and  O_40 
REMARK    8  A    between atoms: O_42  and  C_30 
REMARK    9  A    between atoms: O_44  and  C_32 
REMARK   10  A    between atoms: C_33  and  O_45 
REMARK   11  A    between atoms: C_34  and  O_46 
REMARK   12  A    between atoms: N_36  and  N_38 
ROOT
HETATM    1  C   UNK N   1      35.636  11.439  19.931  0.00  0.00     0.004 A 
HETATM    2  C   UNK N   1      35.528  10.474  18.940  0.00  0.00     0.017 A 
HETATM    3  C   UNK N   1      35.507  12.783  19.604  0.00  0.00     0.038 A 
HETATM    4  C   UNK N   1      35.314   8.413  11.772  0.00  0.00     0.086 C 
HETATM    5  C   UNK N   1      33.981   9.973  10.259  0.00  0.00     0.081 C 
HETATM    6  C   UNK N   1      35.266  10.837  17.612  0.00  0.00     0.032 A 
HETATM    7  C   UNK N   1      35.107   9.497  12.800  0.00  0.00    -0.009 A 
HETATM    8  C   UNK N   1      35.258  13.188  18.288  0.00  0.00     0.083 A 
HETATM    9  C   UNK N   1      34.800  11.092  10.906  0.00  0.00     0.164 C 
HETATM   10  C   UNK N   1      35.103  12.197  17.263  0.00  0.00     0.062 A 
HETATM   11  C   UNK N   1      34.861  10.827  12.405  0.00  0.00     0.014 A 
HETATM   12  C   UNK N   1      35.062  10.138  15.146  0.00  0.00     0.066 A 
HETATM   13  C   UNK N   1      34.837  11.482  14.776  0.00  0.00     0.066 A 
HETATM   14  C   UNK N   1      35.193   9.779  16.587  0.00  0.00     0.197 C 
HETATM   15  C   UNK N   1      35.190   9.154  14.149  0.00  0.00     0.088 A 
HETATM   16  C   UNK N   1      34.763  12.530  15.840  0.00  0.00     0.200 C 
HETATM   17  C   UNK N   1      34.719  11.822  13.399  0.00  0.00     0.090 A 
HETATM   18  C   UNK N   1      34.641   8.598  10.398  0.00  0.00     0.103 C 
HETATM   19  O   UNK N   1      35.296   8.609  16.929  0.00  0.00    -0.286 OA
HETATM   20  O   UNK N   1      34.406  13.659  15.545  0.00  0.00    -0.286 OA
ENDROOT
BRANCH  18  21
HETATM   21  C   UNK N   1      33.592   7.543  10.038  0.00  0.00     0.034 C 
HETATM   22  C   UNK N   1      32.156   7.958  10.057  0.00  0.00     0.068 C 
HETATM   23  N   UNK N   1      33.851   6.326   9.675  0.00  0.00    -0.304 N 
ATOM     24  HN  UNK N   1      33.069   5.738   9.387  1.00  0.00     0.186 HD
BRANCH  23  25
HETATM   25  N   UNK N   1      35.109   5.779   9.653  0.00  0.00    -0.280 N 
HETATM   26  C   UNK N   1      35.552   4.976  10.568  0.00  0.00     0.165 C 
ATOM     27  HN  UNK N   1      35.726   6.015   8.876  1.00  0.00     0.189 HD
BRANCH  26  28
HETATM   28  C   UNK N   1      34.712   4.475  11.700  0.00  0.00     0.016 A 
HETATM   29  C   UNK N   1      33.589   3.655  11.505  0.00  0.00     0.016 A 
HETATM   30  C   UNK N   1      32.852   3.181  12.591  0.00  0.00     0.001 A 
HETATM   31  C   UNK N   1      33.230   3.520  13.891  0.00  0.00     0.000 A 
HETATM   32  C   UNK N   1      34.346   4.333  14.102  0.00  0.00     0.001 A 
HETATM   33  C   UNK N   1      35.085   4.804  13.013  0.00  0.00     0.016 A 
ENDBRANCH  26  28
BRANCH  26  34
HETATM   34  O   UNK N   1      36.825   4.545  10.478  0.00  0.00    -0.344 OA
HETATM   35  H   UNK N   1      37.147   4.202   9.668  0.00  0.00     0.219 HD
ENDBRANCH  26  34
ENDBRANCH  23  25
ENDBRANCH  18  21
BRANCH  18  36
HETATM   36  O   UNK N   1      35.664   8.515   9.450  0.00  0.00    -0.383 OA
HETATM   37  H   UNK N   1      36.602   8.602   9.217  0.00  0.00     0.211 HD
ENDBRANCH  18  36
BRANCH   9  38
HETATM   38  O   UNK N   1      34.448  12.409  10.481  0.00  0.00    -0.351 OA
BRANCH  38  39
HETATM   39  C   UNK N   1      35.144  12.931   9.349  0.00  0.00     0.263 C 
HETATM   40  C   UNK N   1      36.431  13.729   9.674  0.00  0.00     0.088 C 
HETATM   41  C   UNK N   1      36.181  15.051  10.396  0.00  0.00     0.110 C 
HETATM   42  C   UNK N   1      34.683  15.356  10.465  0.00  0.00     0.169 C 
HETATM   43  C   UNK N   1      34.039  15.069   9.086  0.00  0.00     0.151 C 
HETATM   44  C   UNK N   1      34.550  16.048   8.037  0.00  0.00     0.042 C 
HETATM   45  O   UNK N   1      34.239  13.735   8.595  0.00  0.00    -0.354 OA
BRANCH  41  46
HETATM   46  N   UNK N   1      36.752  15.011  11.732  0.00  0.00    -0.423 N 
HETATM   47  H   UNK N   1      37.735  15.132  11.976  0.00  0.00     0.150 HD
HETATM   48  H   UNK N   1      36.105  14.844  12.503  0.00  0.00     0.150 HD
ENDBRANCH  41  46
BRANCH  42  49
HETATM   49  O   UNK N   1      34.471  16.678  10.866  0.00  0.00    -0.391 OA
HETATM   50  H   UNK N   1      34.137  17.353  10.254  0.00  0.00     0.210 HD
ENDBRANCH  42  49
ENDBRANCH  38  39
ENDBRANCH   9  38
BRANCH  15  51
HETATM   51  O   UNK N   1      35.426   7.869  14.483  0.00  0.00    -0.359 OA
HETATM   52  H   UNK N   1      35.204   7.555  15.338  0.00  0.00     0.217 HD
ENDBRANCH  15  51
BRANCH  17  53
HETATM   53  O   UNK N   1      34.522  13.104  13.039  0.00  0.00    -0.359 OA
HETATM   54  H   UNK N   1      33.821  13.327  12.459  0.00  0.00     0.217 HD
ENDBRANCH  17  53
BRANCH   8  55
HETATM   55  O   UNK N   1      35.207  14.522  18.060  0.00  0.00    -0.355 OA
HETATM   56  C   UNK N   1      36.332  15.300  17.908  0.00  0.00     0.210 C 
ENDBRANCH   8  55
TORSDOF 12
ENDMDL
MODEL 8
REMARK VINA RESULT:      -8.2      2.052      2.677
REMARK  12 active torsions:
REMARK  status: ('A' for Active; 'I' for Inactive)
REMARK    1  A    between atoms: C_34  and  C_16 
REMARK    2  A    between atoms: C_33  and  C_17 
REMARK    3  A    between atoms: C_20  and  N_35 
REMARK    4  A    between atoms: O_47  and  C_21 
REMARK    5  A    between atoms: C_22  and  O_49 
REMARK    6  A    between atoms: C_23  and  O_49 
REMARK    7  A    between atoms: C_28  and  O_40 
REMARK    8  A    between atoms: O_42  and  C_30 
REMARK    9  A    between atoms: O_44  and  C_32 
REMARK   10  A    between atoms: C_33  and  O_45 
REMARK   11  A    between atoms: C_34  and  O_46 
REMARK   12  A    between atoms: N_36  and  N_38 
ROOT
HETATM    1  C   UNK N   1      34.110  17.937   7.184  0.00  0.00     0.004 A 
HETATM    2  C   UNK N   1      34.521  17.697   8.487  0.00  0.00     0.017 A 
HETATM    3  C   UNK N   1      33.660  16.886   6.395  0.00  0.00     0.038 A 
HETATM    4  C   UNK N   1      36.537  13.084  13.994  0.00  0.00     0.086 C 
HETATM    5  C   UNK N   1      35.169  10.937  14.134  0.00  0.00     0.081 C 
HETATM    6  C   UNK N   1      34.464  16.406   9.028  0.00  0.00     0.032 A 
HETATM    7  C   UNK N   1      35.790  13.283  12.699  0.00  0.00    -0.009 A 
HETATM    8  C   UNK N   1      33.600  15.580   6.894  0.00  0.00     0.083 A 
HETATM    9  C   UNK N   1      35.448  10.813  12.635  0.00  0.00     0.164 C 
HETATM   10  C   UNK N   1      33.982  15.326   8.253  0.00  0.00     0.062 A 
HETATM   11  C   UNK N   1      35.250  12.185  12.002  0.00  0.00     0.014 A 
HETATM   12  C   UNK N   1      35.034  14.813  10.965  0.00  0.00     0.066 A 
HETATM   13  C   UNK N   1      34.504  13.725  10.236  0.00  0.00     0.066 A 
HETATM   14  C   UNK N   1      34.942  16.192  10.407  0.00  0.00     0.197 C 
HETATM   15  C   UNK N   1      35.670  14.579  12.197  0.00  0.00     0.088 A 
HETATM   16  C   UNK N   1      33.884  13.976   8.898  0.00  0.00     0.200 C 
HETATM   17  C   UNK N   1      34.599  12.409  10.767  0.00  0.00     0.090 A 
HETATM   18  C   UNK N   1      36.163  11.857  14.848  0.00  0.00     0.103 C 
HETATM   19  O   UNK N   1      35.312  17.153  11.066  0.00  0.00    -0.286 OA
HETATM   20  O   UNK N   1      33.280  13.074   8.340  0.00  0.00    -0.286 OA
ENDROOT
BRANCH  18  21
HETATM   21  C   UNK N   1      35.586  12.175  16.231  0.00  0.00     0.034 C 
HETATM   22  C   UNK N   1      34.804  13.440  16.381  0.00  0.00     0.068 C 
HETATM   23  N   UNK N   1      35.688  11.414  17.275  0.00  0.00    -0.304 N 
ATOM     24  HN  UNK N   1      35.197  11.700  18.122  1.00  0.00     0.186 HD
BRANCH  23  25
HETATM   25  N   UNK N   1      36.411  10.249  17.314  0.00  0.00    -0.280 N 
HETATM   26  C   UNK N   1      36.159   9.282  18.138  0.00  0.00     0.165 C 
ATOM     27  HN  UNK N   1      37.186  10.138  16.659  1.00  0.00     0.189 HD
BRANCH  26  28
HETATM   28  C   UNK N   1      34.992   9.281  19.073  0.00  0.00     0.016 A 
HETATM   29  C   UNK N   1      33.813   8.565  18.813  0.00  0.00     0.016 A 
HETATM   30  C   UNK N   1      32.759   8.563  19.728  0.00  0.00     0.001 A 
HETATM   31  C   UNK N   1      32.873   9.277  20.921  0.00  0.00     0.000 A 
HETATM   32  C   UNK N   1      34.040   9.993  21.197  0.00  0.00     0.001 A 
HETATM   33  C   UNK N   1      35.095   9.991  20.280  0.00  0.00     0.016 A 
ENDBRANCH  26  28
BRANCH  26  34
HETATM   34  O   UNK N   1      36.973   8.209  18.130  0.00  0.00    -0.344 OA
HETATM   35  H   UNK N   1      37.407   7.944  18.916  0.00  0.00     0.219 HD
ENDBRANCH  26  34
ENDBRANCH  23  25
ENDBRANCH  18  21
BRANCH  18  36
HETATM   36  O   UNK N   1      37.347  11.142  15.041  0.00  0.00    -0.383 OA
HETATM   37  H   UNK N   1      38.284  11.122  15.292  0.00  0.00     0.211 HD
ENDBRANCH  18  36
BRANCH   9  38
HETATM   38  O   UNK N   1      34.821   9.696  12.003  0.00  0.00    -0.351 OA
BRANCH  38  39
HETATM   39  C   UNK N   1      35.637   8.550  11.756  0.00  0.00     0.263 C 
HETATM   40  C   UNK N   1      36.089   8.364  10.286  0.00  0.00     0.088 C 
HETATM   41  C   UNK N   1      34.953   8.027   9.322  0.00  0.00     0.110 C 
HETATM   42  C   UNK N   1      33.651   7.776  10.084  0.00  0.00     0.169 C 
HETATM   43  C   UNK N   1      33.943   6.878  11.312  0.00  0.00     0.151 C 
HETATM   44  C   UNK N   1      34.371   5.483  10.873  0.00  0.00     0.042 C 
HETATM   45  O   UNK N   1      34.938   7.394  12.211  0.00  0.00    -0.354 OA
BRANCH  41  46
HETATM   46  N   UNK N   1      34.777   9.100   8.358  0.00  0.00    -0.423 N 
HETATM   47  H   UNK N   1      34.296   9.986   8.516  0.00  0.00     0.150 HD
HETATM   48  H   UNK N   1      35.175   8.953   7.430  0.00  0.00     0.150 HD
ENDBRANCH  41  46
BRANCH  42  49
HETATM   49  O   UNK N   1      32.695   7.199   9.243  0.00  0.00    -0.391 OA
HETATM   50  H   UNK N   1      32.914   6.902   8.345  0.00  0.00     0.210 HD
ENDBRANCH  42  49
ENDBRANCH  38  39
ENDBRANCH   9  38
BRANCH  15  51
HETATM   51  O   UNK N   1      36.200  15.602  12.897  0.00  0.00    -0.359 OA
HETATM   52  H   UNK N   1      36.317  16.440  12.494  0.00  0.00     0.217 HD
ENDBRANCH  15  51
BRANCH  17  53
HETATM   53  O   UNK N   1      34.112  11.366  10.069  0.00  0.00    -0.359 OA
HETATM   54  H   UNK N   1      33.946  10.550  10.498  0.00  0.00     0.217 HD
ENDBRANCH  17  53
BRANCH   8  55
HETATM   55  O   UNK N   1      33.204  14.615   6.031  0.00  0.00    -0.355 OA
HETATM   56  C   UNK N   1      31.979  14.627   5.403  0.00  0.00     0.210 C 
ENDBRANCH   8  55
TORSDOF 12
ENDMDL
MODEL 9
REMARK VINA RESULT:      -8.1      4.427      7.687
REMARK  12 active torsions:
REMARK  status: ('A' for Active; 'I' for Inactive)
REMARK    1  A    between atoms: C_34  and  C_16 
REMARK    2  A    between atoms: C_33  and  C_17 
REMARK    3  A    between atoms: C_20  and  N_35 
REMARK    4  A    between atoms: O_47  and  C_21 
REMARK    5  A    between atoms: C_22  and  O_49 
REMARK    6  A    between atoms: C_23  and  O_49 
REMARK    7  A    between atoms: C_28  and  O_40 
REMARK    8  A    between atoms: O_42  and  C_30 
REMARK    9  A    between atoms: O_44  and  C_32 
REMARK   10  A    between atoms: C_33  and  O_45 
REMARK   11  A    between atoms: C_34  and  O_46 
REMARK   12  A    between atoms: N_36  and  N_38 
ROOT
HETATM    1  C   UNK N   1      26.445  21.100   6.796  0.00  0.00     0.004 A 
HETATM    2  C   UNK N   1      27.357  20.381   7.556  0.00  0.00     0.017 A 
HETATM    3  C   UNK N   1      26.271  20.794   5.452  0.00  0.00     0.038 A 
HETATM    4  C   UNK N   1      33.065  15.620   8.202  0.00  0.00     0.086 C 
HETATM    5  C   UNK N   1      32.972  13.629   6.611  0.00  0.00     0.081 C 
HETATM    6  C   UNK N   1      28.089  19.329   6.990  0.00  0.00     0.032 A 
HETATM    7  C   UNK N   1      31.901  16.121   7.383  0.00  0.00    -0.009 A 
HETATM    8  C   UNK N   1      26.994  19.760   4.846  0.00  0.00     0.083 A 
HETATM    9  C   UNK N   1      32.719  14.675   5.522  0.00  0.00     0.164 C 
HETATM   10  C   UNK N   1      27.907  18.983   5.632  0.00  0.00     0.062 A 
HETATM   11  C   UNK N   1      31.709  15.681   6.059  0.00  0.00     0.014 A 
HETATM   12  C   UNK N   1      29.970  17.591   7.224  0.00  0.00     0.066 A 
HETATM   13  C   UNK N   1      29.769  17.183   5.886  0.00  0.00     0.066 A 
HETATM   14  C   UNK N   1      29.070  18.614   7.828  0.00  0.00     0.197 C 
HETATM   15  C   UNK N   1      31.036  17.050   7.963  0.00  0.00     0.088 A 
HETATM   16  C   UNK N   1      28.670  17.811   5.089  0.00  0.00     0.200 C 
HETATM   17  C   UNK N   1      30.634  16.211   5.310  0.00  0.00     0.090 A 
HETATM   18  C   UNK N   1      33.622  14.223   7.864  0.00  0.00     0.103 C 
HETATM   19  O   UNK N   1      29.173  18.910   9.010  0.00  0.00    -0.286 OA
HETATM   20  O   UNK N   1      28.386  17.349   3.996  0.00  0.00    -0.286 OA
ENDROOT
BRANCH  18  21
HETATM   21  C   UNK N   1      33.502  13.185   8.983  0.00  0.00     0.034 C 
HETATM   22  C   UNK N   1      33.207  11.773   8.589  0.00  0.00     0.068 C 
HETATM   23  N   UNK N   1      33.678  13.424  10.244  0.00  0.00    -0.304 N 
ATOM     24  HN  UNK N   1      33.645  12.633  10.888  1.00  0.00     0.186 HD
BRANCH  23  25
HETATM   25  N   UNK N   1      33.906  14.670  10.770  0.00  0.00    -0.280 N 
HETATM   26  C   UNK N   1      35.071  15.072  11.169  0.00  0.00     0.165 C 
ATOM     27  HN  UNK N   1      33.118  15.314  10.849  1.00  0.00     0.189 HD
BRANCH  26  28
HETATM   28  C   UNK N   1      36.319  14.263  11.013  0.00  0.00     0.016 A 
HETATM   29  C   UNK N   1      36.634  13.186  11.857  0.00  0.00     0.016 A 
HETATM   30  C   UNK N   1      37.792  12.434  11.656  0.00  0.00     0.001 A 
HETATM   31  C   UNK N   1      38.653  12.749  10.604  0.00  0.00     0.000 A 
HETATM   32  C   UNK N   1      38.353  13.816   9.753  0.00  0.00     0.001 A 
HETATM   33  C   UNK N   1      37.190  14.565   9.955  0.00  0.00     0.016 A 
ENDBRANCH  26  28
BRANCH  26  34
HETATM   34  O   UNK N   1      35.168  16.295  11.725  0.00  0.00    -0.344 OA
HETATM   35  H   UNK N   1      35.731  16.939  11.345  0.00  0.00     0.219 HD
ENDBRANCH  26  34
ENDBRANCH  23  25
ENDBRANCH  18  21
BRANCH  18  36
HETATM   36  O   UNK N   1      34.982  14.400   7.598  0.00  0.00    -0.383 OA
HETATM   37  H   UNK N   1      35.770  14.966   7.598  0.00  0.00     0.211 HD
ENDBRANCH  18  36
BRANCH   9  38
HETATM   38  O   UNK N   1      32.487  14.135   4.221  0.00  0.00    -0.351 OA
BRANCH  38  39
HETATM   39  C   UNK N   1      33.447  14.445   3.211  0.00  0.00     0.263 C 
HETATM   40  C   UNK N   1      33.403  13.539   1.955  0.00  0.00     0.088 C 
HETATM   41  C   UNK N   1      33.825  12.094   2.212  0.00  0.00     0.110 C 
HETATM   42  C   UNK N   1      34.369  11.933   3.633  0.00  0.00     0.169 C 
HETATM   43  C   UNK N   1      35.326  13.108   3.950  0.00  0.00     0.151 C 
HETATM   44  C   UNK N   1      36.577  13.037   3.082  0.00  0.00     0.042 C 
HETATM   45  O   UNK N   1      34.746  14.414   3.800  0.00  0.00    -0.354 OA
BRANCH  41  46
HETATM   46  N   UNK N   1      32.703  11.196   1.994  0.00  0.00    -0.423 N 
HETATM   47  H   UNK N   1      32.672  10.409   1.345  0.00  0.00     0.150 HD
HETATM   48  H   UNK N   1      31.863  11.370   2.545  0.00  0.00     0.150 HD
ENDBRANCH  41  46
BRANCH  42  49
HETATM   49  O   UNK N   1      35.009  10.698   3.774  0.00  0.00    -0.391 OA
HETATM   50  H   UNK N   1      35.045  10.052   3.051  0.00  0.00     0.210 HD
ENDBRANCH  42  49
ENDBRANCH  38  39
ENDBRANCH   9  38
BRANCH  15  51
HETATM   51  O   UNK N   1      31.256  17.442   9.234  0.00  0.00    -0.359 OA
HETATM   52  H   UNK N   1      32.110  17.363   9.611  0.00  0.00     0.217 HD
ENDBRANCH  15  51
BRANCH  17  53
HETATM   53  O   UNK N   1      30.459  15.832   4.031  0.00  0.00    -0.359 OA
HETATM   54  H   UNK N   1      29.635  15.485   3.752  0.00  0.00     0.217 HD
ENDBRANCH  17  53
BRANCH   8  55
HETATM   55  O   UNK N   1      26.798  19.577   3.518  0.00  0.00    -0.355 OA
HETATM   56  C   UNK N   1      25.552  19.595   2.934  0.00  0.00     0.210 C 
ENDBRANCH   8  55
TORSDOF 12
ENDMDL
