REMARK  15 active torsions:
REMARK  status: ('A' for Active; 'I' for Inactive)
REMARK    1  A    between atoms: C_5  and  O_7 
REMARK    2  A    between atoms: O_7  and  C_8 
REMARK    3  A    between atoms: C_8  and  C_9 
REMARK    4  A    between atoms: C_9  and  N_10 
REMARK    5  A    between atoms: N_10  and  C_11 
REMARK    6  A    between atoms: C_11  and  C_14 
REMARK    7  A    between atoms: C_14  and  C_15 
REMARK    8  A    between atoms: C_15  and  C_16 
REMARK    9  A    between atoms: C_16  and  C_17 
REMARK   10  A    between atoms: C_17  and  C_18 
REMARK   11  A    between atoms: C_18  and  C_19 
REMARK   12  A    between atoms: C_19  and  C_20 
REMARK   13  A    between atoms: C_20  and  C_21 
REMARK   14  A    between atoms: C_21  and  C_22 
REMARK   15  A    between atoms: C_22  and  C_23 
ROOT
HETATM    1  N   UNK N   1      -2.512   0.562  -0.252  0.00  0.00    -0.073 N 
HETATM    2  C   UNK N   1      -3.075  -0.027  -1.468  0.00  0.00     0.272 C 
HETATM    3  C   UNK N   1      -1.502   1.546  -0.619  0.00  0.00     0.272 C 
ENDROOT
BRANCH   1   4
HETATM    4  C   UNK N   1      -3.552   1.209   0.556  0.00  0.00     0.263 C 
BRANCH   4   5
HETATM    5  C   UNK N   1      -4.499   2.096  -0.262  0.00  0.00     0.203 C 
BRANCH   5   6
HETATM    6  O   UNK N   1      -5.806   1.960   0.170  0.00  0.00    -0.349 OA
BRANCH   6   7
HETATM    7  C   UNK N   1      -6.522   0.806   0.110  0.00  0.00     0.068 A 
HETATM    8  C   UNK N   1      -7.871   0.822   0.483  0.00  0.00     0.037 A 
HETATM    9  C   UNK N   1      -8.631  -0.351   0.435  0.00  0.00     0.003 A 
HETATM   10  C   UNK N   1      -8.046  -1.551   0.020  0.00  0.00     0.000 A 
HETATM   11  C   UNK N   1      -6.701  -1.578  -0.354  0.00  0.00     0.003 A 
HETATM   12  C   UNK N   1      -5.945  -0.405  -0.313  0.00  0.00     0.037 A 
ENDBRANCH   6   7
ENDBRANCH   5   6
ENDBRANCH   4   5
ENDBRANCH   1   4
BRANCH   1  13
HETATM   13  C   UNK N   1      -1.904  -0.469   0.596  0.00  0.00     0.236 C 
BRANCH  13  14
HETATM   14  C   UNK N   1      -1.020  -1.450  -0.178  0.00  0.00     0.028 C 
BRANCH  14  15
HETATM   15  C   UNK N   1       0.144  -1.930   0.672  0.00  0.00     0.002 C 
BRANCH  15  16
HETATM   16  C   UNK N   1       1.169  -0.823   0.884  0.00  0.00     0.000 C 
BRANCH  16  17
HETATM   17  C   UNK N   1       1.660  -0.279  -0.450  0.00  0.00     0.000 C 
BRANCH  17  18
HETATM   18  C   UNK N   1       2.823   0.665  -0.241  0.00  0.00     0.000 C 
BRANCH  18  19
HETATM   19  C   UNK N   1       4.088  -0.146  -0.069  0.00  0.00     0.000 C 
BRANCH  19  20
HETATM   20  C   UNK N   1       5.281   0.776   0.020  0.00  0.00     0.000 C 
BRANCH  20  21
HETATM   21  C   UNK N   1       6.532  -0.068   0.096  0.00  0.00     0.000 C 
BRANCH  21  22
HETATM   22  C   UNK N   1       7.753   0.823   0.080  0.00  0.00    -0.000 C 
BRANCH  22  23
HETATM   23  C   UNK N   1       8.994  -0.043   0.078  0.00  0.00    -0.005 C 
HETATM   24  C   UNK N   1      10.223   0.836   0.006  0.00  0.00     0.005 C 
ENDBRANCH  22  23
ENDBRANCH  21  22
ENDBRANCH  20  21
ENDBRANCH  19  20
ENDBRANCH  18  19
ENDBRANCH  17  18
ENDBRANCH  16  17
ENDBRANCH  15  16
ENDBRANCH  14  15
ENDBRANCH  13  14
ENDBRANCH   1  13
TORSDOF 15
