MODEL 1
REMARK VINA RESULT:      -5.9      0.000      0.000
REMARK  0 active torsions:
REMARK  status: ('A' for Active; 'I' for Inactive)
ROOT
HETATM    1  O   UNK N   1      34.602  17.958   6.848  0.00  0.00    -0.223 OA
HETATM    2  C   UNK N   1      33.612  17.335   6.212  0.00  0.00     0.304 A 
HETATM    3  C   UNK N   1      34.424  18.544   8.029  0.00  0.00     0.373 A 
HETATM    4  C   UNK N   1      32.338  17.286   6.789  0.00  0.00     0.066 A 
HETATM    5  N   UNK N   1      33.198  18.525   8.636  0.00  0.00    -0.301 N 
HETATM    6  C   UNK N   1      32.154  17.907   8.037  0.00  0.00     0.053 A 
HETATM    7  O   UNK N   1      33.825  16.813   5.131  0.00  0.00    -0.259 OA
HETATM    8  O   UNK N   1      35.357  19.102   8.575  0.00  0.00    -0.238 OA
HETATM    9  C   UNK N   1      31.260  16.645   6.165  0.00  0.00     0.020 A 
HETATM   10  C   UNK N   1      30.905  17.887   8.655  0.00  0.00     0.030 A 
HETATM   11  C   UNK N   1      30.009  16.627   6.788  0.00  0.00     0.001 A 
HETATM   12  C   UNK N   1      29.832  17.247   8.031  0.00  0.00     0.002 A 
HETATM   13  H   UNK N   1      33.075  18.961   9.510  0.00  0.00     0.171 HD
ENDROOT
TORSDOF 0
ENDMDL
MODEL 2
REMARK VINA RESULT:      -5.8     11.310     12.642
REMARK  0 active torsions:
REMARK  status: ('A' for Active; 'I' for Inactive)
ROOT
HETATM    1  O   UNK N   1      19.919  13.438  10.179  0.00  0.00    -0.223 OA
HETATM    2  C   UNK N   1      20.680  12.676  10.961  0.00  0.00     0.304 A 
HETATM    3  C   UNK N   1      20.431  14.171   9.193  0.00  0.00     0.373 A 
HETATM    4  C   UNK N   1      22.063  12.631  10.754  0.00  0.00     0.066 A 
HETATM    5  N   UNK N   1      21.777  14.162   8.948  0.00  0.00    -0.301 N 
HETATM    6  C   UNK N   1      22.600  13.406   9.711  0.00  0.00     0.053 A 
HETATM    7  O   UNK N   1      20.163  12.023  11.852  0.00  0.00    -0.259 OA
HETATM    8  O   UNK N   1      19.699  14.853   8.503  0.00  0.00    -0.238 OA
HETATM    9  C   UNK N   1      22.912  11.846  11.546  0.00  0.00     0.020 A 
HETATM   10  C   UNK N   1      23.971  13.396   9.462  0.00  0.00     0.030 A 
HETATM   11  C   UNK N   1      24.286  11.839  11.293  0.00  0.00     0.001 A 
HETATM   12  C   UNK N   1      24.815  12.613  10.253  0.00  0.00     0.002 A 
HETATM   13  H   UNK N   1      22.148  14.706   8.217  0.00  0.00     0.171 HD
ENDROOT
TORSDOF 0
ENDMDL
MODEL 3
REMARK VINA RESULT:      -5.6     10.625     11.814
REMARK  0 active torsions:
REMARK  status: ('A' for Active; 'I' for Inactive)
ROOT
HETATM    1  O   UNK N   1      21.676  12.185  11.895  0.00  0.00    -0.223 OA
HETATM    2  C   UNK N   1      21.443  12.639  10.666  0.00  0.00     0.304 A 
HETATM    3  C   UNK N   1      22.911  11.995  12.354  0.00  0.00     0.373 A 
HETATM    4  C   UNK N   1      22.516  12.931   9.817  0.00  0.00     0.066 A 
HETATM    5  N   UNK N   1      23.995  12.265  11.565  0.00  0.00    -0.301 N 
HETATM    6  C   UNK N   1      23.819  12.729  10.307  0.00  0.00     0.053 A 
HETATM    7  O   UNK N   1      20.293  12.797  10.290  0.00  0.00    -0.259 OA
HETATM    8  O   UNK N   1      23.079  11.578  13.485  0.00  0.00    -0.238 OA
HETATM    9  C   UNK N   1      22.329  13.412   8.514  0.00  0.00     0.020 A 
HETATM   10  C   UNK N   1      24.923  13.004   9.501  0.00  0.00     0.030 A 
HETATM   11  C   UNK N   1      23.439  13.686   7.710  0.00  0.00     0.001 A 
HETATM   12  C   UNK N   1      24.733  13.483   8.204  0.00  0.00     0.002 A 
HETATM   13  H   UNK N   1      24.904  12.121  11.913  0.00  0.00     0.171 HD
ENDROOT
TORSDOF 0
ENDMDL
MODEL 4
REMARK VINA RESULT:      -5.5     15.439     16.302
REMARK  0 active torsions:
REMARK  status: ('A' for Active; 'I' for Inactive)
ROOT
HETATM    1  O   UNK N   1      26.137  23.420  -4.831  0.00  0.00    -0.223 OA
HETATM    2  C   UNK N   1      26.383  24.317  -3.878  0.00  0.00     0.304 A 
HETATM    3  C   UNK N   1      25.627  23.765  -6.010  0.00  0.00     0.373 A 
HETATM    4  C   UNK N   1      26.103  25.668  -4.107  0.00  0.00     0.066 A 
HETATM    5  N   UNK N   1      25.336  25.073  -6.285  0.00  0.00    -0.301 N 
HETATM    6  C   UNK N   1      25.564  26.029  -5.355  0.00  0.00     0.053 A 
HETATM    7  O   UNK N   1      26.851  23.951  -2.813  0.00  0.00    -0.259 OA
HETATM    8  O   UNK N   1      25.418  22.913  -6.853  0.00  0.00    -0.238 OA
HETATM    9  C   UNK N   1      26.342  26.654  -3.141  0.00  0.00     0.020 A 
HETATM   10  C   UNK N   1      25.268  27.362  -5.633  0.00  0.00     0.030 A 
HETATM   11  C   UNK N   1      26.042  27.990  -3.424  0.00  0.00     0.001 A 
HETATM   12  C   UNK N   1      25.506  28.342  -4.669  0.00  0.00     0.002 A 
HETATM   13  H   UNK N   1      24.959  25.320  -7.160  0.00  0.00     0.171 HD
ENDROOT
TORSDOF 0
ENDMDL
MODEL 5
REMARK VINA RESULT:      -5.4     15.546     16.252
REMARK  0 active torsions:
REMARK  status: ('A' for Active; 'I' for Inactive)
ROOT
HETATM    1  O   UNK N   1      26.304  26.148  -2.926  0.00  0.00    -0.223 OA
HETATM    2  C   UNK N   1      26.392  24.980  -3.558  0.00  0.00     0.304 A 
HETATM    3  C   UNK N   1      26.019  27.278  -3.569  0.00  0.00     0.373 A 
HETATM    4  C   UNK N   1      26.181  24.919  -4.939  0.00  0.00     0.066 A 
HETATM    5  N   UNK N   1      25.804  27.273  -4.920  0.00  0.00    -0.301 N 
HETATM    6  C   UNK N   1      25.880  26.115  -5.615  0.00  0.00     0.053 A 
HETATM    7  O   UNK N   1      26.656  23.971  -2.924  0.00  0.00    -0.259 OA
HETATM    8  O   UNK N   1      25.948  28.324  -2.953  0.00  0.00    -0.238 OA
HETATM    9  C   UNK N   1      26.261  23.717  -5.655  0.00  0.00     0.020 A 
HETATM   10  C   UNK N   1      25.662  26.109  -6.991  0.00  0.00     0.030 A 
HETATM   11  C   UNK N   1      26.041  23.715  -7.035  0.00  0.00     0.001 A 
HETATM   12  C   UNK N   1      25.742  24.909  -7.702  0.00  0.00     0.002 A 
HETATM   13  H   UNK N   1      25.593  28.113  -5.388  0.00  0.00     0.171 HD
ENDROOT
TORSDOF 0
ENDMDL
MODEL 6
REMARK VINA RESULT:      -5.4     12.644     13.379
REMARK  0 active torsions:
REMARK  status: ('A' for Active; 'I' for Inactive)
ROOT
HETATM    1  O   UNK N   1      20.912  20.683   3.072  0.00  0.00    -0.223 OA
HETATM    2  C   UNK N   1      20.865  19.564   3.792  0.00  0.00     0.304 A 
HETATM    3  C   UNK N   1      20.717  20.683   1.756  0.00  0.00     0.373 A 
HETATM    4  C   UNK N   1      20.604  18.343   3.162  0.00  0.00     0.066 A 
HETATM    5  N   UNK N   1      20.458  19.516   1.091  0.00  0.00    -0.301 N 
HETATM    6  C   UNK N   1      20.398  18.348   1.771  0.00  0.00     0.053 A 
HETATM    7  O   UNK N   1      21.051  19.615   4.997  0.00  0.00    -0.259 OA
HETATM    8  O   UNK N   1      20.769  21.729   1.136  0.00  0.00    -0.238 OA
HETATM    9  C   UNK N   1      20.543  17.135   3.870  0.00  0.00     0.020 A 
HETATM   10  C   UNK N   1      20.134  17.158   1.095  0.00  0.00     0.030 A 
HETATM   11  C   UNK N   1      20.278  15.944   3.188  0.00  0.00     0.001 A 
HETATM   12  C   UNK N   1      20.074  15.956   1.803  0.00  0.00     0.002 A 
HETATM   13  H   UNK N   1      20.315  19.525   0.118  0.00  0.00     0.171 HD
ENDROOT
TORSDOF 0
ENDMDL
MODEL 7
REMARK VINA RESULT:      -5.3      4.457      5.272
REMARK  0 active torsions:
REMARK  status: ('A' for Active; 'I' for Inactive)
ROOT
HETATM    1  O   UNK N   1      28.923  17.113   7.942  0.00  0.00    -0.223 OA
HETATM    2  C   UNK N   1      28.988  17.429   6.650  0.00  0.00     0.304 A 
HETATM    3  C   UNK N   1      28.267  17.868   8.820  0.00  0.00     0.373 A 
HETATM    4  C   UNK N   1      28.353  18.585   6.185  0.00  0.00     0.066 A 
HETATM    5  N   UNK N   1      27.629  19.008   8.417  0.00  0.00    -0.301 N 
HETATM    6  C   UNK N   1      27.661  19.379   7.116  0.00  0.00     0.053 A 
HETATM    7  O   UNK N   1      29.602  16.705   5.884  0.00  0.00    -0.259 OA
HETATM    8  O   UNK N   1      28.233  17.542   9.992  0.00  0.00    -0.238 OA
HETATM    9  C   UNK N   1      28.389  18.965   4.836  0.00  0.00     0.020 A 
HETATM   10  C   UNK N   1      27.011  20.541   6.704  0.00  0.00     0.030 A 
HETATM   11  C   UNK N   1      27.736  20.131   4.427  0.00  0.00     0.001 A 
HETATM   12  C   UNK N   1      27.049  20.917   5.359  0.00  0.00     0.002 A 
HETATM   13  H   UNK N   1      27.146  19.560   9.073  0.00  0.00     0.171 HD
ENDROOT
TORSDOF 0
ENDMDL
MODEL 8
REMARK VINA RESULT:      -5.2     11.456     12.389
REMARK  0 active torsions:
REMARK  status: ('A' for Active; 'I' for Inactive)
ROOT
HETATM    1  O   UNK N   1      31.992  21.972  -2.223  0.00  0.00    -0.223 OA
HETATM    2  C   UNK N   1      32.578  21.240  -3.168  0.00  0.00     0.304 A 
HETATM    3  C   UNK N   1      30.768  22.472  -2.374  0.00  0.00     0.373 A 
HETATM    4  C   UNK N   1      31.900  20.979  -4.364  0.00  0.00     0.066 A 
HETATM    5  N   UNK N   1      30.062  22.246  -3.524  0.00  0.00    -0.301 N 
HETATM    6  C   UNK N   1      30.607  21.509  -4.520  0.00  0.00     0.053 A 
HETATM    7  O   UNK N   1      33.701  20.804  -2.982  0.00  0.00    -0.259 OA
HETATM    8  O   UNK N   1      30.270  23.135  -1.484  0.00  0.00    -0.238 OA
HETATM    9  C   UNK N   1      32.468  20.216  -5.393  0.00  0.00     0.020 A 
HETATM   10  C   UNK N   1      29.889  21.279  -5.692  0.00  0.00     0.030 A 
HETATM   11  C   UNK N   1      31.745  19.987  -6.567  0.00  0.00     0.001 A 
HETATM   12  C   UNK N   1      30.458  20.518  -6.716  0.00  0.00     0.002 A 
HETATM   13  H   UNK N   1      29.158  22.619  -3.628  0.00  0.00     0.171 HD
ENDROOT
TORSDOF 0
ENDMDL
MODEL 9
REMARK VINA RESULT:      -5.0      2.904      3.880
REMARK  0 active torsions:
REMARK  status: ('A' for Active; 'I' for Inactive)
ROOT
HETATM    1  O   UNK N   1      29.202  17.141   7.762  0.00  0.00    -0.223 OA
HETATM    2  C   UNK N   1      30.009  17.027   6.709  0.00  0.00     0.304 A 
HETATM    3  C   UNK N   1      29.659  17.469   8.969  0.00  0.00     0.373 A 
HETATM    4  C   UNK N   1      31.381  17.256   6.858  0.00  0.00     0.066 A 
HETATM    5  N   UNK N   1      30.992  17.703   9.167  0.00  0.00    -0.301 N 
HETATM    6  C   UNK N   1      31.859  17.602   8.134  0.00  0.00     0.053 A 
HETATM    7  O   UNK N   1      29.543  16.725   5.624  0.00  0.00    -0.259 OA
HETATM    8  O   UNK N   1      28.886  17.562   9.903  0.00  0.00    -0.238 OA
HETATM    9  C   UNK N   1      32.276  17.150   5.784  0.00  0.00     0.020 A 
HETATM   10  C   UNK N   1      33.217  17.840   8.335  0.00  0.00     0.030 A 
HETATM   11  C   UNK N   1      33.637  17.390   5.991  0.00  0.00     0.001 A 
HETATM   12  C   UNK N   1      34.107  17.734   7.264  0.00  0.00     0.002 A 
HETATM   13  H   UNK N   1      31.321  17.945  10.063  0.00  0.00     0.171 HD
ENDROOT
TORSDOF 0
ENDMDL
