MODEL 1
REMARK VINA RESULT:      -9.2      0.000      0.000
REMARK  1 active torsions:
REMARK  status: ('A' for Active; 'I' for Inactive)
REMARK    1  A    between atoms: C_17  and  C_18 
ROOT
HETATM    1  C   UNK N   1      32.874  14.549   4.633  0.00  0.00     0.310 C 
HETATM    2  C   UNK N   1      30.322  17.053   3.807  0.00  0.00     0.069 C 
HETATM    3  C   UNK N   1      31.286  15.891   3.487  0.00  0.00     0.277 C 
HETATM    4  C   UNK N   1      28.874  17.287   5.877  0.00  0.00     0.047 A 
HETATM    5  C   UNK N   1      31.179  17.066   7.491  0.00  0.00     0.049 A 
HETATM    6  C   UNK N   1      28.179  17.493   9.389  0.00  0.00     0.352 A 
HETATM    7  C   UNK N   1      30.146  17.131   5.285  0.00  0.00    -0.045 A 
HETATM    8  C   UNK N   1      31.306  17.028   6.084  0.00  0.00    -0.013 A 
HETATM    9  C   UNK N   1      28.816  17.338   7.270  0.00  0.00     0.105 A 
HETATM   10  C   UNK N   1      29.910  17.226   8.033  0.00  0.00     0.105 A 
HETATM   11  C   UNK N   1      32.641  16.896   5.349  0.00  0.00     0.289 C 
HETATM   12  N   UNK N   1      32.574  15.912   4.233  0.00  0.00     0.096 NA
HETATM   13  O   UNK N   1      27.752  17.501   8.055  0.00  0.00    -0.323 OA
HETATM   14  O   UNK N   1      29.563  17.307   9.316  0.00  0.00    -0.323 OA
ENDROOT
BRANCH  11  15
HETATM   15  C   UNK N   1      33.935  16.890   6.253  0.00  0.00     0.204 A 
HETATM   16  C   UNK N   1      34.000  16.095   7.555  0.00  0.00    -0.007 A 
HETATM   17  C   UNK N   1      33.728  14.734   7.828  0.00  0.00     0.014 A 
HETATM   18  C   UNK N   1      34.522  16.904   8.542  0.00  0.00     0.084 A 
HETATM   19  C   UNK N   1      34.003  14.233   9.131  0.00  0.00     0.040 A 
HETATM   20  C   UNK N   1      34.569  15.113  10.078  0.00  0.00     0.106 A 
HETATM   21  C   UNK N   1      34.816  16.395   9.790  0.00  0.00     0.121 A 
HETATM   22  O   UNK N   1      34.963  14.862  11.324  0.00  0.00    -0.323 OA
HETATM   23  O   UNK N   1      35.379  16.988  10.845  0.00  0.00    -0.322 OA
HETATM   24  C   UNK N   1      35.507  16.038  11.862  0.00  0.00     0.352 A 
HETATM   25  C   UNK N   1      34.704  18.184   7.963  0.00  0.00     0.297 A 
HETATM   26  O   UNK N   1      35.181  19.162   8.521  0.00  0.00    -0.259 OA
HETATM   27  O   UNK N   1      34.335  18.168   6.673  0.00  0.00    -0.304 OA
ENDBRANCH  11  15
TORSDOF 1
ENDMDL
MODEL 2
REMARK VINA RESULT:      -8.1      9.475     12.192
REMARK  1 active torsions:
REMARK  status: ('A' for Active; 'I' for Inactive)
REMARK    1  A    between atoms: C_17  and  C_18 
ROOT
HETATM    1  C   UNK N   1      24.339  15.902   5.745  0.00  0.00     0.310 C 
HETATM    2  C   UNK N   1      24.173  12.242   5.947  0.00  0.00     0.069 C 
HETATM    3  C   UNK N   1      24.752  13.583   5.450  0.00  0.00     0.277 C 
HETATM    4  C   UNK N   1      23.430  11.704   8.312  0.00  0.00     0.047 A 
HETATM    5  C   UNK N   1      21.661  13.903   8.237  0.00  0.00     0.049 A 
HETATM    6  C   UNK N   1      21.548  12.123  11.336  0.00  0.00     0.352 A 
HETATM    7  C   UNK N   1      23.337  12.505   7.153  0.00  0.00    -0.045 A 
HETATM    8  C   UNK N   1      22.449  13.602   7.103  0.00  0.00    -0.013 A 
HETATM    9  C   UNK N   1      22.611  12.040   9.391  0.00  0.00     0.105 A 
HETATM   10  C   UNK N   1      21.779  13.087   9.355  0.00  0.00     0.105 A 
HETATM   11  C   UNK N   1      22.396  14.387   5.791  0.00  0.00     0.289 C 
HETATM   12  N   UNK N   1      23.754  14.670   5.250  0.00  0.00     0.096 NA
HETATM   13  O   UNK N   1      22.498  11.433  10.573  0.00  0.00    -0.323 OA
HETATM   14  O   UNK N   1      21.127  13.172  10.513  0.00  0.00    -0.323 OA
ENDROOT
BRANCH  11  15
HETATM   15  C   UNK N   1      21.323  15.542   5.715  0.00  0.00     0.204 A 
HETATM   16  C   UNK N   1      21.188  16.430   4.479  0.00  0.00    -0.007 A 
HETATM   17  C   UNK N   1      21.023  16.104   3.114  0.00  0.00     0.014 A 
HETATM   18  C   UNK N   1      21.119  17.746   4.887  0.00  0.00     0.084 A 
HETATM   19  C   UNK N   1      20.791  17.157   2.186  0.00  0.00     0.040 A 
HETATM   20  C   UNK N   1      20.700  18.475   2.681  0.00  0.00     0.106 A 
HETATM   21  C   UNK N   1      20.859  18.752   3.980  0.00  0.00     0.121 A 
HETATM   22  O   UNK N   1      20.433  19.601   2.025  0.00  0.00    -0.323 OA
HETATM   23  O   UNK N   1      20.690  20.061   4.179  0.00  0.00    -0.322 OA
HETATM   24  C   UNK N   1      20.401  20.657   2.948  0.00  0.00     0.352 A 
HETATM   25  C   UNK N   1      21.295  17.745   6.292  0.00  0.00     0.297 A 
HETATM   26  O   UNK N   1      21.262  18.728   7.019  0.00  0.00    -0.259 OA
HETATM   27  O   UNK N   1      21.442  16.491   6.742  0.00  0.00    -0.304 OA
ENDBRANCH  11  15
TORSDOF 1
ENDMDL
MODEL 3
REMARK VINA RESULT:      -8.0      8.242     10.951
REMARK  1 active torsions:
REMARK  status: ('A' for Active; 'I' for Inactive)
REMARK    1  A    between atoms: C_17  and  C_18 
ROOT
HETATM    1  C   UNK N   1      25.750  15.843   3.467  0.00  0.00     0.310 C 
HETATM    2  C   UNK N   1      25.815  19.388   4.412  0.00  0.00     0.069 C 
HETATM    3  C   UNK N   1      26.457  18.024   4.086  0.00  0.00     0.277 C 
HETATM    4  C   UNK N   1      23.877  20.475   3.190  0.00  0.00     0.047 A 
HETATM    5  C   UNK N   1      22.306  18.181   3.681  0.00  0.00     0.049 A 
HETATM    6  C   UNK N   1      20.551  20.715   1.869  0.00  0.00     0.352 A 
HETATM    7  C   UNK N   1      24.412  19.385   3.909  0.00  0.00    -0.045 A 
HETATM    8  C   UNK N   1      23.632  18.237   4.167  0.00  0.00    -0.013 A 
HETATM    9  C   UNK N   1      22.555  20.368   2.754  0.00  0.00     0.105 A 
HETATM   10  C   UNK N   1      21.816  19.277   2.982  0.00  0.00     0.105 A 
HETATM   11  C   UNK N   1      24.290  17.124   4.985  0.00  0.00     0.289 C 
HETATM   12  N   UNK N   1      25.677  16.835   4.525  0.00  0.00     0.096 NA
HETATM   13  O   UNK N   1      21.824  21.259   2.084  0.00  0.00    -0.323 OA
HETATM   14  O   UNK N   1      20.604  19.447   2.456  0.00  0.00    -0.323 OA
ENDROOT
BRANCH  11  15
HETATM   15  C   UNK N   1      23.371  15.895   5.355  0.00  0.00     0.204 A 
HETATM   16  C   UNK N   1      22.297  15.995   6.437  0.00  0.00    -0.007 A 
HETATM   17  C   UNK N   1      21.240  16.917   6.615  0.00  0.00     0.014 A 
HETATM   18  C   UNK N   1      22.399  14.896   7.263  0.00  0.00     0.084 A 
HETATM   19  C   UNK N   1      20.302  16.683   7.659  0.00  0.00     0.040 A 
HETATM   20  C   UNK N   1      20.452  15.519   8.442  0.00  0.00     0.106 A 
HETATM   21  C   UNK N   1      21.461  14.664   8.248  0.00  0.00     0.121 A 
HETATM   22  O   UNK N   1      19.675  15.062   9.421  0.00  0.00    -0.323 OA
HETATM   23  O   UNK N   1      21.346  13.640   9.096  0.00  0.00    -0.322 OA
HETATM   24  C   UNK N   1      20.201  13.842   9.872  0.00  0.00     0.352 A 
HETATM   25  C   UNK N   1      23.527  14.161   6.823  0.00  0.00     0.297 A 
HETATM   26  O   UNK N   1      23.919  13.101   7.291  0.00  0.00    -0.259 OA
HETATM   27  O   UNK N   1      24.087  14.759   5.761  0.00  0.00    -0.304 OA
ENDBRANCH  11  15
TORSDOF 1
ENDMDL
MODEL 4
REMARK VINA RESULT:      -8.0      9.552     11.438
REMARK  1 active torsions:
REMARK  status: ('A' for Active; 'I' for Inactive)
REMARK    1  A    between atoms: C_17  and  C_18 
ROOT
HETATM    1  C   UNK N   1      19.808  13.501   5.348  0.00  0.00     0.310 C 
HETATM    2  C   UNK N   1      21.808  14.669   2.501  0.00  0.00     0.069 C 
HETATM    3  C   UNK N   1      20.988  13.627   3.292  0.00  0.00     0.277 C 
HETATM    4  C   UNK N   1      21.247  17.126   2.214  0.00  0.00     0.047 A 
HETATM    5  C   UNK N   1      21.185  17.422   5.020  0.00  0.00     0.049 A 
HETATM    6  C   UNK N   1      20.504  20.470   3.279  0.00  0.00     0.352 A 
HETATM    7  C   UNK N   1      21.512  16.022   3.053  0.00  0.00    -0.045 A 
HETATM    8  C   UNK N   1      21.491  16.161   4.457  0.00  0.00    -0.013 A 
HETATM    9  C   UNK N   1      20.972  18.348   2.829  0.00  0.00     0.105 A 
HETATM   10  C   UNK N   1      20.936  18.483   4.159  0.00  0.00     0.105 A 
HETATM   11  C   UNK N   1      21.825  14.916   5.280  0.00  0.00     0.289 C 
HETATM   12  N   UNK N   1      21.125  13.703   4.772  0.00  0.00     0.096 NA
HETATM   13  O   UNK N   1      20.716  19.528   2.263  0.00  0.00    -0.323 OA
HETATM   14  O   UNK N   1      20.650  19.747   4.467  0.00  0.00    -0.323 OA
ENDROOT
BRANCH  11  15
HETATM   15  C   UNK N   1      21.902  15.115   6.844  0.00  0.00     0.204 A 
HETATM   16  C   UNK N   1      22.753  14.203   7.727  0.00  0.00    -0.007 A 
HETATM   17  C   UNK N   1      24.116  13.838   7.644  0.00  0.00     0.014 A 
HETATM   18  C   UNK N   1      21.999  13.811   8.813  0.00  0.00     0.084 A 
HETATM   19  C   UNK N   1      24.678  13.063   8.697  0.00  0.00     0.040 A 
HETATM   20  C   UNK N   1      23.854  12.728   9.793  0.00  0.00     0.106 A 
HETATM   21  C   UNK N   1      22.567  13.090   9.842  0.00  0.00     0.121 A 
HETATM   22  O   UNK N   1      24.166  12.073  10.907  0.00  0.00    -0.323 OA
HETATM   23  O   UNK N   1      22.033  12.678  10.994  0.00  0.00    -0.322 OA
HETATM   24  C   UNK N   1      23.028  12.023  11.726  0.00  0.00     0.352 A 
HETATM   25  C   UNK N   1      20.701  14.344   8.619  0.00  0.00     0.297 A 
HETATM   26  O   UNK N   1      19.759  14.237   9.393  0.00  0.00    -0.259 OA
HETATM   27  O   UNK N   1      20.654  15.053   7.482  0.00  0.00    -0.304 OA
ENDBRANCH  11  15
TORSDOF 1
ENDMDL
MODEL 5
REMARK VINA RESULT:      -7.7      3.205      5.021
REMARK  1 active torsions:
REMARK  status: ('A' for Active; 'I' for Inactive)
REMARK    1  A    between atoms: C_17  and  C_18 
ROOT
HETATM    1  C   UNK N   1      29.383  14.265   5.027  0.00  0.00     0.310 C 
HETATM    2  C   UNK N   1      27.487  14.765   1.926  0.00  0.00     0.069 C 
HETATM    3  C   UNK N   1      28.524  14.059   2.824  0.00  0.00     0.277 C 
HETATM    4  C   UNK N   1      25.196  15.594   2.632  0.00  0.00     0.047 A 
HETATM    5  C   UNK N   1      26.403  17.155   4.650  0.00  0.00     0.049 A 
HETATM    6  C   UNK N   1      22.843  17.481   4.573  0.00  0.00     0.352 A 
HETATM    7  C   UNK N   1      26.599  15.594   2.790  0.00  0.00    -0.045 A 
HETATM    8  C   UNK N   1      27.213  16.378   3.791  0.00  0.00    -0.013 A 
HETATM    9  C   UNK N   1      24.453  16.397   3.498  0.00  0.00     0.105 A 
HETATM   10  C   UNK N   1      25.027  17.130   4.459  0.00  0.00     0.105 A 
HETATM   11  C   UNK N   1      28.740  16.338   3.859  0.00  0.00     0.289 C 
HETATM   12  N   UNK N   1      29.271  14.951   3.753  0.00  0.00     0.096 NA
HETATM   13  O   UNK N   1      23.133  16.584   3.536  0.00  0.00    -0.323 OA
HETATM   14  O   UNK N   1      24.087  17.791   5.131  0.00  0.00    -0.323 OA
ENDROOT
BRANCH  11  15
HETATM   15  C   UNK N   1      29.415  17.301   4.912  0.00  0.00     0.204 A 
HETATM   16  C   UNK N   1      30.928  17.325   5.122  0.00  0.00    -0.007 A 
HETATM   17  C   UNK N   1      31.991  17.486   4.203  0.00  0.00     0.014 A 
HETATM   18  C   UNK N   1      31.187  17.285   6.475  0.00  0.00     0.084 A 
HETATM   19  C   UNK N   1      33.316  17.599   4.709  0.00  0.00     0.040 A 
HETATM   20  C   UNK N   1      33.500  17.583   6.108  0.00  0.00     0.106 A 
HETATM   21  C   UNK N   1      32.474  17.432   6.952  0.00  0.00     0.121 A 
HETATM   22  O   UNK N   1      34.622  17.733   6.807  0.00  0.00    -0.323 OA
HETATM   23  O   UNK N   1      32.920  17.488   8.209  0.00  0.00    -0.322 OA
HETATM   24  C   UNK N   1      34.302  17.691   8.173  0.00  0.00     0.352 A 
HETATM   25  C   UNK N   1      29.936  17.144   7.124  0.00  0.00     0.297 A 
HETATM   26  O   UNK N   1      29.756  17.106   8.334  0.00  0.00    -0.259 OA
HETATM   27  O   UNK N   1      28.944  17.121   6.222  0.00  0.00    -0.304 OA
ENDBRANCH  11  15
TORSDOF 1
ENDMDL
MODEL 6
REMARK VINA RESULT:      -7.7      4.186      8.531
REMARK  1 active torsions:
REMARK  status: ('A' for Active; 'I' for Inactive)
REMARK    1  A    between atoms: C_17  and  C_18 
ROOT
HETATM    1  C   UNK N   1      36.410   9.996  11.997  0.00  0.00     0.310 C 
HETATM    2  C   UNK N   1      33.883  11.093  14.421  0.00  0.00     0.069 C 
HETATM    3  C   UNK N   1      34.571  10.066  13.497  0.00  0.00     0.277 C 
HETATM    4  C   UNK N   1      35.034  12.789  15.915  0.00  0.00     0.047 A 
HETATM    5  C   UNK N   1      36.397  13.816  13.666  0.00  0.00     0.049 A 
HETATM    6  C   UNK N   1      37.216  15.526  16.698  0.00  0.00     0.352 A 
HETATM    7  C   UNK N   1      34.813  12.237  14.634  0.00  0.00    -0.045 A 
HETATM    8  C   UNK N   1      35.483  12.749  13.502  0.00  0.00    -0.013 A 
HETATM    9  C   UNK N   1      35.932  13.853  16.009  0.00  0.00     0.105 A 
HETATM   10  C   UNK N   1      36.582  14.332  14.942  0.00  0.00     0.105 A 
HETATM   11  C   UNK N   1      35.150  12.109  12.154  0.00  0.00     0.289 C 
HETATM   12  N   UNK N   1      35.121  10.622  12.231  0.00  0.00     0.096 NA
HETATM   13  O   UNK N   1      36.289  14.550  17.087  0.00  0.00    -0.323 OA
HETATM   14  O   UNK N   1      37.370  15.337  15.321  0.00  0.00    -0.323 OA
ENDROOT
BRANCH  11  15
HETATM   15  C   UNK N   1      35.827  12.762  10.886  0.00  0.00     0.204 A 
HETATM   16  C   UNK N   1      35.301  14.061  10.277  0.00  0.00    -0.007 A 
HETATM   17  C   UNK N   1      35.037  15.321  10.861  0.00  0.00     0.014 A 
HETATM   18  C   UNK N   1      35.206  13.901   8.911  0.00  0.00     0.084 A 
HETATM   19  C   UNK N   1      34.670  16.401  10.011  0.00  0.00     0.040 A 
HETATM   20  C   UNK N   1      34.626  16.170   8.619  0.00  0.00     0.106 A 
HETATM   21  C   UNK N   1      34.884  14.967   8.096  0.00  0.00     0.121 A 
HETATM   22  O   UNK N   1      34.373  17.029   7.635  0.00  0.00    -0.323 OA
HETATM   23  O   UNK N   1      34.806  15.034   6.765  0.00  0.00    -0.322 OA
HETATM   24  C   UNK N   1      34.489  16.349   6.413  0.00  0.00     0.352 A 
HETATM   25  C   UNK N   1      35.550  12.555   8.635  0.00  0.00     0.297 A 
HETATM   26  O   UNK N   1      35.613  12.044   7.525  0.00  0.00    -0.259 OA
HETATM   27  O   UNK N   1      35.868  11.914   9.769  0.00  0.00    -0.304 OA
ENDBRANCH  11  15
TORSDOF 1
ENDMDL
MODEL 7
REMARK VINA RESULT:      -7.7      3.487      8.291
REMARK  1 active torsions:
REMARK  status: ('A' for Active; 'I' for Inactive)
REMARK    1  A    between atoms: C_17  and  C_18 
ROOT
HETATM    1  C   UNK N   1      27.859  17.527   8.602  0.00  0.00     0.310 C 
HETATM    2  C   UNK N   1      31.454  18.261   8.604  0.00  0.00     0.069 C 
HETATM    3  C   UNK N   1      29.996  18.444   9.077  0.00  0.00     0.277 C 
HETATM    4  C   UNK N   1      32.618  16.060   8.123  0.00  0.00     0.047 A 
HETATM    5  C   UNK N   1      30.591  15.414   6.268  0.00  0.00     0.049 A 
HETATM    6  C   UNK N   1      33.099  12.879   6.536  0.00  0.00     0.352 A 
HETATM    7  C   UNK N   1      31.559  16.961   7.883  0.00  0.00    -0.045 A 
HETATM    8  C   UNK N   1      30.544  16.651   6.951  0.00  0.00    -0.013 A 
HETATM    9  C   UNK N   1      32.620  14.865   7.403  0.00  0.00     0.105 A 
HETATM   10  C   UNK N   1      31.653  14.558   6.530  0.00  0.00     0.105 A 
HETATM   11  C   UNK N   1      29.459  17.706   6.736  0.00  0.00     0.289 C 
HETATM   12  N   UNK N   1      28.961  18.271   8.021  0.00  0.00     0.096 NA
HETATM   13  O   UNK N   1      33.511  13.874   7.433  0.00  0.00    -0.323 OA
HETATM   14  O   UNK N   1      31.905  13.365   5.994  0.00  0.00    -0.323 OA
ENDROOT
BRANCH  11  15
HETATM   15  C   UNK N   1      28.393  17.390   5.615  0.00  0.00     0.204 A 
HETATM   16  C   UNK N   1      27.466  18.471   5.062  0.00  0.00    -0.007 A 
HETATM   17  C   UNK N   1      27.745  19.747   4.522  0.00  0.00     0.014 A 
HETATM   18  C   UNK N   1      26.179  17.976   5.031  0.00  0.00     0.084 A 
HETATM   19  C   UNK N   1      26.675  20.496   3.958  0.00  0.00     0.040 A 
HETATM   20  C   UNK N   1      25.391  19.910   3.931  0.00  0.00     0.106 A 
HETATM   21  C   UNK N   1      25.159  18.699   4.448  0.00  0.00     0.121 A 
HETATM   22  O   UNK N   1      24.264  20.385   3.408  0.00  0.00    -0.323 OA
HETATM   23  O   UNK N   1      23.878  18.373   4.260  0.00  0.00    -0.322 OA
HETATM   24  C   UNK N   1      23.256  19.425   3.582  0.00  0.00     0.352 A 
HETATM   25  C   UNK N   1      26.226  16.686   5.615  0.00  0.00     0.297 A 
HETATM   26  O   UNK N   1      25.282  15.919   5.735  0.00  0.00    -0.259 OA
HETATM   27  O   UNK N   1      27.483  16.383   5.971  0.00  0.00    -0.304 OA
ENDBRANCH  11  15
TORSDOF 1
ENDMDL
MODEL 8
REMARK VINA RESULT:      -7.6      4.035      8.222
REMARK  1 active torsions:
REMARK  status: ('A' for Active; 'I' for Inactive)
REMARK    1  A    between atoms: C_17  and  C_18 
ROOT
HETATM    1  C   UNK N   1      37.677  13.440  10.843  0.00  0.00     0.310 C 
HETATM    2  C   UNK N   1      36.580  10.276  12.343  0.00  0.00     0.069 C 
HETATM    3  C   UNK N   1      37.379  11.139  11.343  0.00  0.00     0.277 C 
HETATM    4  C   UNK N   1      36.243  10.751  14.811  0.00  0.00     0.047 A 
HETATM    5  C   UNK N   1      35.156  13.273  14.159  0.00  0.00     0.049 A 
HETATM    6  C   UNK N   1      35.234  12.654  17.679  0.00  0.00     0.352 A 
HETATM    7  C   UNK N   1      36.124  11.148  13.462  0.00  0.00    -0.045 A 
HETATM    8  C   UNK N   1      35.574  12.404  13.125  0.00  0.00    -0.013 A 
HETATM    9  C   UNK N   1      35.794  11.644  15.785  0.00  0.00     0.105 A 
HETATM   10  C   UNK N   1      35.287  12.842  15.473  0.00  0.00     0.105 A 
HETATM   11  C   UNK N   1      35.455  12.728  11.635  0.00  0.00     0.289 C 
HETATM   12  N   UNK N   1      36.691  12.376  10.883  0.00  0.00     0.096 NA
HETATM   13  O   UNK N   1      35.778  11.495  17.110  0.00  0.00    -0.323 OA
HETATM   14  O   UNK N   1      34.945  13.482  16.590  0.00  0.00    -0.323 OA
ENDROOT
BRANCH  11  15
HETATM   15  C   UNK N   1      34.741  14.089  11.273  0.00  0.00     0.204 A 
HETATM   16  C   UNK N   1      34.233  14.377   9.862  0.00  0.00    -0.007 A 
HETATM   17  C   UNK N   1      33.383  13.635   9.010  0.00  0.00     0.014 A 
HETATM   18  C   UNK N   1      34.642  15.642   9.495  0.00  0.00     0.084 A 
HETATM   19  C   UNK N   1      32.971  14.221   7.781  0.00  0.00     0.040 A 
HETATM   20  C   UNK N   1      33.402  15.533   7.489  0.00  0.00     0.106 A 
HETATM   21  C   UNK N   1      34.205  16.211   8.317  0.00  0.00     0.121 A 
HETATM   22  O   UNK N   1      33.101  16.301   6.446  0.00  0.00    -0.323 OA
HETATM   23  O   UNK N   1      34.429  17.429   7.820  0.00  0.00    -0.322 OA
HETATM   24  C   UNK N   1      33.729  17.544   6.615  0.00  0.00     0.352 A 
HETATM   25  C   UNK N   1      35.451  16.129  10.551  0.00  0.00     0.297 A 
HETATM   26  O   UNK N   1      35.971  17.235  10.604  0.00  0.00    -0.259 OA
HETATM   27  O   UNK N   1      35.525  15.223  11.536  0.00  0.00    -0.304 OA
ENDBRANCH  11  15
TORSDOF 1
ENDMDL
MODEL 9
REMARK VINA RESULT:      -7.5      4.479      9.490
REMARK  1 active torsions:
REMARK  status: ('A' for Active; 'I' for Inactive)
REMARK    1  A    between atoms: C_17  and  C_18 
ROOT
HETATM    1  C   UNK N   1      26.693  15.595   7.269  0.00  0.00     0.310 C 
HETATM    2  C   UNK N   1      29.457  17.923   7.904  0.00  0.00     0.069 C 
HETATM    3  C   UNK N   1      28.271  17.025   8.317  0.00  0.00     0.277 C 
HETATM    4  C   UNK N   1      31.247  17.367   6.195  0.00  0.00     0.047 A 
HETATM    5  C   UNK N   1      29.239  16.944   4.257  0.00  0.00     0.049 A 
HETATM    6  C   UNK N   1      32.541  16.445   2.980  0.00  0.00     0.352 A 
HETATM    7  C   UNK N   1      29.886  17.539   6.529  0.00  0.00    -0.045 A 
HETATM    8  C   UNK N   1      28.875  17.338   5.565  0.00  0.00    -0.013 A 
HETATM    9  C   UNK N   1      31.544  16.998   4.883  0.00  0.00     0.105 A 
HETATM   10  C   UNK N   1      30.589  16.790   3.968  0.00  0.00     0.105 A 
HETATM   11  C   UNK N   1      27.434  17.583   6.014  0.00  0.00     0.289 C 
HETATM   12  N   UNK N   1      27.148  16.972   7.342  0.00  0.00     0.096 NA
HETATM   13  O   UNK N   1      32.736  16.799   4.321  0.00  0.00    -0.323 OA
HETATM   14  O   UNK N   1      31.153  16.448   2.811  0.00  0.00    -0.323 OA
ENDROOT
BRANCH  11  15
HETATM   15  C   UNK N   1      26.325  17.457   4.897  0.00  0.00     0.204 A 
HETATM   16  C   UNK N   1      25.663  18.689   4.283  0.00  0.00    -0.007 A 
HETATM   17  C   UNK N   1      26.220  19.843   3.686  0.00  0.00     0.014 A 
HETATM   18  C   UNK N   1      24.299  18.491   4.260  0.00  0.00     0.084 A 
HETATM   19  C   UNK N   1      25.344  20.782   3.074  0.00  0.00     0.040 A 
HETATM   20  C   UNK N   1      23.962  20.496   3.060  0.00  0.00     0.106 A 
HETATM   21  C   UNK N   1      23.466  19.394   3.632  0.00  0.00     0.121 A 
HETATM   22  O   UNK N   1      22.970  21.183   2.502  0.00  0.00    -0.323 OA
HETATM   23  O   UNK N   1      22.145  19.353   3.444  0.00  0.00    -0.322 OA
HETATM   24  C   UNK N   1      21.773  20.482   2.709  0.00  0.00     0.352 A 
HETATM   25  C   UNK N   1      24.057  17.254   4.905  0.00  0.00     0.297 A 
HETATM   26  O   UNK N   1      22.964  16.722   5.050  0.00  0.00    -0.259 OA
HETATM   27  O   UNK N   1      25.214  16.696   5.290  0.00  0.00    -0.304 OA
ENDBRANCH  11  15
TORSDOF 1
ENDMDL
