MODEL 1
REMARK VINA RESULT:      -7.4      0.000      0.000
REMARK  9 active torsions:
REMARK  status: ('A' for Active; 'I' for Inactive)
REMARK    1  A    between atoms: C_1  and  N_16 
REMARK    2  A    between atoms: C_5  and  C_10 
REMARK    3  A    between atoms: C_6  and  C_22 
REMARK    4  A    between atoms: C_10  and  O_12 
REMARK    5  A    between atoms: C_13  and  C_14 
REMARK       I    between atoms: C_13  and  N_16 
REMARK    6  A    between atoms: C_14  and  C_17 
REMARK    7  A    between atoms: C_23  and  C_24 
REMARK    8  A    between atoms: C_25  and  N_33 
REMARK    9  A    between atoms: C_27  and  N_30 
ROOT
HETATM    1  C   UNK N   1      27.862  18.465   6.516  0.00  0.00     0.199 A 
HETATM    2  C   UNK N   1      27.397  17.239   5.841  0.00  0.00     0.227 A 
HETATM    3  O   UNK N   1      26.842  16.276   6.352  0.00  0.00    -0.277 OA
HETATM    4  N   UNK N   1      27.147  17.754   4.652  0.00  0.00    -0.220 NA
HETATM    5  C   UNK N   1      25.920  17.408   3.994  0.00  0.00     0.173 C 
HETATM    6  C   UNK N   1      24.951  18.338   4.001  0.00  0.00     0.046 C 
HETATM    7  C   UNK N   1      25.360  19.768   3.807  0.00  0.00     0.086 C 
HETATM    8  S   UNK N   1      26.394  20.381   5.152  0.00  0.00    -0.145 SA
HETATM    9  C   UNK N   1      27.651  19.058   5.043  0.00  0.00     0.160 A 
ENDROOT
BRANCH   6  10
HETATM   10  C   UNK N   1      24.032  18.136   5.156  0.00  0.00    -0.018 C 
HETATM   11  C   UNK N   1      22.700  18.065   5.156  0.00  0.00     0.010 C 
BRANCH  11  12
HETATM   12  C   UNK N   1      21.927  17.611   4.011  0.00  0.00    -0.003 A 
HETATM   13  C   UNK N   1      21.250  18.544   3.179  0.00  0.00     0.115 A 
HETATM   14  C   UNK N   1      20.560  18.063   2.065  0.00  0.00     0.073 A 
HETATM   15  C   UNK N   1      20.543  16.703   1.750  0.00  0.00     0.105 A 
HETATM   16  C   UNK N   1      21.225  15.794   2.573  0.00  0.00     0.037 A 
HETATM   17  C   UNK N   1      21.914  16.248   3.698  0.00  0.00     0.016 A 
BRANCH  13  18
HETATM   18  N   UNK N   1      21.301  19.963   3.392  0.00  0.00    -0.115 N 
HETATM   19  O   UNK N   1      22.182  20.626   2.939  0.00  0.00    -0.532 OA
HETATM   20  O   UNK N   1      20.287  20.568   3.972  0.00  0.00    -0.532 OA
ENDBRANCH  13  18
BRANCH  15  21
HETATM   21  N   UNK N   1      19.875  16.261   0.576  0.00  0.00    -0.116 N 
HETATM   22  O   UNK N   1      19.888  16.924  -0.413  0.00  0.00    -0.532 OA
HETATM   23  O   UNK N   1      19.192  15.134   0.594  0.00  0.00    -0.532 OA
ENDBRANCH  15  21
ENDBRANCH  11  12
ENDBRANCH   6  10
BRANCH   5  24
HETATM   24  C   UNK N   1      25.547  15.964   3.854  0.00  0.00     0.159 C 
HETATM   25  O   UNK N   1      25.701  15.387   2.789  0.00  0.00    -0.649 OA
BRANCH  24  26
HETATM   26  O   UNK N   1      24.894  15.334   4.849  0.00  0.00    -0.775 OA
HETATM   27  H   UNK N   1      25.308  14.637   5.319  0.00  0.00     0.167 HD
ENDBRANCH  24  26
ENDBRANCH   5  24
BRANCH   1  28
HETATM   28  N   UNK N   1      29.220  18.313   6.954  0.00  0.00    -0.346 N 
HETATM   29  C   UNK N   1      29.458  17.972   8.247  0.00  0.00     0.223 C 
HETATM   30  O   UNK N   1      28.531  17.780   9.023  0.00  0.00    -0.273 OA
HETATM   31  H   UNK N   1      29.965  18.453   6.326  0.00  0.00     0.163 HD
BRANCH  29  32
HETATM   32  C   UNK N   1      30.854  17.812   8.738  0.00  0.00     0.148 C 
BRANCH  32  33
HETATM   33  C   UNK N   1      31.696  17.160   7.701  0.00  0.00    -0.009 A 
HETATM   34  C   UNK N   1      32.856  17.691   7.153  0.00  0.00     0.015 A 
HETATM   35  C   UNK N   1      33.432  16.847   6.163  0.00  0.00     0.008 A 
HETATM   36  C   UNK N   1      32.718  15.659   5.936  0.00  0.00     0.050 A 
HETATM   37  S   UNK N   1      31.419  15.706   6.966  0.00  0.00    -0.106 SA
ENDBRANCH  32  33
ENDBRANCH  29  32
ENDBRANCH   1  28
TORSDOF 9
ENDMDL
MODEL 2
REMARK VINA RESULT:      -7.4      5.748     12.915
REMARK  9 active torsions:
REMARK  status: ('A' for Active; 'I' for Inactive)
REMARK    1  A    between atoms: C_1  and  N_16 
REMARK    2  A    between atoms: C_5  and  C_10 
REMARK    3  A    between atoms: C_6  and  C_22 
REMARK    4  A    between atoms: C_10  and  O_12 
REMARK    5  A    between atoms: C_13  and  C_14 
REMARK       I    between atoms: C_13  and  N_16 
REMARK    6  A    between atoms: C_14  and  C_17 
REMARK    7  A    between atoms: C_23  and  C_24 
REMARK    8  A    between atoms: C_25  and  N_33 
REMARK    9  A    between atoms: C_27  and  N_30 
ROOT
HETATM    1  C   UNK N   1      31.286  16.555   5.617  0.00  0.00     0.199 A 
HETATM    2  C   UNK N   1      31.930  17.383   6.654  0.00  0.00     0.227 A 
HETATM    3  O   UNK N   1      31.631  17.454   7.838  0.00  0.00    -0.277 OA
HETATM    4  N   UNK N   1      33.147  17.424   6.144  0.00  0.00    -0.220 NA
HETATM    5  C   UNK N   1      34.267  17.203   7.012  0.00  0.00     0.173 C 
HETATM    6  C   UNK N   1      34.860  16.002   6.934  0.00  0.00     0.046 C 
HETATM    7  C   UNK N   1      35.021  15.394   5.572  0.00  0.00     0.086 C 
HETATM    8  S   UNK N   1      33.439  15.014   4.793  0.00  0.00    -0.145 SA
HETATM    9  C   UNK N   1      32.739  16.695   4.957  0.00  0.00     0.160 A 
ENDROOT
BRANCH   6  10
HETATM   10  C   UNK N   1      34.288  15.063   7.939  0.00  0.00    -0.018 C 
HETATM   11  C   UNK N   1      34.765  13.884   8.342  0.00  0.00     0.010 C 
BRANCH  11  12
HETATM   12  C   UNK N   1      36.179  13.546   8.315  0.00  0.00    -0.003 A 
HETATM   13  C   UNK N   1      37.045  13.971   9.359  0.00  0.00     0.115 A 
HETATM   14  C   UNK N   1      38.385  13.582   9.311  0.00  0.00     0.073 A 
HETATM   15  C   UNK N   1      38.873  12.776   8.281  0.00  0.00     0.105 A 
HETATM   16  C   UNK N   1      38.006  12.354   7.264  0.00  0.00     0.037 A 
HETATM   17  C   UNK N   1      36.664  12.737   7.282  0.00  0.00     0.016 A 
BRANCH  13  18
HETATM   18  N   UNK N   1      36.591  14.723  10.494  0.00  0.00    -0.115 N 
HETATM   19  O   UNK N   1      36.370  14.195  11.540  0.00  0.00    -0.532 OA
HETATM   20  O   UNK N   1      36.553  16.037  10.429  0.00  0.00    -0.532 OA
ENDBRANCH  13  18
BRANCH  15  21
HETATM   21  N   UNK N   1      40.231  12.356   8.300  0.00  0.00    -0.116 N 
HETATM   22  O   UNK N   1      40.625  11.623   9.152  0.00  0.00    -0.532 OA
HETATM   23  O   UNK N   1      41.075  12.822   7.401  0.00  0.00    -0.532 OA
ENDBRANCH  15  21
ENDBRANCH  11  12
ENDBRANCH   6  10
BRANCH   5  24
HETATM   24  C   UNK N   1      34.375  17.992   8.281  0.00  0.00     0.159 C 
HETATM   25  O   UNK N   1      34.933  19.078   8.287  0.00  0.00    -0.649 OA
BRANCH  24  26
HETATM   26  O   UNK N   1      34.002  17.443   9.453  0.00  0.00    -0.775 OA
HETATM   27  H   UNK N   1      34.523  16.772   9.847  0.00  0.00     0.167 HD
ENDBRANCH  24  26
ENDBRANCH   5  24
BRANCH   1  28
HETATM   28  N   UNK N   1      30.225  17.281   4.982  0.00  0.00    -0.346 N 
HETATM   29  C   UNK N   1      28.951  16.825   5.108  0.00  0.00     0.223 C 
HETATM   30  O   UNK N   1      28.709  15.822   5.767  0.00  0.00    -0.273 OA
HETATM   31  H   UNK N   1      30.416  18.096   4.465  0.00  0.00     0.163 HD
BRANCH  29  32
HETATM   32  C   UNK N   1      27.824  17.549   4.458  0.00  0.00     0.148 C 
BRANCH  32  33
HETATM   33  C   UNK N   1      27.597  18.858   5.125  0.00  0.00    -0.009 A 
HETATM   34  C   UNK N   1      27.226  20.034   4.486  0.00  0.00     0.015 A 
HETATM   35  C   UNK N   1      27.107  21.132   5.385  0.00  0.00     0.008 A 
HETATM   36  C   UNK N   1      27.388  20.812   6.722  0.00  0.00     0.050 A 
HETATM   37  S   UNK N   1      27.766  19.196   6.734  0.00  0.00    -0.106 SA
ENDBRANCH  32  33
ENDBRANCH  29  32
ENDBRANCH   1  28
TORSDOF 9
ENDMDL
MODEL 3
REMARK VINA RESULT:      -7.4      8.741     11.810
REMARK  9 active torsions:
REMARK  status: ('A' for Active; 'I' for Inactive)
REMARK    1  A    between atoms: C_1  and  N_16 
REMARK    2  A    between atoms: C_5  and  C_10 
REMARK    3  A    between atoms: C_6  and  C_22 
REMARK    4  A    between atoms: C_10  and  O_12 
REMARK    5  A    between atoms: C_13  and  C_14 
REMARK       I    between atoms: C_13  and  N_16 
REMARK    6  A    between atoms: C_14  and  C_17 
REMARK    7  A    between atoms: C_23  and  C_24 
REMARK    8  A    between atoms: C_25  and  N_33 
REMARK    9  A    between atoms: C_27  and  N_30 
ROOT
HETATM    1  C   UNK N   1      35.318  13.230  12.449  0.00  0.00     0.199 A 
HETATM    2  C   UNK N   1      35.166  12.416  11.229  0.00  0.00     0.227 A 
HETATM    3  O   UNK N   1      34.229  11.687  10.936  0.00  0.00    -0.277 OA
HETATM    4  N   UNK N   1      35.867  13.170  10.403  0.00  0.00    -0.220 NA
HETATM    5  C   UNK N   1      35.331  13.452   9.102  0.00  0.00     0.173 C 
HETATM    6  C   UNK N   1      34.813  14.677   8.919  0.00  0.00     0.046 C 
HETATM    7  C   UNK N   1      35.534  15.836   9.541  0.00  0.00     0.086 C 
HETATM    8  S   UNK N   1      35.536  15.763  11.343  0.00  0.00    -0.145 SA
HETATM    9  C   UNK N   1      36.249  14.084  11.464  0.00  0.00     0.160 A 
ENDROOT
BRANCH   6  10
HETATM   10  C   UNK N   1      33.348  14.678   9.185  0.00  0.00    -0.018 C 
HETATM   11  C   UNK N   1      32.375  15.267   8.488  0.00  0.00     0.010 C 
BRANCH  11  12
HETATM   12  C   UNK N   1      32.470  15.537   7.062  0.00  0.00    -0.003 A 
HETATM   13  C   UNK N   1      32.982  16.777   6.592  0.00  0.00     0.115 A 
HETATM   14  C   UNK N   1      33.096  16.970   5.215  0.00  0.00     0.073 A 
HETATM   15  C   UNK N   1      32.742  15.970   4.307  0.00  0.00     0.105 A 
HETATM   16  C   UNK N   1      32.250  14.747   4.784  0.00  0.00     0.037 A 
HETATM   17  C   UNK N   1      32.116  14.532   6.156  0.00  0.00     0.016 A 
BRANCH  13  18
HETATM   18  N   UNK N   1      33.450  17.812   7.470  0.00  0.00    -0.115 N 
HETATM   19  O   UNK N   1      34.554  18.253   7.375  0.00  0.00    -0.532 OA
HETATM   20  O   UNK N   1      32.608  18.390   8.299  0.00  0.00    -0.532 OA
ENDBRANCH  13  18
BRANCH  15  21
HETATM   21  N   UNK N   1      32.926  16.187   2.915  0.00  0.00    -0.116 N 
HETATM   22  O   UNK N   1      32.265  16.991   2.335  0.00  0.00    -0.532 OA
HETATM   23  O   UNK N   1      33.797  15.458   2.246  0.00  0.00    -0.532 OA
ENDBRANCH  15  21
ENDBRANCH  11  12
ENDBRANCH   6  10
BRANCH   5  24
HETATM   24  C   UNK N   1      34.852  12.319   8.247  0.00  0.00     0.159 C 
HETATM   25  O   UNK N   1      35.589  11.824   7.409  0.00  0.00    -0.649 OA
BRANCH  24  26
HETATM   26  O   UNK N   1      33.559  11.943   8.283  0.00  0.00    -0.775 OA
HETATM   27  H   UNK N   1      32.930  12.364   7.732  0.00  0.00     0.167 HD
ENDBRANCH  24  26
ENDBRANCH   5  24
BRANCH   1  28
HETATM   28  N   UNK N   1      35.990  12.482  13.472  0.00  0.00    -0.346 N 
HETATM   29  C   UNK N   1      35.264  11.988  14.509  0.00  0.00     0.223 C 
HETATM   30  O   UNK N   1      34.053  12.164  14.562  0.00  0.00    -0.273 OA
HETATM   31  H   UNK N   1      36.961  12.328  13.422  0.00  0.00     0.163 HD
BRANCH  29  32
HETATM   32  C   UNK N   1      35.928  11.213  15.591  0.00  0.00     0.148 C 
BRANCH  32  33
HETATM   33  C   UNK N   1      35.631  11.815  16.917  0.00  0.00    -0.009 A 
HETATM   34  C   UNK N   1      35.419  13.166  17.159  0.00  0.00     0.015 A 
HETATM   35  C   UNK N   1      35.180  13.446  18.534  0.00  0.00     0.008 A 
HETATM   36  C   UNK N   1      35.210  12.314  19.364  0.00  0.00     0.050 A 
HETATM   37  S   UNK N   1      35.525  11.027  18.366  0.00  0.00    -0.106 SA
ENDBRANCH  32  33
ENDBRANCH  29  32
ENDBRANCH   1  28
TORSDOF 9
ENDMDL
MODEL 4
REMARK VINA RESULT:      -7.2      5.714     12.908
REMARK  9 active torsions:
REMARK  status: ('A' for Active; 'I' for Inactive)
REMARK    1  A    between atoms: C_1  and  N_16 
REMARK    2  A    between atoms: C_5  and  C_10 
REMARK    3  A    between atoms: C_6  and  C_22 
REMARK    4  A    between atoms: C_10  and  O_12 
REMARK    5  A    between atoms: C_13  and  C_14 
REMARK       I    between atoms: C_13  and  N_16 
REMARK    6  A    between atoms: C_14  and  C_17 
REMARK    7  A    between atoms: C_23  and  C_24 
REMARK    8  A    between atoms: C_25  and  N_33 
REMARK    9  A    between atoms: C_27  and  N_30 
ROOT
HETATM    1  C   UNK N   1      31.033  16.830   6.251  0.00  0.00     0.199 A 
HETATM    2  C   UNK N   1      31.861  17.594   7.202  0.00  0.00     0.227 A 
HETATM    3  O   UNK N   1      31.738  17.647   8.418  0.00  0.00    -0.277 OA
HETATM    4  N   UNK N   1      32.994  17.588   6.524  0.00  0.00    -0.220 NA
HETATM    5  C   UNK N   1      34.212  17.287   7.218  0.00  0.00     0.173 C 
HETATM    6  C   UNK N   1      34.723  16.059   7.031  0.00  0.00     0.046 C 
HETATM    7  C   UNK N   1      34.655  15.482   5.647  0.00  0.00     0.086 C 
HETATM    8  S   UNK N   1      32.960  15.205   5.096  0.00  0.00    -0.145 SA
HETATM    9  C   UNK N   1      32.383  16.914   5.393  0.00  0.00     0.160 A 
ENDROOT
BRANCH   6  10
HETATM   10  C   UNK N   1      34.249  15.122   8.088  0.00  0.00    -0.018 C 
HETATM   11  C   UNK N   1      34.789  13.967   8.479  0.00  0.00     0.010 C 
BRANCH  11  12
HETATM   12  C   UNK N   1      36.210  13.673   8.363  0.00  0.00    -0.003 A 
HETATM   13  C   UNK N   1      37.126  14.131   9.348  0.00  0.00     0.115 A 
HETATM   14  C   UNK N   1      38.472  13.784   9.217  0.00  0.00     0.073 A 
HETATM   15  C   UNK N   1      38.919  12.988   8.161  0.00  0.00     0.105 A 
HETATM   16  C   UNK N   1      38.002  12.533   7.202  0.00  0.00     0.037 A 
HETATM   17  C   UNK N   1      36.653  12.874   7.304  0.00  0.00     0.016 A 
BRANCH  13  18
HETATM   18  N   UNK N   1      36.721  14.875  10.507  0.00  0.00    -0.115 N 
HETATM   19  O   UNK N   1      36.712  16.068  10.506  0.00  0.00    -0.532 OA
HETATM   20  O   UNK N   1      36.213  14.240  11.541  0.00  0.00    -0.532 OA
ENDBRANCH  13  18
BRANCH  15  21
HETATM   21  N   UNK N   1      40.287  12.611   8.095  0.00  0.00    -0.116 N 
HETATM   22  O   UNK N   1      40.992  13.040   7.236  0.00  0.00    -0.532 OA
HETATM   23  O   UNK N   1      40.771  11.739   8.956  0.00  0.00    -0.532 OA
ENDBRANCH  15  21
ENDBRANCH  11  12
ENDBRANCH   6  10
BRANCH   5  24
HETATM   24  C   UNK N   1      34.542  18.033   8.474  0.00  0.00     0.159 C 
HETATM   25  O   UNK N   1      35.195  19.064   8.427  0.00  0.00    -0.649 OA
BRANCH  24  26
HETATM   26  O   UNK N   1      34.262  17.493   9.676  0.00  0.00    -0.775 OA
HETATM   27  H   UNK N   1      33.970  18.036  10.381  0.00  0.00     0.167 HD
ENDBRANCH  24  26
ENDBRANCH   5  24
BRANCH   1  28
HETATM   28  N   UNK N   1      29.933  17.626   5.790  0.00  0.00    -0.346 N 
HETATM   29  C   UNK N   1      28.684  17.349   6.249  0.00  0.00     0.223 C 
HETATM   30  O   UNK N   1      28.502  16.446   7.057  0.00  0.00    -0.273 OA
HETATM   31  H   UNK N   1      30.081  18.361   5.153  0.00  0.00     0.163 HD
BRANCH  29  32
HETATM   32  C   UNK N   1      27.518  18.150   5.788  0.00  0.00     0.148 C 
BRANCH  32  33
HETATM   33  C   UNK N   1      26.709  17.372   4.813  0.00  0.00    -0.009 A 
HETATM   34  C   UNK N   1      27.138  16.959   3.558  0.00  0.00     0.015 A 
HETATM   35  C   UNK N   1      26.133  16.253   2.840  0.00  0.00     0.008 A 
HETATM   36  C   UNK N   1      24.920  16.119   3.533  0.00  0.00     0.050 A 
HETATM   37  S   UNK N   1      25.145  16.872   4.994  0.00  0.00    -0.106 SA
ENDBRANCH  32  33
ENDBRANCH  29  32
ENDBRANCH   1  28
TORSDOF 9
ENDMDL
MODEL 5
REMARK VINA RESULT:      -6.9      5.377      8.473
REMARK  9 active torsions:
REMARK  status: ('A' for Active; 'I' for Inactive)
REMARK    1  A    between atoms: C_1  and  N_16 
REMARK    2  A    between atoms: C_5  and  C_10 
REMARK    3  A    between atoms: C_6  and  C_22 
REMARK    4  A    between atoms: C_10  and  O_12 
REMARK    5  A    between atoms: C_13  and  C_14 
REMARK       I    between atoms: C_13  and  N_16 
REMARK    6  A    between atoms: C_14  and  C_17 
REMARK    7  A    between atoms: C_23  and  C_24 
REMARK    8  A    between atoms: C_25  and  N_33 
REMARK    9  A    between atoms: C_27  and  N_30 
ROOT
HETATM    1  C   UNK N   1      35.087  14.870   7.567  0.00  0.00     0.199 A 
HETATM    2  C   UNK N   1      34.626  15.295   6.232  0.00  0.00     0.227 A 
HETATM    3  O   UNK N   1      34.034  14.620   5.402  0.00  0.00    -0.277 OA
HETATM    4  N   UNK N   1      34.434  16.575   6.490  0.00  0.00    -0.220 NA
HETATM    5  C   UNK N   1      33.228  17.199   6.028  0.00  0.00     0.173 C 
HETATM    6  C   UNK N   1      32.277  17.426   6.948  0.00  0.00     0.046 C 
HETATM    7  C   UNK N   1      32.721  17.895   8.303  0.00  0.00     0.086 C 
HETATM    8  S   UNK N   1      33.711  16.663   9.172  0.00  0.00    -0.145 SA
HETATM    9  C   UNK N   1      34.946  16.441   7.842  0.00  0.00     0.160 A 
ENDROOT
BRANCH   6  10
HETATM   10  C   UNK N   1      31.309  16.295   7.000  0.00  0.00    -0.018 C 
HETATM   11  C   UNK N   1      29.983  16.341   7.131  0.00  0.00     0.010 C 
BRANCH  11  12
HETATM   12  C   UNK N   1      29.178  17.470   6.690  0.00  0.00    -0.003 A 
HETATM   13  C   UNK N   1      28.530  18.311   7.635  0.00  0.00     0.115 A 
HETATM   14  C   UNK N   1      27.808  19.408   7.164  0.00  0.00     0.073 A 
HETATM   15  C   UNK N   1      27.732  19.699   5.800  0.00  0.00     0.105 A 
HETATM   16  C   UNK N   1      28.384  18.868   4.879  0.00  0.00     0.037 A 
HETATM   17  C   UNK N   1      29.105  17.759   5.323  0.00  0.00     0.016 A 
BRANCH  13  18
HETATM   18  N   UNK N   1      28.643  18.124   9.054  0.00  0.00    -0.115 N 
HETATM   19  O   UNK N   1      29.456  18.716   9.695  0.00  0.00    -0.532 OA
HETATM   20  O   UNK N   1      27.744  17.400   9.686  0.00  0.00    -0.532 OA
ENDBRANCH  13  18
BRANCH  15  21
HETATM   21  N   UNK N   1      27.032  20.857   5.366  0.00  0.00    -0.116 N 
HETATM   22  O   UNK N   1      27.043  21.852   6.022  0.00  0.00    -0.532 OA
HETATM   23  O   UNK N   1      26.322  20.818   4.257  0.00  0.00    -0.532 OA
ENDBRANCH  15  21
ENDBRANCH  11  12
ENDBRANCH   6  10
BRANCH   5  24
HETATM   24  C   UNK N   1      32.834  17.052   4.590  0.00  0.00     0.159 C 
HETATM   25  O   UNK N   1      33.087  17.937   3.787  0.00  0.00    -0.649 OA
BRANCH  24  26
HETATM   26  O   UNK N   1      32.060  16.021   4.202  0.00  0.00    -0.775 OA
HETATM   27  H   UNK N   1      31.134  16.047   4.340  0.00  0.00     0.167 HD
ENDBRANCH  24  26
ENDBRANCH   5  24
BRANCH   1  28
HETATM   28  N   UNK N   1      36.423  14.353   7.496  0.00  0.00    -0.346 N 
HETATM   29  C   UNK N   1      36.606  13.006   7.488  0.00  0.00     0.223 C 
HETATM   30  O   UNK N   1      35.647  12.246   7.522  0.00  0.00    -0.273 OA
HETATM   31  H   UNK N   1      37.194  14.963   7.453  0.00  0.00     0.163 HD
BRANCH  29  32
HETATM   32  C   UNK N   1      37.979  12.433   7.421  0.00  0.00     0.148 C 
BRANCH  32  33
HETATM   33  C   UNK N   1      38.758  13.084   6.336  0.00  0.00    -0.009 A 
HETATM   34  C   UNK N   1      38.572  12.878   4.975  0.00  0.00     0.015 A 
HETATM   35  C   UNK N   1      39.487  13.622   4.178  0.00  0.00     0.008 A 
HETATM   36  C   UNK N   1      40.389  14.403   4.917  0.00  0.00     0.050 A 
HETATM   37  S   UNK N   1      40.014  14.143   6.512  0.00  0.00    -0.106 SA
ENDBRANCH  32  33
ENDBRANCH  29  32
ENDBRANCH   1  28
TORSDOF 9
ENDMDL
MODEL 6
REMARK VINA RESULT:      -6.8      5.452      8.636
REMARK  9 active torsions:
REMARK  status: ('A' for Active; 'I' for Inactive)
REMARK    1  A    between atoms: C_1  and  N_16 
REMARK    2  A    between atoms: C_5  and  C_10 
REMARK    3  A    between atoms: C_6  and  C_22 
REMARK    4  A    between atoms: C_10  and  O_12 
REMARK    5  A    between atoms: C_13  and  C_14 
REMARK       I    between atoms: C_13  and  N_16 
REMARK    6  A    between atoms: C_14  and  C_17 
REMARK    7  A    between atoms: C_23  and  C_24 
REMARK    8  A    between atoms: C_25  and  N_33 
REMARK    9  A    between atoms: C_27  and  N_30 
ROOT
HETATM    1  C   UNK N   1      35.043  14.828   8.159  0.00  0.00     0.199 A 
HETATM    2  C   UNK N   1      34.693  14.792   6.727  0.00  0.00     0.227 A 
HETATM    3  O   UNK N   1      34.128  13.890   6.124  0.00  0.00    -0.277 OA
HETATM    4  N   UNK N   1      34.540  16.089   6.532  0.00  0.00    -0.220 NA
HETATM    5  C   UNK N   1      33.396  16.545   5.795  0.00  0.00     0.173 C 
HETATM    6  C   UNK N   1      32.396  17.085   6.511  0.00  0.00     0.046 C 
HETATM    7  C   UNK N   1      32.767  17.970   7.664  0.00  0.00     0.086 C 
HETATM    8  S   UNK N   1      33.641  17.080   8.967  0.00  0.00    -0.145 SA
HETATM    9  C   UNK N   1      34.952  16.404   7.887  0.00  0.00     0.160 A 
ENDROOT
BRANCH   6  10
HETATM   10  C   UNK N   1      31.378  16.054   6.858  0.00  0.00    -0.018 C 
HETATM   11  C   UNK N   1      30.096  16.228   7.182  0.00  0.00     0.010 C 
BRANCH  11  12
HETATM   12  C   UNK N   1      29.305  17.359   6.723  0.00  0.00    -0.003 A 
HETATM   13  C   UNK N   1      28.685  18.234   7.656  0.00  0.00     0.115 A 
HETATM   14  C   UNK N   1      27.975  19.332   7.167  0.00  0.00     0.073 A 
HETATM   15  C   UNK N   1      27.886  19.592   5.798  0.00  0.00     0.105 A 
HETATM   16  C   UNK N   1      28.513  18.727   4.889  0.00  0.00     0.037 A 
HETATM   17  C   UNK N   1      29.220  17.616   5.351  0.00  0.00     0.016 A 
BRANCH  13  18
HETATM   18  N   UNK N   1      28.812  18.079   9.078  0.00  0.00    -0.115 N 
HETATM   19  O   UNK N   1      29.639  18.676   9.695  0.00  0.00    -0.532 OA
HETATM   20  O   UNK N   1      27.913  17.381   9.737  0.00  0.00    -0.532 OA
ENDBRANCH  13  18
BRANCH  15  21
HETATM   21  N   UNK N   1      27.201  20.751   5.345  0.00  0.00    -0.116 N 
HETATM   22  O   UNK N   1      26.701  20.774   4.263  0.00  0.00    -0.532 OA
HETATM   23  O   UNK N   1      27.162  21.829   6.101  0.00  0.00    -0.532 OA
ENDBRANCH  15  21
ENDBRANCH  11  12
ENDBRANCH   6  10
BRANCH   5  24
HETATM   24  C   UNK N   1      33.095  15.935   4.460  0.00  0.00     0.159 C 
HETATM   25  O   UNK N   1      31.938  15.764   4.107  0.00  0.00    -0.649 OA
BRANCH  24  26
HETATM   26  O   UNK N   1      34.089  15.425   3.709  0.00  0.00    -0.775 OA
HETATM   27  H   UNK N   1      34.122  15.597   2.789  0.00  0.00     0.167 HD
ENDBRANCH  24  26
ENDBRANCH   5  24
BRANCH   1  28
HETATM   28  N   UNK N   1      36.357  14.291   8.369  0.00  0.00    -0.346 N 
HETATM   29  C   UNK N   1      36.967  14.498   9.565  0.00  0.00     0.223 C 
HETATM   30  O   UNK N   1      36.400  15.117  10.456  0.00  0.00    -0.273 OA
HETATM   31  H   UNK N   1      36.807  13.781   7.658  0.00  0.00     0.163 HD
BRANCH  29  32
HETATM   32  C   UNK N   1      38.333  13.962   9.816  0.00  0.00     0.148 C 
BRANCH  32  33
HETATM   33  C   UNK N   1      38.266  12.516  10.155  0.00  0.00    -0.009 A 
HETATM   34  C   UNK N   1      38.804  11.485   9.396  0.00  0.00     0.015 A 
HETATM   35  C   UNK N   1      38.560  10.203   9.962  0.00  0.00     0.008 A 
HETATM   36  C   UNK N   1      37.829  10.234  11.160  0.00  0.00     0.050 A 
HETATM   37  S   UNK N   1      37.523  11.835  11.464  0.00  0.00    -0.106 SA
ENDBRANCH  32  33
ENDBRANCH  29  32
ENDBRANCH   1  28
TORSDOF 9
ENDMDL
MODEL 7
REMARK VINA RESULT:      -6.7      3.590     10.441
REMARK  9 active torsions:
REMARK  status: ('A' for Active; 'I' for Inactive)
REMARK    1  A    between atoms: C_1  and  N_16 
REMARK    2  A    between atoms: C_5  and  C_10 
REMARK    3  A    between atoms: C_6  and  C_22 
REMARK    4  A    between atoms: C_10  and  O_12 
REMARK    5  A    between atoms: C_13  and  C_14 
REMARK       I    between atoms: C_13  and  N_16 
REMARK    6  A    between atoms: C_14  and  C_17 
REMARK    7  A    between atoms: C_23  and  C_24 
REMARK    8  A    between atoms: C_25  and  N_33 
REMARK    9  A    between atoms: C_27  and  N_30 
ROOT
HETATM    1  C   UNK N   1      26.856  18.008   4.159  0.00  0.00     0.199 A 
HETATM    2  C   UNK N   1      27.363  16.640   3.943  0.00  0.00     0.227 A 
HETATM    3  O   UNK N   1      27.970  16.219   2.968  0.00  0.00    -0.277 OA
HETATM    4  N   UNK N   1      27.566  16.306   5.204  0.00  0.00    -0.220 NA
HETATM    5  C   UNK N   1      28.794  15.654   5.556  0.00  0.00     0.173 C 
HETATM    6  C   UNK N   1      29.720  16.407   6.171  0.00  0.00     0.046 C 
HETATM    7  C   UNK N   1      29.244  17.394   7.195  0.00  0.00     0.086 C 
HETATM    8  S   UNK N   1      28.210  18.688   6.481  0.00  0.00    -0.145 SA
HETATM    9  C   UNK N   1      27.012  17.558   5.688  0.00  0.00     0.160 A 
ENDROOT
BRANCH   6  10
HETATM   10  C   UNK N   1      30.670  16.990   5.183  0.00  0.00    -0.018 C 
HETATM   11  C   UNK N   1      31.869  17.532   5.401  0.00  0.00     0.010 C 
BRANCH  11  12
HETATM   12  C   UNK N   1      32.717  17.164   6.524  0.00  0.00    -0.003 A 
HETATM   13  C   UNK N   1      33.508  15.984   6.477  0.00  0.00     0.115 A 
HETATM   14  C   UNK N   1      34.340  15.698   7.560  0.00  0.00     0.073 A 
HETATM   15  C   UNK N   1      34.422  16.552   8.662  0.00  0.00     0.105 A 
HETATM   16  C   UNK N   1      33.645  17.718   8.691  0.00  0.00     0.037 A 
HETATM   17  C   UNK N   1      32.797  18.023   7.625  0.00  0.00     0.016 A 
BRANCH  13  18
HETATM   18  N   UNK N   1      33.542  15.110   5.338  0.00  0.00    -0.115 N 
HETATM   19  O   UNK N   1      34.393  15.206   4.508  0.00  0.00    -0.532 OA
HETATM   20  O   UNK N   1      32.710  14.093   5.276  0.00  0.00    -0.532 OA
ENDBRANCH  13  18
BRANCH  15  21
HETATM   21  N   UNK N   1      35.323  16.252   9.718  0.00  0.00    -0.116 N 
HETATM   22  O   UNK N   1      35.661  17.101  10.484  0.00  0.00    -0.532 OA
HETATM   23  O   UNK N   1      35.832  15.042   9.825  0.00  0.00    -0.532 OA
ENDBRANCH  15  21
ENDBRANCH  11  12
ENDBRANCH   6  10
BRANCH   5  24
HETATM   24  C   UNK N   1      29.229  14.446   4.782  0.00  0.00     0.159 C 
HETATM   25  O   UNK N   1      28.850  13.333   5.112  0.00  0.00    -0.649 OA
BRANCH  24  26
HETATM   26  O   UNK N   1      30.163  14.559   3.819  0.00  0.00    -0.775 OA
HETATM   27  H   UNK N   1      30.311  15.383   3.399  0.00  0.00     0.167 HD
ENDBRANCH  24  26
ENDBRANCH   5  24
BRANCH   1  28
HETATM   28  N   UNK N   1      25.516  18.132   3.664  0.00  0.00    -0.346 N 
HETATM   29  C   UNK N   1      24.820  19.269   3.929  0.00  0.00     0.223 C 
HETATM   30  O   UNK N   1      25.334  20.181   4.564  0.00  0.00    -0.273 OA
HETATM   31  H   UNK N   1      25.108  17.405   3.141  0.00  0.00     0.163 HD
BRANCH  29  32
HETATM   32  C   UNK N   1      23.425  19.429   3.437  0.00  0.00     0.148 C 
BRANCH  32  33
HETATM   33  C   UNK N   1      22.540  18.401   4.044  0.00  0.00    -0.009 A 
HETATM   34  C   UNK N   1      21.601  17.640   3.360  0.00  0.00     0.015 A 
HETATM   35  C   UNK N   1      20.886  16.754   4.214  0.00  0.00     0.008 A 
HETATM   36  C   UNK N   1      21.265  16.827   5.564  0.00  0.00     0.050 A 
HETATM   37  S   UNK N   1      22.461  17.974   5.639  0.00  0.00    -0.106 SA
ENDBRANCH  32  33
ENDBRANCH  29  32
ENDBRANCH   1  28
TORSDOF 9
ENDMDL
MODEL 8
REMARK VINA RESULT:      -6.7      9.481     16.242
REMARK  9 active torsions:
REMARK  status: ('A' for Active; 'I' for Inactive)
REMARK    1  A    between atoms: C_1  and  N_16 
REMARK    2  A    between atoms: C_5  and  C_10 
REMARK    3  A    between atoms: C_6  and  C_22 
REMARK    4  A    between atoms: C_10  and  O_12 
REMARK    5  A    between atoms: C_13  and  C_14 
REMARK       I    between atoms: C_13  and  N_16 
REMARK    6  A    between atoms: C_14  and  C_17 
REMARK    7  A    between atoms: C_23  and  C_24 
REMARK    8  A    between atoms: C_25  and  N_33 
REMARK    9  A    between atoms: C_27  and  N_30 
ROOT
HETATM    1  C   UNK N   1      35.103  14.701   9.596  0.00  0.00     0.199 A 
HETATM    2  C   UNK N   1      35.055  14.850  11.062  0.00  0.00     0.227 A 
HETATM    3  O   UNK N   1      34.124  14.576  11.807  0.00  0.00    -0.277 OA
HETATM    4  N   UNK N   1      36.341  14.692  11.316  0.00  0.00    -0.220 NA
HETATM    5  C   UNK N   1      36.730  13.833  12.398  0.00  0.00     0.173 C 
HETATM    6  C   UNK N   1      37.200  12.621  12.063  0.00  0.00     0.046 C 
HETATM    7  C   UNK N   1      38.099  12.531  10.865  0.00  0.00     0.086 C 
HETATM    8  S   UNK N   1      37.256  12.974   9.333  0.00  0.00    -0.145 SA
HETATM    9  C   UNK N   1      36.672  14.609   9.905  0.00  0.00     0.160 A 
ENDROOT
BRANCH   6  10
HETATM   10  C   UNK N   1      36.105  11.610  12.061  0.00  0.00    -0.018 C 
HETATM   11  C   UNK N   1      36.175  10.308  12.337  0.00  0.00     0.010 C 
BRANCH  11  12
HETATM   12  C   UNK N   1      37.177   9.734  13.223  0.00  0.00    -0.003 A 
HETATM   13  C   UNK N   1      36.991   9.752  14.632  0.00  0.00     0.115 A 
HETATM   14  C   UNK N   1      37.958   9.148  15.438  0.00  0.00     0.073 A 
HETATM   15  C   UNK N   1      39.075   8.518  14.886  0.00  0.00     0.105 A 
HETATM   16  C   UNK N   1      39.240   8.497  13.494  0.00  0.00     0.037 A 
HETATM   17  C   UNK N   1      38.293   9.102  12.667  0.00  0.00     0.016 A 
BRANCH  13  18
HETATM   18  N   UNK N   1      35.823  10.302  15.260  0.00  0.00    -0.115 N 
HETATM   19  O   UNK N   1      34.794   9.700  15.291  0.00  0.00    -0.532 OA
HETATM   20  O   UNK N   1      35.920  11.423  15.941  0.00  0.00    -0.532 OA
ENDBRANCH  13  18
BRANCH  15  21
HETATM   21  N   UNK N   1      40.007   7.867  15.738  0.00  0.00    -0.116 N 
HETATM   22  O   UNK N   1      41.141   8.229  15.784  0.00  0.00    -0.532 OA
HETATM   23  O   UNK N   1      39.631   6.820  16.446  0.00  0.00    -0.532 OA
ENDBRANCH  15  21
ENDBRANCH  11  12
ENDBRANCH   6  10
BRANCH   5  24
HETATM   24  C   UNK N   1      36.111  14.031  13.748  0.00  0.00     0.159 C 
HETATM   25  O   UNK N   1      36.703  14.661  14.611  0.00  0.00    -0.649 OA
BRANCH  24  26
HETATM   26  O   UNK N   1      34.976  13.385  14.074  0.00  0.00    -0.775 OA
HETATM   27  H   UNK N   1      34.143  13.774  13.894  0.00  0.00     0.167 HD
ENDBRANCH  24  26
ENDBRANCH   5  24
BRANCH   1  28
HETATM   28  N   UNK N   1      34.648  15.900   8.954  0.00  0.00    -0.346 N 
HETATM   29  C   UNK N   1      34.340  15.860   7.630  0.00  0.00     0.223 C 
HETATM   30  O   UNK N   1      34.432  14.814   7.000  0.00  0.00    -0.273 OA
HETATM   31  H   UNK N   1      34.560  16.737   9.464  0.00  0.00     0.163 HD
BRANCH  29  32
HETATM   32  C   UNK N   1      33.872  17.086   6.929  0.00  0.00     0.148 C 
BRANCH  32  33
HETATM   33  C   UNK N   1      32.435  17.331   7.219  0.00  0.00    -0.009 A 
HETATM   34  C   UNK N   1      31.934  17.921   8.372  0.00  0.00     0.015 A 
HETATM   35  C   UNK N   1      30.513  17.998   8.376  0.00  0.00     0.008 A 
HETATM   36  C   UNK N   1      29.906  17.465   7.228  0.00  0.00     0.050 A 
HETATM   37  S   UNK N   1      31.146  16.929   6.266  0.00  0.00    -0.106 SA
ENDBRANCH  32  33
ENDBRANCH  29  32
ENDBRANCH   1  28
TORSDOF 9
ENDMDL
MODEL 9
REMARK VINA RESULT:      -6.7      3.377     10.394
REMARK  9 active torsions:
REMARK  status: ('A' for Active; 'I' for Inactive)
REMARK    1  A    between atoms: C_1  and  N_16 
REMARK    2  A    between atoms: C_5  and  C_10 
REMARK    3  A    between atoms: C_6  and  C_22 
REMARK    4  A    between atoms: C_10  and  O_12 
REMARK    5  A    between atoms: C_13  and  C_14 
REMARK       I    between atoms: C_13  and  N_16 
REMARK    6  A    between atoms: C_14  and  C_17 
REMARK    7  A    between atoms: C_23  and  C_24 
REMARK    8  A    between atoms: C_25  and  N_33 
REMARK    9  A    between atoms: C_27  and  N_30 
ROOT
HETATM    1  C   UNK N   1      26.547  15.772   3.447  0.00  0.00     0.199 A 
HETATM    2  C   UNK N   1      26.410  17.093   4.086  0.00  0.00     0.227 A 
HETATM    3  O   UNK N   1      25.709  17.384   5.047  0.00  0.00    -0.277 OA
HETATM    4  N   UNK N   1      27.611  17.568   3.814  0.00  0.00    -0.220 NA
HETATM    5  C   UNK N   1      28.345  18.228   4.855  0.00  0.00     0.173 C 
HETATM    6  C   UNK N   1      29.341  17.531   5.423  0.00  0.00     0.046 C 
HETATM    7  C   UNK N   1      30.193  16.682   4.527  0.00  0.00     0.086 C 
HETATM    8  S   UNK N   1      29.266  15.337   3.762  0.00  0.00    -0.145 SA
HETATM    9  C   UNK N   1      27.964  16.394   3.036  0.00  0.00     0.160 A 
ENDROOT
BRANCH   6  10
HETATM   10  C   UNK N   1      28.861  16.816   6.638  0.00  0.00    -0.018 C 
HETATM   11  C   UNK N   1      29.579  16.252   7.610  0.00  0.00     0.010 C 
BRANCH  11  12
HETATM   12  C   UNK N   1      30.915  16.700   7.975  0.00  0.00    -0.003 A 
HETATM   13  C   UNK N   1      32.018  15.806   7.916  0.00  0.00     0.115 A 
HETATM   14  C   UNK N   1      33.287  16.294   8.231  0.00  0.00     0.073 A 
HETATM   15  C   UNK N   1      33.488  17.632   8.575  0.00  0.00     0.105 A 
HETATM   16  C   UNK N   1      32.393  18.507   8.617  0.00  0.00     0.037 A 
HETATM   17  C   UNK N   1      31.112  18.041   8.317  0.00  0.00     0.016 A 
BRANCH  13  18
HETATM   18  N   UNK N   1      31.898  14.442   7.483  0.00  0.00    -0.115 N 
HETATM   19  O   UNK N   1      31.608  14.172   6.358  0.00  0.00    -0.532 OA
HETATM   20  O   UNK N   1      32.252  13.470   8.296  0.00  0.00    -0.532 OA
ENDBRANCH  13  18
BRANCH  15  21
HETATM   21  N   UNK N   1      34.803  18.102   8.833  0.00  0.00    -0.116 N 
HETATM   22  O   UNK N   1      35.414  17.703   9.776  0.00  0.00    -0.532 OA
HETATM   23  O   UNK N   1      35.336  19.026   8.059  0.00  0.00    -0.532 OA
ENDBRANCH  15  21
ENDBRANCH  11  12
ENDBRANCH   6  10
BRANCH   5  24
HETATM   24  C   UNK N   1      27.684  19.327   5.630  0.00  0.00     0.159 C 
HETATM   25  O   UNK N   1      27.755  20.483   5.244  0.00  0.00    -0.649 OA
BRANCH  24  26
HETATM   26  O   UNK N   1      27.146  19.074   6.838  0.00  0.00    -0.775 OA
HETATM   27  H   UNK N   1      27.606  18.544   7.459  0.00  0.00     0.167 HD
ENDBRANCH  24  26
ENDBRANCH   5  24
BRANCH   1  28
HETATM   28  N   UNK N   1      25.586  15.622   2.392  0.00  0.00    -0.346 N 
HETATM   29  C   UNK N   1      24.757  14.545   2.408  0.00  0.00     0.223 C 
HETATM   30  O   UNK N   1      24.816  13.725   3.315  0.00  0.00    -0.273 OA
HETATM   31  H   UNK N   1      25.528  16.289   1.671  0.00  0.00     0.163 HD
BRANCH  29  32
HETATM   32  C   UNK N   1      23.752  14.354   1.326  0.00  0.00     0.148 C 
BRANCH  32  33
HETATM   33  C   UNK N   1      22.422  14.853   1.762  0.00  0.00    -0.009 A 
HETATM   34  C   UNK N   1      21.244  14.750   1.034  0.00  0.00     0.015 A 
HETATM   35  C   UNK N   1      20.134  15.343   1.698  0.00  0.00     0.008 A 
HETATM   36  C   UNK N   1      20.448  15.912   2.943  0.00  0.00     0.050 A 
HETATM   37  S   UNK N   1      22.071  15.654   3.164  0.00  0.00    -0.106 SA
ENDBRANCH  32  33
ENDBRANCH  29  32
ENDBRANCH   1  28
TORSDOF 9
ENDMDL
