REMARK  0 active torsions:
REMARK  status: ('A' for Active; 'I' for Inactive)
ROOT
HETATM    1  O   UNK N   1       1.998   0.218  -0.000  0.00  0.00    -0.223 OA
HETATM    2  C   UNK N   1       0.875   0.933  -0.000  0.00  0.00     0.304 A 
HETATM    3  C   UNK N   1       1.987  -1.113   0.000  0.00  0.00     0.373 A 
HETATM    4  C   UNK N   1      -0.363   0.282   0.000  0.00  0.00     0.066 A 
HETATM    5  N   UNK N   1       0.803  -1.798   0.000  0.00  0.00    -0.301 N 
HETATM    6  C   UNK N   1      -0.370  -1.124   0.000  0.00  0.00     0.053 A 
HETATM    7  O   UNK N   1       0.937   2.151  -0.000  0.00  0.00    -0.259 OA
HETATM    8  O   UNK N   1       3.037  -1.727  -0.000  0.00  0.00    -0.238 OA
HETATM    9  C   UNK N   1      -1.576   0.984  -0.000  0.00  0.00     0.020 A 
HETATM   10  C   UNK N   1      -1.577  -1.821   0.000  0.00  0.00     0.030 A 
HETATM   11  C   UNK N   1      -2.784   0.281  -0.000  0.00  0.00     0.001 A 
HETATM   12  C   UNK N   1      -2.784  -1.119  -0.000  0.00  0.00     0.002 A 
HETATM   13  H   UNK N   1       0.804  -2.782   0.000  0.00  0.00     0.171 HD
ENDROOT
TORSDOF 0
