REMARK  11 active torsions:
REMARK  status: ('A' for Active; 'I' for Inactive)
REMARK    1  A    between atoms: C_4  and  N_1 
REMARK    2  A    between atoms: C_4  and  C_2 
REMARK       I    between atoms: N_5  and  C_2 
REMARK    3  A    between atoms: C_8  and  N_5 
REMARK    4  A    between atoms: C_19  and  N_10 
REMARK    5  A    between atoms: C_19  and  C_17 
REMARK    6  A    between atoms: C_17  and  O_25 
REMARK    7  A    between atoms: C_20  and  C_19 
REMARK    8  A    between atoms: C_20  and  C_21 
REMARK    9  A    between atoms: C_21  and  C_22 
REMARK   10  A    between atoms: C_22  and  C_23 
REMARK   11  A    between atoms: C_23  and  N_24 
ROOT
HETATM    1  C   UNK N   1       0.081   0.096  -0.000  0.00  0.00     0.241 A 
HETATM    2  C   UNK N   1      -1.225   2.556  -0.000  0.00  0.00     0.093 A 
HETATM    3  C   UNK N   1      -1.132   1.004   0.000  0.00  0.00     0.182 A 
HETATM    4  O   UNK N   1      -0.103  -1.114  -0.000  0.00  0.00    -0.271 OA
HETATM    5  N   UNK N   1       1.341   0.595  -0.000  0.00  0.00    -0.345 N 
HETATM    6  N   UNK N   1       1.253   3.151   0.000  0.00  0.00    -0.354 N 
ATOM      7  HN  UNK N   1       1.644   2.209   0.000  1.00  0.00     0.166 HD
HETATM    8  C   UNK N   1      -0.042   3.491  -0.000  0.00  0.00     0.028 A 
HETATM    9  N   UNK N   1       1.098   5.373  -0.000  0.00  0.00    -0.360 N 
HETATM   10  C   UNK N   1       1.931   4.314   0.000  0.00  0.00     0.180 A 
HETATM   11  C   UNK N   1      -0.147   4.861  -0.000  0.00  0.00     0.114 A 
HETATM   12  H   UNK N   1       1.429   1.575  -0.000  0.00  0.00     0.163 HD
HETATM   13  H   UNK N   1       1.348   6.326  -0.000  0.00  0.00     0.166 HD
ENDROOT
BRANCH   5  14
HETATM   14  C   UNK N   1       2.578  -0.173  -0.000  0.00  0.00     0.182 C 
BRANCH  14  15
HETATM   15  C   UNK N   1       3.856   0.637   0.000  0.00  0.00     0.163 C 
HETATM   16  O   UNK N   1       3.805   1.855   0.000  0.00  0.00    -0.648 OA
BRANCH  15  17
HETATM   17  O   UNK N   1       5.060   0.035   0.000  0.00  0.00    -0.775 OA
HETATM   18  H   UNK N   1       5.116  -0.900   0.000  0.00  0.00     0.167 HD
ENDBRANCH  15  17
ENDBRANCH  14  15
BRANCH  14  19
HETATM   19  C   UNK N   1       2.501  -1.707   0.000  0.00  0.00     0.036 C 
BRANCH  19  20
HETATM   20  C   UNK N   1       3.838  -2.409  -0.000  0.00  0.00     0.004 C 
BRANCH  20  21
HETATM   21  C   UNK N   1       3.615  -3.901   0.000  0.00  0.00     0.019 C 
BRANCH  21  22
HETATM   22  C   UNK N   1       4.958  -4.593  -0.000  0.00  0.00     0.111 C 
BRANCH  22  23
HETATM   23  N   UNK N   1       4.757  -6.029   0.000  0.00  0.00    -0.430 N 
HETATM   24  H   UNK N   1       3.811  -6.412   0.000  0.00  0.00     0.149 HD
HETATM   25  H   UNK N   1       5.561  -6.656   0.000  0.00  0.00     0.149 HD
ENDBRANCH  22  23
ENDBRANCH  21  22
ENDBRANCH  20  21
ENDBRANCH  19  20
ENDBRANCH  14  19
ENDBRANCH   5  14
BRANCH   3  26
HETATM   26  N   UNK N   1      -2.381   0.252   0.000  0.00  0.00    -0.346 N 
HETATM   27  C   UNK N   1      -3.650   0.736   0.000  0.00  0.00     0.235 C 
HETATM   28  O   UNK N   1      -3.869   1.939   0.000  0.00  0.00    -0.272 OA
HETATM   29  H   UNK N   1      -2.294  -0.728   0.000  0.00  0.00     0.163 HD
BRANCH  27  30
HETATM   30  C   UNK N   1      -4.787  -0.244  -0.000  0.00  0.00     0.214 C 
BRANCH  30  31
HETATM   31  N   UNK N   1      -6.076   0.427  -0.000  0.00  0.00    -0.422 N 
HETATM   32  H   UNK N   1      -6.122   1.446  -0.000  0.00  0.00     0.150 HD
HETATM   33  H   UNK N   1      -6.936  -0.121  -0.000  0.00  0.00     0.150 HD
ENDBRANCH  30  31
ENDBRANCH  27  30
ENDBRANCH   3  26
TORSDOF 11
