REMARK  1 active torsions:
REMARK  status: ('A' for Active; 'I' for Inactive)
REMARK    1  A    between atoms: N_16  and  C_5 
ROOT
HETATM    1  N   UNK N   1       0.069  -1.815   0.000  0.00  0.00    -0.355 N 
ATOM      2  HN  UNK N   1       0.021  -2.834   0.000  1.00  0.00     0.166 HD
HETATM    3  C   UNK N   1       1.284  -1.210   0.000  0.00  0.00     0.045 A 
HETATM    4  C   UNK N   1      -1.081  -1.099  -0.000  0.00  0.00     0.045 A 
HETATM    5  C   UNK N   1       0.201   0.970   0.000  0.00  0.00     0.051 A 
HETATM    6  C   UNK N   1      -1.044   0.316   0.000  0.00  0.00     0.018 A 
HETATM    7  C   UNK N   1       1.377   0.202   0.000  0.00  0.00     0.018 A 
HETATM    8  C   UNK N   1       2.439  -1.991   0.000  0.00  0.00     0.030 A 
HETATM    9  C   UNK N   1      -2.306  -1.767  -0.000  0.00  0.00     0.030 A 
HETATM   10  C   UNK N   1      -2.246   1.035   0.000  0.00  0.00     0.016 A 
HETATM   11  C   UNK N   1       2.643   0.805  -0.000  0.00  0.00     0.016 A 
HETATM   12  C   UNK N   1       3.694  -1.380  -0.000  0.00  0.00     0.002 A 
HETATM   13  C   UNK N   1      -3.469   0.356   0.000  0.00  0.00     0.001 A 
HETATM   14  C   UNK N   1      -3.498  -1.042  -0.000  0.00  0.00     0.002 A 
HETATM   15  C   UNK N   1       3.796   0.014  -0.000  0.00  0.00     0.001 A 
ENDROOT
BRANCH   5  16
HETATM   16  N   UNK N   1       0.267   2.384   0.000  0.00  0.00    -0.398 N 
HETATM   17  H   UNK N   1       1.142   2.836   0.000  0.00  0.00     0.156 HD
HETATM   18  H   UNK N   1      -0.561   2.916   0.000  0.00  0.00     0.156 HD
ENDBRANCH   5  16
TORSDOF 1
