MODEL 1
REMARK VINA RESULT:      -8.7      0.000      0.000
REMARK  8 active torsions:
REMARK  status: ('A' for Active; 'I' for Inactive)
REMARK    1  A    between atoms: C_3  and  O_41 
REMARK    2  A    between atoms: C_4  and  O_39 
REMARK    3  A    between atoms: C_6  and  O_8 
REMARK    4  A    between atoms: C_9  and  O_8 
REMARK    5  A    between atoms: C_22  and  O_36 
REMARK    6  A    between atoms: C_24  and  O_32 
REMARK    7  A    between atoms: C_25  and  C_26 
REMARK    8  A    between atoms: O_32  and  C_33 
ROOT
HETATM    1  C   UNK N   1      24.827  15.666   3.985  0.00  0.00     0.125 C 
HETATM    2  C   UNK N   1      25.748  14.856   4.903  0.00  0.00     0.033 C 
HETATM    3  C   UNK N   1      26.623  15.769   5.762  0.00  0.00     0.012 C 
HETATM    4  C   UNK N   1      27.294  16.919   4.976  0.00  0.00    -0.036 C 
HETATM    5  C   UNK N   1      27.046  16.846   3.440  0.00  0.00    -0.004 C 
HETATM    6  C   UNK N   1      25.544  16.742   3.128  0.00  0.00     0.037 C 
HETATM    7  C   UNK N   1      27.803  15.696   2.748  0.00  0.00     0.006 C 
HETATM    8  C   UNK N   1      29.286  15.673   3.130  0.00  0.00     0.008 C 
HETATM    9  C   UNK N   1      29.394  15.564   4.649  0.00  0.00     0.026 C 
HETATM   10  C   UNK N   1      28.793  16.870   5.220  0.00  0.00     0.001 C 
HETATM   11  C   UNK N   1      29.286  17.206   6.638  0.00  0.00     0.007 C 
HETATM   12  C   UNK N   1      30.822  17.411   6.639  0.00  0.00     0.013 C 
HETATM   13  C   UNK N   1      31.526  16.671   5.470  0.00  0.00    -0.003 C 
HETATM   14  C   UNK N   1      30.807  15.333   5.217  0.00  0.00     0.072 C 
HETATM   15  C   UNK N   1      31.772  14.534   4.372  0.00  0.00     0.072 C 
HETATM   16  C   UNK N   1      33.115  14.862   5.036  0.00  0.00     0.143 C 
HETATM   17  C   UNK N   1      32.993  16.277   5.636  0.00  0.00     0.058 C 
HETATM   18  C   UNK N   1      31.501  17.600   4.256  0.00  0.00     0.019 C 
HETATM   19  C   UNK N   1      26.777  18.259   5.484  0.00  0.00     0.016 C 
ENDROOT
BRANCH   1  20
HETATM   20  O   UNK N   1      23.641  16.095   4.635  0.00  0.00    -0.356 OA
BRANCH  20  21
HETATM   21  C   UNK N   1      22.904  16.925   3.771  0.00  0.00     0.263 C 
HETATM   22  C   UNK N   1      22.416  18.222   4.437  0.00  0.00     0.095 C 
HETATM   23  C   UNK N   1      21.220  18.699   3.639  0.00  0.00     0.156 C 
HETATM   24  C   UNK N   1      20.092  17.680   3.784  0.00  0.00     0.175 C 
HETATM   25  C   UNK N   1      20.643  16.249   3.620  0.00  0.00     0.151 C 
HETATM   26  C   UNK N   1      20.561  15.435   4.901  0.00  0.00     0.042 C 
HETATM   27  O   UNK N   1      21.933  16.192   3.027  0.00  0.00    -0.354 OA
BRANCH  23  28
HETATM   28  O   UNK N   1      20.849  20.044   3.861  0.00  0.00    -0.388 OA
HETATM   29  C   UNK N   1      21.087  20.788   2.697  0.00  0.00     0.202 C 
ENDBRANCH  23  28
BRANCH  24  30
HETATM   30  O   UNK N   1      19.103  17.929   2.834  0.00  0.00    -0.390 OA
HETATM   31  H   UNK N   1      18.143  17.951   2.696  0.00  0.00     0.210 HD
ENDBRANCH  24  30
ENDBRANCH  20  21
ENDBRANCH   1  20
BRANCH  14  32
HETATM   32  O   UNK N   1      30.662  14.641   6.430  0.00  0.00    -0.389 OA
HETATM   33  H   UNK N   1      30.034  14.090   6.923  0.00  0.00     0.210 HD
ENDBRANCH  14  32
BRANCH  17  34
HETATM   34  C   UNK N   1      33.563  16.475   7.016  0.00  0.00    -0.043 A 
HETATM   35  C   UNK N   1      34.113  17.591   7.472  0.00  0.00     0.087 A 
HETATM   36  C   UNK N   1      34.649  17.236   8.760  0.00  0.00     0.283 A 
HETATM   37  O   UNK N   1      35.305  17.969   9.474  0.00  0.00    -0.260 OA
HETATM   38  O   UNK N   1      34.407  15.946   9.043  0.00  0.00    -0.314 OA
HETATM   39  C   UNK N   1      33.716  15.344   8.008  0.00  0.00     0.214 A 
ENDBRANCH  17  34
BRANCH  16  40
HETATM   40  O   UNK N   1      34.188  14.737   4.165  0.00  0.00    -0.316 OA
BRANCH  40  41
HETATM   41  C   UNK N   1      34.129  14.725   2.800  0.00  0.00     0.255 C 
HETATM   42  O   UNK N   1      33.831  15.750   2.212  0.00  0.00    -0.266 OA
HETATM   43  C   UNK N   1      34.457  13.511   1.991  0.00  0.00     0.126 C 
ENDBRANCH  40  41
ENDBRANCH  16  40
TORSDOF 8
ENDMDL
MODEL 2
REMARK VINA RESULT:      -8.5      1.948      2.794
REMARK  8 active torsions:
REMARK  status: ('A' for Active; 'I' for Inactive)
REMARK    1  A    between atoms: C_3  and  O_41 
REMARK    2  A    between atoms: C_4  and  O_39 
REMARK    3  A    between atoms: C_6  and  O_8 
REMARK    4  A    between atoms: C_9  and  O_8 
REMARK    5  A    between atoms: C_22  and  O_36 
REMARK    6  A    between atoms: C_24  and  O_32 
REMARK    7  A    between atoms: C_25  and  C_26 
REMARK    8  A    between atoms: O_32  and  C_33 
ROOT
HETATM    1  C   UNK N   1      26.753  16.908   4.663  0.00  0.00     0.125 C 
HETATM    2  C   UNK N   1      27.448  15.744   5.377  0.00  0.00     0.033 C 
HETATM    3  C   UNK N   1      28.166  16.215   6.642  0.00  0.00     0.012 C 
HETATM    4  C   UNK N   1      29.017  17.490   6.445  0.00  0.00    -0.036 C 
HETATM    5  C   UNK N   1      29.074  17.973   4.965  0.00  0.00    -0.004 C 
HETATM    6  C   UNK N   1      27.660  18.134   4.383  0.00  0.00     0.037 C 
HETATM    7  C   UNK N   1      29.914  17.059   4.051  0.00  0.00     0.006 C 
HETATM    8  C   UNK N   1      31.290  16.757   4.650  0.00  0.00     0.008 C 
HETATM    9  C   UNK N   1      31.093  16.123   6.025  0.00  0.00     0.026 C 
HETATM   10  C   UNK N   1      30.436  17.209   6.910  0.00  0.00     0.001 C 
HETATM   11  C   UNK N   1      30.652  16.987   8.417  0.00  0.00     0.007 C 
HETATM   12  C   UNK N   1      32.163  17.023   8.756  0.00  0.00     0.013 C 
HETATM   13  C   UNK N   1      33.058  16.662   7.540  0.00  0.00    -0.003 C 
HETATM   14  C   UNK N   1      32.358  15.571   6.709  0.00  0.00     0.072 C 
HETATM   15  C   UNK N   1      33.444  15.017   5.815  0.00  0.00     0.072 C 
HETATM   16  C   UNK N   1      34.640  14.960   6.773  0.00  0.00     0.143 C 
HETATM   17  C   UNK N   1      34.450  16.088   7.807  0.00  0.00     0.058 C 
HETATM   18  C   UNK N   1      33.304  17.948   6.752  0.00  0.00     0.019 C 
HETATM   19  C   UNK N   1      28.455  18.619   7.299  0.00  0.00     0.016 C 
ENDROOT
BRANCH   1  20
HETATM   20  O   UNK N   1      25.478  17.206   5.208  0.00  0.00    -0.356 OA
BRANCH  20  21
HETATM   21  C   UNK N   1      24.623  17.659   4.187  0.00  0.00     0.263 C 
HETATM   22  C   UNK N   1      23.596  18.698   4.665  0.00  0.00     0.095 C 
HETATM   23  C   UNK N   1      22.442  18.653   3.684  0.00  0.00     0.156 C 
HETATM   24  C   UNK N   1      21.763  17.289   3.783  0.00  0.00     0.175 C 
HETATM   25  C   UNK N   1      22.824  16.170   3.821  0.00  0.00     0.151 C 
HETATM   26  C   UNK N   1      22.858  15.436   5.152  0.00  0.00     0.042 C 
HETATM   27  O   UNK N   1      24.116  16.584   3.400  0.00  0.00    -0.354 OA
BRANCH  23  28
HETATM   28  O   UNK N   1      21.570  19.764   3.734  0.00  0.00    -0.388 OA
HETATM   29  C   UNK N   1      21.726  20.527   2.568  0.00  0.00     0.202 C 
ENDBRANCH  23  28
BRANCH  24  30
HETATM   30  O   UNK N   1      20.906  17.105   2.699  0.00  0.00    -0.390 OA
HETATM   31  H   UNK N   1      20.557  17.532   1.901  0.00  0.00     0.210 HD
ENDBRANCH  24  30
ENDBRANCH  20  21
ENDBRANCH   1  20
BRANCH  14  32
HETATM   32  O   UNK N   1      31.954  14.524   7.551  0.00  0.00    -0.389 OA
HETATM   33  H   UNK N   1      31.257  13.858   7.660  0.00  0.00     0.210 HD
ENDBRANCH  14  32
BRANCH  17  34
HETATM   34  C   UNK N   1      34.743  15.743   9.242  0.00  0.00    -0.043 A 
HETATM   35  C   UNK N   1      34.444  14.597   9.838  0.00  0.00     0.087 A 
HETATM   36  C   UNK N   1      34.767  14.810  11.225  0.00  0.00     0.283 A 
HETATM   37  O   UNK N   1      34.563  14.016  12.123  0.00  0.00    -0.260 OA
HETATM   38  O   UNK N   1      35.247  16.048  11.423  0.00  0.00    -0.314 OA
HETATM   39  C   UNK N   1      35.286  16.749  10.232  0.00  0.00     0.214 A 
ENDBRANCH  17  34
BRANCH  16  40
HETATM   40  O   UNK N   1      35.859  15.033   6.114  0.00  0.00    -0.316 OA
BRANCH  40  41
HETATM   41  C   UNK N   1      36.949  14.240   6.333  0.00  0.00     0.255 C 
HETATM   42  O   UNK N   1      37.010  13.589   7.361  0.00  0.00    -0.266 OA
HETATM   43  C   UNK N   1      38.059  14.104   5.340  0.00  0.00     0.126 C 
ENDBRANCH  40  41
ENDBRANCH  16  40
TORSDOF 8
ENDMDL
MODEL 3
REMARK VINA RESULT:      -8.5      8.077     14.487
REMARK  8 active torsions:
REMARK  status: ('A' for Active; 'I' for Inactive)
REMARK    1  A    between atoms: C_3  and  O_41 
REMARK    2  A    between atoms: C_4  and  O_39 
REMARK    3  A    between atoms: C_6  and  O_8 
REMARK    4  A    between atoms: C_9  and  O_8 
REMARK    5  A    between atoms: C_22  and  O_36 
REMARK    6  A    between atoms: C_24  and  O_32 
REMARK    7  A    between atoms: C_25  and  C_26 
REMARK    8  A    between atoms: O_32  and  C_33 
ROOT
HETATM    1  C   UNK N   1      35.326  10.577  15.970  0.00  0.00     0.125 C 
HETATM    2  C   UNK N   1      34.236  11.055  15.006  0.00  0.00     0.033 C 
HETATM    3  C   UNK N   1      34.619  10.784  13.551  0.00  0.00     0.012 C 
HETATM    4  C   UNK N   1      36.065  11.197  13.193  0.00  0.00    -0.036 C 
HETATM    5  C   UNK N   1      36.805  11.925  14.355  0.00  0.00    -0.004 C 
HETATM    6  C   UNK N   1      36.752  11.095  15.648  0.00  0.00     0.037 C 
HETATM    7  C   UNK N   1      36.278  13.348  14.626  0.00  0.00     0.006 C 
HETATM    8  C   UNK N   1      36.185  14.179  13.344  0.00  0.00     0.008 C 
HETATM    9  C   UNK N   1      35.287  13.443  12.351  0.00  0.00     0.026 C 
HETATM   10  C   UNK N   1      36.025  12.131  11.995  0.00  0.00     0.001 C 
HETATM   11  C   UNK N   1      35.590  11.527  10.648  0.00  0.00     0.007 C 
HETATM   12  C   UNK N   1      35.897  12.512   9.493  0.00  0.00     0.013 C 
HETATM   13  C   UNK N   1      35.966  13.989   9.967  0.00  0.00    -0.003 C 
HETATM   14  C   UNK N   1      34.914  14.211  11.069  0.00  0.00     0.072 C 
HETATM   15  C   UNK N   1      34.782  15.713  11.175  0.00  0.00     0.072 C 
HETATM   16  C   UNK N   1      34.821  16.134   9.700  0.00  0.00     0.143 C 
HETATM   17  C   UNK N   1      35.675  15.093   8.950  0.00  0.00     0.058 C 
HETATM   18  C   UNK N   1      37.394  14.254  10.441  0.00  0.00     0.019 C 
HETATM   19  C   UNK N   1      36.871   9.964  12.806  0.00  0.00     0.016 C 
ENDROOT
BRANCH   1  20
HETATM   20  O   UNK N   1      35.233   9.193  16.264  0.00  0.00    -0.356 OA
BRANCH  20  21
HETATM   21  C   UNK N   1      34.708   9.020  17.558  0.00  0.00     0.263 C 
HETATM   22  C   UNK N   1      34.910  10.242  18.468  0.00  0.00     0.095 C 
HETATM   23  C   UNK N   1      34.846   9.739  19.895  0.00  0.00     0.156 C 
HETATM   24  C   UNK N   1      36.031   8.807  20.143  0.00  0.00     0.175 C 
HETATM   25  C   UNK N   1      36.199   7.834  18.958  0.00  0.00     0.151 C 
HETATM   26  C   UNK N   1      37.483   8.071  18.180  0.00  0.00     0.042 C 
HETATM   27  O   UNK N   1      35.062   7.754  18.111  0.00  0.00    -0.354 OA
BRANCH  23  28
HETATM   28  O   UNK N   1      34.650  10.737  20.875  0.00  0.00    -0.388 OA
HETATM   29  C   UNK N   1      33.444  10.494  21.549  0.00  0.00     0.202 C 
ENDBRANCH  23  28
BRANCH  24  30
HETATM   30  O   UNK N   1      35.838   8.098  21.327  0.00  0.00    -0.390 OA
HETATM   31  H   UNK N   1      36.145   8.013  22.244  0.00  0.00     0.210 HD
ENDBRANCH  24  30
ENDBRANCH  20  21
ENDBRANCH   1  20
BRANCH  14  32
HETATM   32  O   UNK N   1      33.670  13.725  10.638  0.00  0.00    -0.389 OA
HETATM   33  H   UNK N   1      32.718  13.821  10.796  0.00  0.00     0.210 HD
ENDBRANCH  14  32
BRANCH  17  34
HETATM   34  C   UNK N   1      35.152  14.626   7.618  0.00  0.00    -0.043 A 
HETATM   35  C   UNK N   1      35.854  14.547   6.497  0.00  0.00     0.087 A 
HETATM   36  C   UNK N   1      34.887  14.214   5.483  0.00  0.00     0.283 A 
HETATM   37  O   UNK N   1      35.120  14.127   4.292  0.00  0.00    -0.260 OA
HETATM   38  O   UNK N   1      33.658  14.097   6.009  0.00  0.00    -0.314 OA
HETATM   39  C   UNK N   1      33.689  14.334   7.371  0.00  0.00     0.214 A 
ENDBRANCH  17  34
BRANCH  16  40
HETATM   40  O   UNK N   1      35.277  17.433   9.526  0.00  0.00    -0.316 OA
BRANCH  40  41
HETATM   41  C   UNK N   1      34.822  18.338   8.609  0.00  0.00     0.255 C 
HETATM   42  O   UNK N   1      35.343  19.438   8.555  0.00  0.00    -0.266 OA
HETATM   43  C   UNK N   1      33.732  18.019   7.635  0.00  0.00     0.126 C 
ENDBRANCH  40  41
ENDBRANCH  16  40
TORSDOF 8
ENDMDL
MODEL 4
REMARK VINA RESULT:      -8.4      1.975     11.067
REMARK  8 active torsions:
REMARK  status: ('A' for Active; 'I' for Inactive)
REMARK    1  A    between atoms: C_3  and  O_41 
REMARK    2  A    between atoms: C_4  and  O_39 
REMARK    3  A    between atoms: C_6  and  O_8 
REMARK    4  A    between atoms: C_9  and  O_8 
REMARK    5  A    between atoms: C_22  and  O_36 
REMARK    6  A    between atoms: C_24  and  O_32 
REMARK    7  A    between atoms: C_25  and  C_26 
REMARK    8  A    between atoms: O_32  and  C_33 
ROOT
HETATM    1  C   UNK N   1      29.689  16.618   5.860  0.00  0.00     0.125 C 
HETATM    2  C   UNK N   1      28.413  17.031   6.601  0.00  0.00     0.033 C 
HETATM    3  C   UNK N   1      27.330  15.959   6.488  0.00  0.00     0.012 C 
HETATM    4  C   UNK N   1      27.132  15.412   5.055  0.00  0.00    -0.036 C 
HETATM    5  C   UNK N   1      27.990  16.154   3.987  0.00  0.00    -0.004 C 
HETATM    6  C   UNK N   1      29.474  16.177   4.390  0.00  0.00     0.037 C 
HETATM    7  C   UNK N   1      27.506  17.588   3.696  0.00  0.00     0.006 C 
HETATM    8  C   UNK N   1      26.002  17.642   3.418  0.00  0.00     0.008 C 
HETATM    9  C   UNK N   1      25.265  17.048   4.616  0.00  0.00     0.026 C 
HETATM   10  C   UNK N   1      25.668  15.556   4.674  0.00  0.00     0.001 C 
HETATM   11  C   UNK N   1      24.657  14.674   5.427  0.00  0.00     0.007 C 
HETATM   12  C   UNK N   1      23.279  14.712   4.719  0.00  0.00     0.013 C 
HETATM   13  C   UNK N   1      23.072  16.001   3.879  0.00  0.00    -0.003 C 
HETATM   14  C   UNK N   1      23.731  17.186   4.609  0.00  0.00     0.072 C 
HETATM   15  C   UNK N   1      23.148  18.414   3.948  0.00  0.00     0.072 C 
HETATM   16  C   UNK N   1      21.678  18.009   3.777  0.00  0.00     0.143 C 
HETATM   17  C   UNK N   1      21.643  16.477   3.616  0.00  0.00     0.058 C 
HETATM   18  C   UNK N   1      23.667  15.748   2.494  0.00  0.00     0.019 C 
HETATM   19  C   UNK N   1      27.489  13.932   5.015  0.00  0.00     0.016 C 
ENDROOT
BRANCH   1  20
HETATM   20  O   UNK N   1      30.526  15.774   6.634  0.00  0.00    -0.356 OA
BRANCH  20  21
HETATM   21  C   UNK N   1      31.874  16.093   6.389  0.00  0.00     0.263 C 
HETATM   22  C   UNK N   1      32.860  15.281   7.243  0.00  0.00     0.095 C 
HETATM   23  C   UNK N   1      34.142  16.085   7.313  0.00  0.00     0.156 C 
HETATM   24  C   UNK N   1      33.870  17.382   8.073  0.00  0.00     0.175 C 
HETATM   25  C   UNK N   1      32.552  18.017   7.584  0.00  0.00     0.151 C 
HETATM   26  C   UNK N   1      31.468  18.021   8.649  0.00  0.00     0.042 C 
HETATM   27  O   UNK N   1      32.088  17.502   6.344  0.00  0.00    -0.354 OA
BRANCH  23  28
HETATM   28  O   UNK N   1      35.279  15.364   7.742  0.00  0.00    -0.388 OA
HETATM   29  C   UNK N   1      35.318  14.127   7.083  0.00  0.00     0.202 C 
ENDBRANCH  23  28
BRANCH  24  30
HETATM   30  O   UNK N   1      34.930  18.268   7.893  0.00  0.00    -0.390 OA
HETATM   31  H   UNK N   1      35.728  18.433   7.367  0.00  0.00     0.210 HD
ENDBRANCH  24  30
ENDBRANCH  20  21
ENDBRANCH   1  20
BRANCH  14  32
HETATM   32  O   UNK N   1      23.308  17.208   5.947  0.00  0.00    -0.389 OA
HETATM   33  H   UNK N   1      23.000  17.814   6.640  0.00  0.00     0.210 HD
ENDBRANCH  14  32
BRANCH  17  34
HETATM   34  C   UNK N   1      20.568  15.744   4.374  0.00  0.00    -0.043 A 
HETATM   35  C   UNK N   1      19.826  14.753   3.900  0.00  0.00     0.087 A 
HETATM   36  C   UNK N   1      18.847  14.506   4.926  0.00  0.00     0.283 A 
HETATM   37  O   UNK N   1      17.926  13.716   4.841  0.00  0.00    -0.260 OA
HETATM   38  O   UNK N   1      19.025  15.330   5.970  0.00  0.00    -0.314 OA
HETATM   39  C   UNK N   1      20.096  16.174   5.745  0.00  0.00     0.214 A 
ENDBRANCH  17  34
BRANCH  16  40
HETATM   40  O   UNK N   1      21.058  18.675   2.729  0.00  0.00    -0.316 OA
BRANCH  40  41
HETATM   41  C   UNK N   1      20.663  19.983   2.719  0.00  0.00     0.255 C 
HETATM   42  O   UNK N   1      20.311  20.503   3.763  0.00  0.00    -0.266 OA
HETATM   43  C   UNK N   1      20.685  20.821   1.480  0.00  0.00     0.126 C 
ENDBRANCH  40  41
ENDBRANCH  16  40
TORSDOF 8
ENDMDL
MODEL 5
REMARK VINA RESULT:      -8.4      1.344      3.639
REMARK  8 active torsions:
REMARK  status: ('A' for Active; 'I' for Inactive)
REMARK    1  A    between atoms: C_3  and  O_41 
REMARK    2  A    between atoms: C_4  and  O_39 
REMARK    3  A    between atoms: C_6  and  O_8 
REMARK    4  A    between atoms: C_9  and  O_8 
REMARK    5  A    between atoms: C_22  and  O_36 
REMARK    6  A    between atoms: C_24  and  O_32 
REMARK    7  A    between atoms: C_25  and  C_26 
REMARK    8  A    between atoms: O_32  and  C_33 
ROOT
HETATM    1  C   UNK N   1      24.622  16.656   4.493  0.00  0.00     0.125 C 
HETATM    2  C   UNK N   1      25.730  16.982   3.486  0.00  0.00     0.033 C 
HETATM    3  C   UNK N   1      26.702  15.814   3.329  0.00  0.00     0.012 C 
HETATM    4  C   UNK N   1      27.167  15.196   4.667  0.00  0.00    -0.036 C 
HETATM    5  C   UNK N   1      26.650  15.970   5.917  0.00  0.00    -0.004 C 
HETATM    6  C   UNK N   1      25.123  16.140   5.867  0.00  0.00     0.037 C 
HETATM    7  C   UNK N   1      27.322  17.342   6.114  0.00  0.00     0.006 C 
HETATM    8  C   UNK N   1      28.849  17.251   6.040  0.00  0.00     0.008 C 
HETATM    9  C   UNK N   1      29.234  16.640   4.694  0.00  0.00     0.026 C 
HETATM   10  C   UNK N   1      28.687  15.194   4.704  0.00  0.00     0.001 C 
HETATM   11  C   UNK N   1      29.412  14.255   3.724  0.00  0.00     0.007 C 
HETATM   12  C   UNK N   1      30.911  14.143   4.097  0.00  0.00     0.013 C 
HETATM   13  C   UNK N   1      31.426  15.374   4.889  0.00  0.00    -0.003 C 
HETATM   14  C   UNK N   1      30.735  16.641   4.350  0.00  0.00     0.072 C 
HETATM   15  C   UNK N   1      31.568  17.785   4.882  0.00  0.00     0.072 C 
HETATM   16  C   UNK N   1      32.992  17.245   4.704  0.00  0.00     0.143 C 
HETATM   17  C   UNK N   1      32.916  15.710   4.825  0.00  0.00     0.058 C 
HETATM   18  C   UNK N   1      31.140  15.121   6.369  0.00  0.00     0.019 C 
HETATM   19  C   UNK N   1      26.690  13.753   4.762  0.00  0.00     0.016 C 
ENDROOT
BRANCH   1  20
HETATM   20  O   UNK N   1      23.555  15.921   3.917  0.00  0.00    -0.356 OA
BRANCH  20  21
HETATM   21  C   UNK N   1      22.704  16.795   3.217  0.00  0.00     0.263 C 
HETATM   22  C   UNK N   1      22.388  18.089   3.986  0.00  0.00     0.095 C 
HETATM   23  C   UNK N   1      21.086  18.622   3.426  0.00  0.00     0.156 C 
HETATM   24  C   UNK N   1      19.967  17.635   3.753  0.00  0.00     0.175 C 
HETATM   25  C   UNK N   1      20.431  16.192   3.464  0.00  0.00     0.151 C 
HETATM   26  C   UNK N   1      20.551  15.349   4.723  0.00  0.00     0.042 C 
HETATM   27  O   UNK N   1      21.590  16.111   2.647  0.00  0.00    -0.354 OA
BRANCH  23  28
HETATM   28  O   UNK N   1      20.807  19.971   3.738  0.00  0.00    -0.388 OA
HETATM   29  C   UNK N   1      21.070  20.770   2.615  0.00  0.00     0.202 C 
ENDBRANCH  23  28
BRANCH  24  30
HETATM   30  O   UNK N   1      18.833  17.937   3.002  0.00  0.00    -0.390 OA
HETATM   31  H   UNK N   1      17.965  18.370   3.040  0.00  0.00     0.210 HD
ENDBRANCH  24  30
ENDBRANCH  20  21
ENDBRANCH   1  20
BRANCH  14  32
HETATM   32  O   UNK N   1      30.844  16.677   2.952  0.00  0.00    -0.389 OA
HETATM   33  H   UNK N   1      31.485  16.560   2.233  0.00  0.00     0.210 HD
ENDBRANCH  14  32
BRANCH  17  34
HETATM   34  C   UNK N   1      33.716  14.915   3.827  0.00  0.00    -0.043 A 
HETATM   35  C   UNK N   1      33.795  15.162   2.527  0.00  0.00     0.087 A 
HETATM   36  C   UNK N   1      34.528  14.047   1.986  0.00  0.00     0.283 A 
HETATM   37  O   UNK N   1      34.747  13.858   0.805  0.00  0.00    -0.260 OA
HETATM   38  O   UNK N   1      34.870  13.181   2.953  0.00  0.00    -0.314 OA
HETATM   39  C   UNK N   1      34.411  13.620   4.181  0.00  0.00     0.214 A 
ENDBRANCH  17  34
BRANCH  16  40
HETATM   40  O   UNK N   1      33.895  17.811   5.592  0.00  0.00    -0.316 OA
BRANCH  40  41
HETATM   41  C   UNK N   1      34.089  17.447   6.895  0.00  0.00     0.255 C 
HETATM   42  O   UNK N   1      34.948  16.624   7.158  0.00  0.00    -0.266 OA
HETATM   43  C   UNK N   1      33.316  18.052   8.023  0.00  0.00     0.126 C 
ENDBRANCH  40  41
ENDBRANCH  16  40
TORSDOF 8
ENDMDL
MODEL 6
REMARK VINA RESULT:      -8.1      1.608      4.181
REMARK  8 active torsions:
REMARK  status: ('A' for Active; 'I' for Inactive)
REMARK    1  A    between atoms: C_3  and  O_41 
REMARK    2  A    between atoms: C_4  and  O_39 
REMARK    3  A    between atoms: C_6  and  O_8 
REMARK    4  A    between atoms: C_9  and  O_8 
REMARK    5  A    between atoms: C_22  and  O_36 
REMARK    6  A    between atoms: C_24  and  O_32 
REMARK    7  A    between atoms: C_25  and  C_26 
REMARK    8  A    between atoms: O_32  and  C_33 
ROOT
HETATM    1  C   UNK N   1      24.502  19.132   4.470  0.00  0.00     0.125 C 
HETATM    2  C   UNK N   1      25.919  19.536   4.051  0.00  0.00     0.033 C 
HETATM    3  C   UNK N   1      26.586  18.442   3.217  0.00  0.00     0.012 C 
HETATM    4  C   UNK N   1      26.436  17.021   3.807  0.00  0.00    -0.036 C 
HETATM    5  C   UNK N   1      25.740  17.000   5.201  0.00  0.00    -0.004 C 
HETATM    6  C   UNK N   1      24.396  17.746   5.157  0.00  0.00     0.037 C 
HETATM    7  C   UNK N   1      26.615  17.568   6.334  0.00  0.00     0.006 C 
HETATM    8  C   UNK N   1      28.017  16.953   6.341  0.00  0.00     0.008 C 
HETATM    9  C   UNK N   1      28.661  17.196   4.978  0.00  0.00     0.026 C 
HETATM   10  C   UNK N   1      27.816  16.403   3.954  0.00  0.00     0.001 C 
HETATM   11  C   UNK N   1      28.576  16.064   2.660  0.00  0.00     0.007 C 
HETATM   12  C   UNK N   1      29.805  15.174   2.975  0.00  0.00     0.013 C 
HETATM   13  C   UNK N   1      30.310  15.345   4.433  0.00  0.00    -0.003 C 
HETATM   14  C   UNK N   1      30.149  16.818   4.850  0.00  0.00     0.072 C 
HETATM   15  C   UNK N   1      31.010  16.963   6.084  0.00  0.00     0.072 C 
HETATM   16  C   UNK N   1      32.246  16.140   5.701  0.00  0.00     0.143 C 
HETATM   17  C   UNK N   1      31.776  15.034   4.735  0.00  0.00     0.058 C 
HETATM   18  C   UNK N   1      29.512  14.384   5.313  0.00  0.00     0.019 C 
HETATM   19  C   UNK N   1      25.628  16.151   2.852  0.00  0.00     0.016 C 
ENDROOT
BRANCH   1  20
HETATM   20  O   UNK N   1      23.536  19.390   3.464  0.00  0.00    -0.356 OA
BRANCH  20  21
HETATM   21  C   UNK N   1      22.304  18.822   3.837  0.00  0.00     0.263 C 
HETATM   22  C   UNK N   1      21.960  17.540   3.062  0.00  0.00     0.095 C 
HETATM   23  C   UNK N   1      20.455  17.382   3.124  0.00  0.00     0.156 C 
HETATM   24  C   UNK N   1      19.806  18.540   2.367  0.00  0.00     0.175 C 
HETATM   25  C   UNK N   1      20.487  19.870   2.746  0.00  0.00     0.151 C 
HETATM   26  C   UNK N   1      21.245  20.495   1.586  0.00  0.00     0.042 C 
HETATM   27  O   UNK N   1      21.271  19.801   3.929  0.00  0.00    -0.354 OA
BRANCH  23  28
HETATM   28  O   UNK N   1      19.972  16.098   2.788  0.00  0.00    -0.388 OA
HETATM   29  C   UNK N   1      20.356  15.788   1.475  0.00  0.00     0.202 C 
ENDBRANCH  23  28
BRANCH  24  30
HETATM   30  O   UNK N   1      18.444  18.593   2.659  0.00  0.00    -0.390 OA
HETATM   31  H   UNK N   1      17.800  18.555   3.384  0.00  0.00     0.210 HD
ENDBRANCH  24  30
ENDBRANCH  20  21
ENDBRANCH   1  20
BRANCH  14  32
HETATM   32  O   UNK N   1      30.708  17.650   3.867  0.00  0.00    -0.389 OA
HETATM   33  H   UNK N   1      30.639  18.543   3.495  0.00  0.00     0.210 HD
ENDBRANCH  14  32
BRANCH  17  34
HETATM   34  C   UNK N   1      32.645  14.776   3.533  0.00  0.00    -0.043 A 
HETATM   35  C   UNK N   1      32.913  13.586   3.014  0.00  0.00     0.087 A 
HETATM   36  C   UNK N   1      33.903  13.843   2.001  0.00  0.00     0.283 A 
HETATM   37  O   UNK N   1      34.470  12.993   1.342  0.00  0.00    -0.260 OA
HETATM   38  O   UNK N   1      34.192  15.152   1.931  0.00  0.00    -0.314 OA
HETATM   39  C   UNK N   1      33.453  15.862   2.859  0.00  0.00     0.214 A 
ENDBRANCH  17  34
BRANCH  16  40
HETATM   40  O   UNK N   1      32.920  15.640   6.805  0.00  0.00    -0.316 OA
BRANCH  40  41
HETATM   41  C   UNK N   1      34.194  15.953   7.190  0.00  0.00     0.255 C 
HETATM   42  O   UNK N   1      34.949  16.461   6.379  0.00  0.00    -0.266 OA
HETATM   43  C   UNK N   1      34.691  15.735   8.584  0.00  0.00     0.126 C 
ENDBRANCH  40  41
ENDBRANCH  16  40
TORSDOF 8
ENDMDL
MODEL 7
REMARK VINA RESULT:      -8.1      2.821     11.212
REMARK  8 active torsions:
REMARK  status: ('A' for Active; 'I' for Inactive)
REMARK    1  A    between atoms: C_3  and  O_41 
REMARK    2  A    between atoms: C_4  and  O_39 
REMARK    3  A    between atoms: C_6  and  O_8 
REMARK    4  A    between atoms: C_9  and  O_8 
REMARK    5  A    between atoms: C_22  and  O_36 
REMARK    6  A    between atoms: C_24  and  O_32 
REMARK    7  A    between atoms: C_25  and  C_26 
REMARK    8  A    between atoms: O_32  and  C_33 
ROOT
HETATM    1  C   UNK N   1      34.517  15.292   7.198  0.00  0.00     0.125 C 
HETATM    2  C   UNK N   1      33.156  15.671   7.790  0.00  0.00     0.033 C 
HETATM    3  C   UNK N   1      32.025  14.871   7.144  0.00  0.00     0.012 C 
HETATM    4  C   UNK N   1      32.096  14.812   5.601  0.00  0.00    -0.036 C 
HETATM    5  C   UNK N   1      33.239  15.685   5.001  0.00  0.00    -0.004 C 
HETATM    6  C   UNK N   1      34.591  15.345   5.649  0.00  0.00     0.037 C 
HETATM    7  C   UNK N   1      32.976  17.200   5.106  0.00  0.00     0.006 C 
HETATM    8  C   UNK N   1      31.583  17.578   4.594  0.00  0.00     0.008 C 
HETATM    9  C   UNK N   1      30.544  16.786   5.384  0.00  0.00     0.026 C 
HETATM   10  C   UNK N   1      30.775  15.298   5.030  0.00  0.00     0.001 C 
HETATM   11  C   UNK N   1      29.539  14.411   5.263  0.00  0.00     0.007 C 
HETATM   12  C   UNK N   1      28.363  14.881   4.370  0.00  0.00     0.013 C 
HETATM   13  C   UNK N   1      28.477  16.376   3.968  0.00  0.00    -0.003 C 
HETATM   14  C   UNK N   1      29.071  17.169   5.147  0.00  0.00     0.072 C 
HETATM   15  C   UNK N   1      28.773  18.615   4.823  0.00  0.00     0.072 C 
HETATM   16  C   UNK N   1      27.346  18.525   4.270  0.00  0.00     0.143 C 
HETATM   17  C   UNK N   1      27.196  17.135   3.620  0.00  0.00     0.058 C 
HETATM   18  C   UNK N   1      29.335  16.449   2.706  0.00  0.00     0.019 C 
HETATM   19  C   UNK N   1      32.304  13.371   5.151  0.00  0.00     0.016 C 
ENDROOT
BRANCH   1  20
HETATM   20  O   UNK N   1      35.073  14.132   7.795  0.00  0.00    -0.356 OA
BRANCH  20  21
HETATM   21  C   UNK N   1      36.006  14.509   8.778  0.00  0.00     0.263 C 
HETATM   22  C   UNK N   1      37.283  13.654   8.771  0.00  0.00     0.095 C 
HETATM   23  C   UNK N   1      37.890  13.763  10.154  0.00  0.00     0.156 C 
HETATM   24  C   UNK N   1      36.938  13.120  11.162  0.00  0.00     0.175 C 
HETATM   25  C   UNK N   1      35.489  13.571  10.886  0.00  0.00     0.151 C 
HETATM   26  C   UNK N   1      34.597  12.432  10.418  0.00  0.00     0.042 C 
HETATM   27  O   UNK N   1      35.389  14.713  10.048  0.00  0.00    -0.354 OA
BRANCH  23  28
HETATM   28  O   UNK N   1      39.237  13.351  10.253  0.00  0.00    -0.388 OA
HETATM   29  C   UNK N   1      39.481  12.339   9.313  0.00  0.00     0.202 C 
ENDBRANCH  23  28
BRANCH  24  30
HETATM   30  O   UNK N   1      37.314  13.468  12.458  0.00  0.00    -0.390 OA
HETATM   31  H   UNK N   1      37.214  14.149  13.142  0.00  0.00     0.210 HD
ENDBRANCH  24  30
ENDBRANCH  20  21
ENDBRANCH   1  20
BRANCH  14  32
HETATM   32  O   UNK N   1      28.366  16.864   6.322  0.00  0.00    -0.389 OA
HETATM   33  H   UNK N   1      28.205  17.191   7.221  0.00  0.00     0.210 HD
ENDBRANCH  14  32
BRANCH  17  34
HETATM   34  C   UNK N   1      25.912  16.398   3.896  0.00  0.00    -0.043 A 
HETATM   35  C   UNK N   1      25.168  15.776   2.991  0.00  0.00     0.087 A 
HETATM   36  C   UNK N   1      23.982  15.379   3.703  0.00  0.00     0.283 A 
HETATM   37  O   UNK N   1      23.010  14.845   3.205  0.00  0.00    -0.260 OA
HETATM   38  O   UNK N   1      24.044  15.756   4.990  0.00  0.00    -0.314 OA
HETATM   39  C   UNK N   1      25.230  16.417   5.245  0.00  0.00     0.214 A 
ENDBRANCH  17  34
BRANCH  16  40
HETATM   40  O   UNK N   1      27.042  19.561   3.399  0.00  0.00    -0.316 OA
BRANCH  40  41
HETATM   41  C   UNK N   1      25.810  20.116   3.195  0.00  0.00     0.255 C 
HETATM   42  O   UNK N   1      25.657  20.891   2.267  0.00  0.00    -0.266 OA
HETATM   43  C   UNK N   1      24.625  19.779   4.042  0.00  0.00     0.126 C 
ENDBRANCH  40  41
ENDBRANCH  16  40
TORSDOF 8
ENDMDL
MODEL 8
REMARK VINA RESULT:      -8.0      1.583      2.405
REMARK  8 active torsions:
REMARK  status: ('A' for Active; 'I' for Inactive)
REMARK    1  A    between atoms: C_3  and  O_41 
REMARK    2  A    between atoms: C_4  and  O_39 
REMARK    3  A    between atoms: C_6  and  O_8 
REMARK    4  A    between atoms: C_9  and  O_8 
REMARK    5  A    between atoms: C_22  and  O_36 
REMARK    6  A    between atoms: C_24  and  O_32 
REMARK    7  A    between atoms: C_25  and  C_26 
REMARK    8  A    between atoms: O_32  and  C_33 
ROOT
HETATM    1  C   UNK N   1      25.659  16.382   4.515  0.00  0.00     0.125 C 
HETATM    2  C   UNK N   1      26.474  15.489   5.456  0.00  0.00     0.033 C 
HETATM    3  C   UNK N   1      27.403  16.317   6.344  0.00  0.00     0.012 C 
HETATM    4  C   UNK N   1      28.199  17.402   5.584  0.00  0.00    -0.036 C 
HETATM    5  C   UNK N   1      27.991  17.354   4.041  0.00  0.00    -0.004 C 
HETATM    6  C   UNK N   1      26.496  17.389   3.684  0.00  0.00     0.037 C 
HETATM    7  C   UNK N   1      28.661  16.141   3.367  0.00  0.00     0.006 C 
HETATM    8  C   UNK N   1      30.123  15.981   3.792  0.00  0.00     0.008 C 
HETATM    9  C   UNK N   1      30.175  15.860   5.314  0.00  0.00     0.026 C 
HETATM   10  C   UNK N   1      29.680  17.215   5.871  0.00  0.00     0.001 C 
HETATM   11  C   UNK N   1      30.159  17.502   7.305  0.00  0.00     0.007 C 
HETATM   12  C   UNK N   1      31.706  17.566   7.352  0.00  0.00     0.013 C 
HETATM   13  C   UNK N   1      32.374  16.767   6.201  0.00  0.00    -0.003 C 
HETATM   14  C   UNK N   1      31.544  15.500   5.922  0.00  0.00     0.072 C 
HETATM   15  C   UNK N   1      32.457  14.617   5.103  0.00  0.00     0.072 C 
HETATM   16  C   UNK N   1      33.804  14.820   5.807  0.00  0.00     0.143 C 
HETATM   17  C   UNK N   1      33.794  16.239   6.410  0.00  0.00     0.058 C 
HETATM   18  C   UNK N   1      32.471  17.696   4.992  0.00  0.00     0.019 C 
HETATM   19  C   UNK N   1      27.792  18.783   6.082  0.00  0.00     0.016 C 
ENDROOT
BRANCH   1  20
HETATM   20  O   UNK N   1      24.498  16.916   5.131  0.00  0.00    -0.356 OA
BRANCH  20  21
HETATM   21  C   UNK N   1      23.378  16.141   4.780  0.00  0.00     0.263 C 
HETATM   22  C   UNK N   1      23.363  15.723   3.300  0.00  0.00     0.095 C 
HETATM   23  C   UNK N   1      21.920  15.432   2.944  0.00  0.00     0.156 C 
HETATM   24  C   UNK N   1      21.116  16.727   3.042  0.00  0.00     0.175 C 
HETATM   25  C   UNK N   1      21.484  17.484   4.334  0.00  0.00     0.151 C 
HETATM   26  C   UNK N   1      22.194  18.800   4.064  0.00  0.00     0.042 C 
HETATM   27  O   UNK N   1      22.167  16.689   5.294  0.00  0.00    -0.354 OA
BRANCH  23  28
HETATM   28  O   UNK N   1      21.733  14.696   1.752  0.00  0.00    -0.388 OA
HETATM   29  C   UNK N   1      22.984  14.382   1.202  0.00  0.00     0.202 C 
ENDBRANCH  23  28
BRANCH  24  30
HETATM   30  O   UNK N   1      19.752  16.442   3.020  0.00  0.00    -0.390 OA
HETATM   31  H   UNK N   1      19.004  16.172   3.575  0.00  0.00     0.210 HD
ENDBRANCH  24  30
ENDBRANCH  20  21
ENDBRANCH   1  20
BRANCH  14  32
HETATM   32  O   UNK N   1      31.300  14.823   7.127  0.00  0.00    -0.389 OA
HETATM   33  H   UNK N   1      31.325  14.945   8.089  0.00  0.00     0.210 HD
ENDBRANCH  14  32
BRANCH  17  34
HETATM   34  C   UNK N   1      34.338  16.382   7.807  0.00  0.00    -0.043 A 
HETATM   35  C   UNK N   1      34.383  15.422   8.720  0.00  0.00     0.087 A 
HETATM   36  C   UNK N   1      34.824  16.081   9.922  0.00  0.00     0.283 A 
HETATM   37  O   UNK N   1      34.920  15.557  11.015  0.00  0.00    -0.260 OA
HETATM   38  O   UNK N   1      35.034  17.389   9.704  0.00  0.00    -0.314 OA
HETATM   39  C   UNK N   1      34.761  17.712   8.388  0.00  0.00     0.214 A 
ENDBRANCH  17  34
BRANCH  16  40
HETATM   40  O   UNK N   1      34.886  14.599   4.968  0.00  0.00    -0.316 OA
BRANCH  40  41
HETATM   41  C   UNK N   1      36.113  14.123   5.334  0.00  0.00     0.255 C 
HETATM   42  O   UNK N   1      36.975  14.912   5.679  0.00  0.00    -0.266 OA
HETATM   43  C   UNK N   1      36.433  12.662   5.370  0.00  0.00     0.126 C 
ENDBRANCH  40  41
ENDBRANCH  16  40
TORSDOF 8
ENDMDL
MODEL 9
REMARK VINA RESULT:      -7.8      3.772     11.489
REMARK  8 active torsions:
REMARK  status: ('A' for Active; 'I' for Inactive)
REMARK    1  A    between atoms: C_3  and  O_41 
REMARK    2  A    between atoms: C_4  and  O_39 
REMARK    3  A    between atoms: C_6  and  O_8 
REMARK    4  A    between atoms: C_9  and  O_8 
REMARK    5  A    between atoms: C_22  and  O_36 
REMARK    6  A    between atoms: C_24  and  O_32 
REMARK    7  A    between atoms: C_25  and  C_26 
REMARK    8  A    between atoms: O_32  and  C_33 
ROOT
HETATM    1  C   UNK N   1      34.677  15.114  10.362  0.00  0.00     0.125 C 
HETATM    2  C   UNK N   1      33.178  14.850  10.188  0.00  0.00     0.033 C 
HETATM    3  C   UNK N   1      32.861  14.342   8.781  0.00  0.00     0.012 C 
HETATM    4  C   UNK N   1      33.540  15.149   7.652  0.00  0.00    -0.036 C 
HETATM    5  C   UNK N   1      34.314  16.401   8.165  0.00  0.00    -0.004 C 
HETATM    6  C   UNK N   1      35.310  16.017   9.272  0.00  0.00     0.037 C 
HETATM    7  C   UNK N   1      33.394  17.533   8.662  0.00  0.00     0.006 C 
HETATM    8  C   UNK N   1      32.295  17.866   7.649  0.00  0.00     0.008 C 
HETATM    9  C   UNK N   1      31.496  16.597   7.364  0.00  0.00     0.026 C 
HETATM   10  C   UNK N   1      32.474  15.617   6.674  0.00  0.00     0.001 C 
HETATM   11  C   UNK N   1      31.772  14.538   5.831  0.00  0.00     0.007 C 
HETATM   12  C   UNK N   1      30.956  15.194   4.689  0.00  0.00     0.013 C 
HETATM   13  C   UNK N   1      30.546  16.656   5.010  0.00  0.00    -0.003 C 
HETATM   14  C   UNK N   1      30.224  16.769   6.512  0.00  0.00     0.072 C 
HETATM   15  C   UNK N   1      29.472  18.073   6.645  0.00  0.00     0.072 C 
HETATM   16  C   UNK N   1      28.567  18.040   5.406  0.00  0.00     0.143 C 
HETATM   17  C   UNK N   1      29.307  17.231   4.323  0.00  0.00     0.058 C 
HETATM   18  C   UNK N   1      31.697  17.563   4.576  0.00  0.00     0.019 C 
HETATM   19  C   UNK N   1      34.516  14.257   6.896  0.00  0.00     0.016 C 
ENDROOT
BRANCH   1  20
HETATM   20  O   UNK N   1      35.408  13.942  10.683  0.00  0.00    -0.356 OA
BRANCH  20  21
HETATM   21  C   UNK N   1      34.997  13.459  11.939  0.00  0.00     0.263 C 
HETATM   22  C   UNK N   1      35.701  14.148  13.119  0.00  0.00     0.095 C 
HETATM   23  C   UNK N   1      35.621  13.193  14.293  0.00  0.00     0.156 C 
HETATM   24  C   UNK N   1      36.435  11.942  13.967  0.00  0.00     0.175 C 
HETATM   25  C   UNK N   1      36.132  11.471  12.530  0.00  0.00     0.151 C 
HETATM   26  C   UNK N   1      37.328  11.604  11.602  0.00  0.00     0.042 C 
HETATM   27  O   UNK N   1      34.952  12.034  11.974  0.00  0.00    -0.354 OA
BRANCH  23  28
HETATM   28  O   UNK N   1      35.885  13.770  15.555  0.00  0.00    -0.388 OA
HETATM   29  C   UNK N   1      37.071  14.515  15.484  0.00  0.00     0.202 C 
ENDBRANCH  23  28
BRANCH  24  30
HETATM   30  O   UNK N   1      36.137  10.931  14.879  0.00  0.00    -0.390 OA
HETATM   31  H   UNK N   1      35.442  10.317  15.163  0.00  0.00     0.210 HD
ENDBRANCH  24  30
ENDBRANCH  20  21
ENDBRANCH   1  20
BRANCH  14  32
HETATM   32  O   UNK N   1      29.334  15.749   6.880  0.00  0.00    -0.389 OA
HETATM   33  H   UNK N   1      29.302  14.800   7.082  0.00  0.00     0.210 HD
ENDBRANCH  14  32
BRANCH  17  34
HETATM   34  C   UNK N   1      28.484  16.243   3.540  0.00  0.00    -0.043 A 
HETATM   35  C   UNK N   1      27.337  15.708   3.935  0.00  0.00     0.087 A 
HETATM   36  C   UNK N   1      27.032  14.716   2.937  0.00  0.00     0.283 A 
HETATM   37  O   UNK N   1      26.092  13.947   2.976  0.00  0.00    -0.260 OA
HETATM   38  O   UNK N   1      27.978  14.685   1.985  0.00  0.00    -0.314 OA
HETATM   39  C   UNK N   1      28.965  15.615   2.251  0.00  0.00     0.214 A 
ENDBRANCH  17  34
BRANCH  16  40
HETATM   40  O   UNK N   1      28.200  19.307   4.977  0.00  0.00    -0.316 OA
BRANCH  40  41
HETATM   41  C   UNK N   1      27.146  20.046   5.434  0.00  0.00     0.255 C 
HETATM   42  O   UNK N   1      26.015  19.619   5.285  0.00  0.00    -0.266 OA
HETATM   43  C   UNK N   1      27.325  21.346   6.152  0.00  0.00     0.126 C 
ENDBRANCH  40  41
ENDBRANCH  16  40
TORSDOF 8
ENDMDL
