REMARK  3 active torsions:
REMARK  status: ('A' for Active; 'I' for Inactive)
REMARK    1  A    between atoms: C_4  and  C_3 
REMARK    2  A    between atoms: N_5  and  C_3 
REMARK    3  A    between atoms: O_6  and  C_4 
ROOT
HETATM    1  C   UNK N   1       1.083  -1.051  -0.000  0.00  0.00     0.141 C 
ENDROOT
BRANCH   1   2
HETATM    2  C   UNK N   1       0.175   0.171   0.000  0.00  0.00     0.183 C 
BRANCH   2   3
HETATM    3  O   UNK N   1      -1.157  -0.242  -0.000  0.00  0.00    -0.399 OA
HETATM    4  H   UNK N   1      -1.869   0.417  -0.000  0.00  0.00     0.209 HD
ENDBRANCH   2   3
ENDBRANCH   1   2
BRANCH   1   5
HETATM    5  N   UNK N   1       2.507  -0.713   0.000  0.00  0.00    -0.419 N 
HETATM    6  C   UNK N   1       3.469  -1.799  -0.000  0.00  0.00     0.142 C 
HETATM    7  C   UNK N   1       3.014   0.654  -0.000  0.00  0.00     0.142 C 
ENDBRANCH   1   5
TORSDOF 3
