MODEL 1
REMARK VINA RESULT:      -1.8      0.000      0.000
REMARK  21 active torsions:
REMARK  status: ('A' for Active; 'I' for Inactive)
REMARK    1  A    between atoms: C_1  and  C_2 
REMARK    2  A    between atoms: C_1  and  O_13 
REMARK    3  A    between atoms: C_2  and  C_3 
REMARK    4  A    between atoms: C_2  and  O_12 
REMARK    5  A    between atoms: C_3  and  C_4 
REMARK    6  A    between atoms: C_3  and  O_11 
REMARK    7  A    between atoms: C_4  and  C_5 
REMARK    8  A    between atoms: C_4  and  O_10 
REMARK    9  A    between atoms: C_5  and  C_6 
REMARK   10  A    between atoms: C_5  and  O_9 
REMARK   11  A    between atoms: C_14  and  C_15 
REMARK   12  A    between atoms: C_14  and  O_26 
REMARK   13  A    between atoms: C_15  and  C_16 
REMARK   14  A    between atoms: C_15  and  O_25 
REMARK   15  A    between atoms: C_16  and  C_17 
REMARK   16  A    between atoms: C_16  and  O_24 
REMARK   17  A    between atoms: C_17  and  C_18 
REMARK   18  A    between atoms: C_17  and  O_23 
REMARK   19  A    between atoms: C_18  and  C_19 
REMARK   20  A    between atoms: C_18  and  O_22 
REMARK   21  A    between atoms: Mg_29  and  Mg_29 
ROOT
HETATM    1  O   UNK N   1      35.458  22.121  12.850  0.00  0.00    -0.411 OA
HETATM    2  H   UNK N   1      34.686  21.555  13.004  0.00  0.00     0.205 HD
HETATM    3  H   UNK N   1      35.958  22.045  12.023  0.00  0.00     0.205 HD
ENDROOT
TORSDOF 21
ENDMDL
MODEL 2
REMARK VINA RESULT:      -1.5     19.772     19.772
REMARK  21 active torsions:
REMARK  status: ('A' for Active; 'I' for Inactive)
REMARK    1  A    between atoms: C_1  and  C_2 
REMARK    2  A    between atoms: C_1  and  O_13 
REMARK    3  A    between atoms: C_2  and  C_3 
REMARK    4  A    between atoms: C_2  and  O_12 
REMARK    5  A    between atoms: C_3  and  C_4 
REMARK    6  A    between atoms: C_3  and  O_11 
REMARK    7  A    between atoms: C_4  and  C_5 
REMARK    8  A    between atoms: C_4  and  O_10 
REMARK    9  A    between atoms: C_5  and  C_6 
REMARK   10  A    between atoms: C_5  and  O_9 
REMARK   11  A    between atoms: C_14  and  C_15 
REMARK   12  A    between atoms: C_14  and  O_26 
REMARK   13  A    between atoms: C_15  and  C_16 
REMARK   14  A    between atoms: C_15  and  O_25 
REMARK   15  A    between atoms: C_16  and  C_17 
REMARK   16  A    between atoms: C_16  and  O_24 
REMARK   17  A    between atoms: C_17  and  C_18 
REMARK   18  A    between atoms: C_17  and  O_23 
REMARK   19  A    between atoms: C_18  and  C_19 
REMARK   20  A    between atoms: C_18  and  O_22 
REMARK   21  A    between atoms: Mg_29  and  Mg_29 
ROOT
HETATM    1  O   UNK N   1      20.609  20.611  -0.117  0.00  0.00    -0.411 OA
HETATM    2  H   UNK N   1      20.954  20.344  -0.983  0.00  0.00     0.205 HD
HETATM    3  H   UNK N   1      19.835  20.161   0.257  0.00  0.00     0.205 HD
ENDROOT
TORSDOF 21
ENDMDL
MODEL 3
REMARK VINA RESULT:      -1.4     10.371     10.371
REMARK  21 active torsions:
REMARK  status: ('A' for Active; 'I' for Inactive)
REMARK    1  A    between atoms: C_1  and  C_2 
REMARK    2  A    between atoms: C_1  and  O_13 
REMARK    3  A    between atoms: C_2  and  C_3 
REMARK    4  A    between atoms: C_2  and  O_12 
REMARK    5  A    between atoms: C_3  and  C_4 
REMARK    6  A    between atoms: C_3  and  O_11 
REMARK    7  A    between atoms: C_4  and  C_5 
REMARK    8  A    between atoms: C_4  and  O_10 
REMARK    9  A    between atoms: C_5  and  C_6 
REMARK   10  A    between atoms: C_5  and  O_9 
REMARK   11  A    between atoms: C_14  and  C_15 
REMARK   12  A    between atoms: C_14  and  O_26 
REMARK   13  A    between atoms: C_15  and  C_16 
REMARK   14  A    between atoms: C_15  and  O_25 
REMARK   15  A    between atoms: C_16  and  C_17 
REMARK   16  A    between atoms: C_16  and  O_24 
REMARK   17  A    between atoms: C_17  and  C_18 
REMARK   18  A    between atoms: C_17  and  O_23 
REMARK   19  A    between atoms: C_18  and  C_19 
REMARK   20  A    between atoms: C_18  and  O_22 
REMARK   21  A    between atoms: Mg_29  and  Mg_29 
ROOT
HETATM    1  O   UNK N   1      41.252  21.761  21.445  0.00  0.00    -0.411 OA
HETATM    2  H   UNK N   1      41.597  21.494  20.578  0.00  0.00     0.205 HD
HETATM    3  H   UNK N   1      40.479  21.311  21.818  0.00  0.00     0.205 HD
ENDROOT
TORSDOF 21
ENDMDL
MODEL 4
REMARK VINA RESULT:      -1.3     14.742     14.742
REMARK  21 active torsions:
REMARK  status: ('A' for Active; 'I' for Inactive)
REMARK    1  A    between atoms: C_1  and  C_2 
REMARK    2  A    between atoms: C_1  and  O_13 
REMARK    3  A    between atoms: C_2  and  C_3 
REMARK    4  A    between atoms: C_2  and  O_12 
REMARK    5  A    between atoms: C_3  and  C_4 
REMARK    6  A    between atoms: C_3  and  O_11 
REMARK    7  A    between atoms: C_4  and  C_5 
REMARK    8  A    between atoms: C_4  and  O_10 
REMARK    9  A    between atoms: C_5  and  C_6 
REMARK   10  A    between atoms: C_5  and  O_9 
REMARK   11  A    between atoms: C_14  and  C_15 
REMARK   12  A    between atoms: C_14  and  O_26 
REMARK   13  A    between atoms: C_15  and  C_16 
REMARK   14  A    between atoms: C_15  and  O_25 
REMARK   15  A    between atoms: C_16  and  C_17 
REMARK   16  A    between atoms: C_16  and  O_24 
REMARK   17  A    between atoms: C_17  and  C_18 
REMARK   18  A    between atoms: C_17  and  O_23 
REMARK   19  A    between atoms: C_18  and  C_19 
REMARK   20  A    between atoms: C_18  and  O_22 
REMARK   21  A    between atoms: Mg_29  and  Mg_29 
ROOT
HETATM    1  O   UNK N   1      47.532  19.043  20.730  0.00  0.00    -0.411 OA
HETATM    2  H   UNK N   1      46.780  18.461  20.923  0.00  0.00     0.205 HD
HETATM    3  H   UNK N   1      47.397  19.855  20.215  0.00  0.00     0.205 HD
ENDROOT
TORSDOF 21
ENDMDL
MODEL 5
REMARK VINA RESULT:      -1.3      5.089      5.089
REMARK  21 active torsions:
REMARK  status: ('A' for Active; 'I' for Inactive)
REMARK    1  A    between atoms: C_1  and  C_2 
REMARK    2  A    between atoms: C_1  and  O_13 
REMARK    3  A    between atoms: C_2  and  C_3 
REMARK    4  A    between atoms: C_2  and  O_12 
REMARK    5  A    between atoms: C_3  and  C_4 
REMARK    6  A    between atoms: C_3  and  O_11 
REMARK    7  A    between atoms: C_4  and  C_5 
REMARK    8  A    between atoms: C_4  and  O_10 
REMARK    9  A    between atoms: C_5  and  C_6 
REMARK   10  A    between atoms: C_5  and  O_9 
REMARK   11  A    between atoms: C_14  and  C_15 
REMARK   12  A    between atoms: C_14  and  O_26 
REMARK   13  A    between atoms: C_15  and  C_16 
REMARK   14  A    between atoms: C_15  and  O_25 
REMARK   15  A    between atoms: C_16  and  C_17 
REMARK   16  A    between atoms: C_16  and  O_24 
REMARK   17  A    between atoms: C_17  and  C_18 
REMARK   18  A    between atoms: C_17  and  O_23 
REMARK   19  A    between atoms: C_18  and  C_19 
REMARK   20  A    between atoms: C_18  and  O_22 
REMARK   21  A    between atoms: Mg_29  and  Mg_29 
ROOT
HETATM    1  O   UNK N   1      35.401  19.346   8.586  0.00  0.00    -0.411 OA
HETATM    2  H   UNK N   1      34.522  19.132   8.234  0.00  0.00     0.205 HD
HETATM    3  H   UNK N   1      35.967  18.642   8.938  0.00  0.00     0.205 HD
ENDROOT
TORSDOF 21
ENDMDL
MODEL 6
REMARK VINA RESULT:      -1.3     18.829     18.829
REMARK  21 active torsions:
REMARK  status: ('A' for Active; 'I' for Inactive)
REMARK    1  A    between atoms: C_1  and  C_2 
REMARK    2  A    between atoms: C_1  and  O_13 
REMARK    3  A    between atoms: C_2  and  C_3 
REMARK    4  A    between atoms: C_2  and  O_12 
REMARK    5  A    between atoms: C_3  and  C_4 
REMARK    6  A    between atoms: C_3  and  O_11 
REMARK    7  A    between atoms: C_4  and  C_5 
REMARK    8  A    between atoms: C_4  and  O_10 
REMARK    9  A    between atoms: C_5  and  C_6 
REMARK   10  A    between atoms: C_5  and  O_9 
REMARK   11  A    between atoms: C_14  and  C_15 
REMARK   12  A    between atoms: C_14  and  O_26 
REMARK   13  A    between atoms: C_15  and  C_16 
REMARK   14  A    between atoms: C_15  and  O_25 
REMARK   15  A    between atoms: C_16  and  C_17 
REMARK   16  A    between atoms: C_16  and  O_24 
REMARK   17  A    between atoms: C_17  and  C_18 
REMARK   18  A    between atoms: C_17  and  O_23 
REMARK   19  A    between atoms: C_18  and  C_19 
REMARK   20  A    between atoms: C_18  and  O_22 
REMARK   21  A    between atoms: Mg_29  and  Mg_29 
ROOT
HETATM    1  O   UNK N   1      17.989  26.179   7.114  0.00  0.00    -0.411 OA
HETATM    2  H   UNK N   1      17.192  26.352   7.640  0.00  0.00     0.205 HD
HETATM    3  H   UNK N   1      18.396  25.298   7.126  0.00  0.00     0.205 HD
ENDROOT
TORSDOF 21
ENDMDL
MODEL 7
REMARK VINA RESULT:      -1.3     16.556     16.556
REMARK  21 active torsions:
REMARK  status: ('A' for Active; 'I' for Inactive)
REMARK    1  A    between atoms: C_1  and  C_2 
REMARK    2  A    between atoms: C_1  and  O_13 
REMARK    3  A    between atoms: C_2  and  C_3 
REMARK    4  A    between atoms: C_2  and  O_12 
REMARK    5  A    between atoms: C_3  and  C_4 
REMARK    6  A    between atoms: C_3  and  O_11 
REMARK    7  A    between atoms: C_4  and  C_5 
REMARK    8  A    between atoms: C_4  and  O_10 
REMARK    9  A    between atoms: C_5  and  C_6 
REMARK   10  A    between atoms: C_5  and  O_9 
REMARK   11  A    between atoms: C_14  and  C_15 
REMARK   12  A    between atoms: C_14  and  O_26 
REMARK   13  A    between atoms: C_15  and  C_16 
REMARK   14  A    between atoms: C_15  and  O_25 
REMARK   15  A    between atoms: C_16  and  C_17 
REMARK   16  A    between atoms: C_16  and  O_24 
REMARK   17  A    between atoms: C_17  and  C_18 
REMARK   18  A    between atoms: C_17  and  O_23 
REMARK   19  A    between atoms: C_18  and  C_19 
REMARK   20  A    between atoms: C_18  and  O_22 
REMARK   21  A    between atoms: Mg_29  and  Mg_29 
ROOT
HETATM    1  O   UNK N   1      19.138  19.834  11.257  0.00  0.00    -0.411 OA
HETATM    2  H   UNK N   1      19.529  19.510  12.084  0.00  0.00     0.205 HD
HETATM    3  H   UNK N   1      19.395  20.701  10.906  0.00  0.00     0.205 HD
ENDROOT
TORSDOF 21
ENDMDL
MODEL 8
REMARK VINA RESULT:      -1.2     11.320     11.320
REMARK  21 active torsions:
REMARK  status: ('A' for Active; 'I' for Inactive)
REMARK    1  A    between atoms: C_1  and  C_2 
REMARK    2  A    between atoms: C_1  and  O_13 
REMARK    3  A    between atoms: C_2  and  C_3 
REMARK    4  A    between atoms: C_2  and  O_12 
REMARK    5  A    between atoms: C_3  and  C_4 
REMARK    6  A    between atoms: C_3  and  O_11 
REMARK    7  A    between atoms: C_4  and  C_5 
REMARK    8  A    between atoms: C_4  and  O_10 
REMARK    9  A    between atoms: C_5  and  C_6 
REMARK   10  A    between atoms: C_5  and  O_9 
REMARK   11  A    between atoms: C_14  and  C_15 
REMARK   12  A    between atoms: C_14  and  O_26 
REMARK   13  A    between atoms: C_15  and  C_16 
REMARK   14  A    between atoms: C_15  and  O_25 
REMARK   15  A    between atoms: C_16  and  C_17 
REMARK   16  A    between atoms: C_16  and  O_24 
REMARK   17  A    between atoms: C_17  and  C_18 
REMARK   18  A    between atoms: C_17  and  O_23 
REMARK   19  A    between atoms: C_18  and  C_19 
REMARK   20  A    between atoms: C_18  and  O_22 
REMARK   21  A    between atoms: Mg_29  and  Mg_29 
ROOT
HETATM    1  O   UNK N   1      24.805  21.393   9.092  0.00  0.00    -0.411 OA
HETATM    2  H   UNK N   1      25.202  22.259   9.272  0.00  0.00     0.205 HD
HETATM    3  H   UNK N   1      25.316  20.583   9.247  0.00  0.00     0.205 HD
ENDROOT
TORSDOF 21
ENDMDL
MODEL 9
REMARK VINA RESULT:      -1.2     11.676     11.676
REMARK  21 active torsions:
REMARK  status: ('A' for Active; 'I' for Inactive)
REMARK    1  A    between atoms: C_1  and  C_2 
REMARK    2  A    between atoms: C_1  and  O_13 
REMARK    3  A    between atoms: C_2  and  C_3 
REMARK    4  A    between atoms: C_2  and  O_12 
REMARK    5  A    between atoms: C_3  and  C_4 
REMARK    6  A    between atoms: C_3  and  O_11 
REMARK    7  A    between atoms: C_4  and  C_5 
REMARK    8  A    between atoms: C_4  and  O_10 
REMARK    9  A    between atoms: C_5  and  C_6 
REMARK   10  A    between atoms: C_5  and  O_9 
REMARK   11  A    between atoms: C_14  and  C_15 
REMARK   12  A    between atoms: C_14  and  O_26 
REMARK   13  A    between atoms: C_15  and  C_16 
REMARK   14  A    between atoms: C_15  and  O_25 
REMARK   15  A    between atoms: C_16  and  C_17 
REMARK   16  A    between atoms: C_16  and  O_24 
REMARK   17  A    between atoms: C_17  and  C_18 
REMARK   18  A    between atoms: C_17  and  O_23 
REMARK   19  A    between atoms: C_18  and  C_19 
REMARK   20  A    between atoms: C_18  and  O_22 
REMARK   21  A    between atoms: Mg_29  and  Mg_29 
ROOT
HETATM    1  O   UNK N   1      26.791  14.395  11.614  0.00  0.00    -0.411 OA
HETATM    2  H   UNK N   1      26.040  13.813  11.808  0.00  0.00     0.205 HD
HETATM    3  H   UNK N   1      26.656  15.206  11.100  0.00  0.00     0.205 HD
ENDROOT
TORSDOF 21
ENDMDL
