MODEL 1
REMARK VINA RESULT:      -6.1      0.000      0.000
REMARK  5 active torsions:
REMARK  status: ('A' for Active; 'I' for Inactive)
REMARK    1  A    between atoms: C_6  and  C_5 
REMARK    2  A    between atoms: C_11  and  C_5 
REMARK    3  A    between atoms: C_15  and  C_11 
REMARK    4  A    between atoms: C_14  and  C_15 
REMARK    5  A    between atoms: C_15  and  O_16 
ROOT
HETATM    1  C   UNK N   1      29.070  17.422   7.018  0.00  0.00     0.046 C 
HETATM    2  C   UNK N   1      28.700  18.702   7.761  0.00  0.00     0.058 C 
ENDROOT
BRANCH   2   3
HETATM    3  C   UNK N   1      29.756  18.203   8.737  0.00  0.00     0.041 C 
BRANCH   3   4
HETATM    4  C   UNK N   1      30.783  17.266   8.250  0.00  0.00     0.030 C 
BRANCH   4   5
HETATM    5  C   UNK N   1      32.170  17.690   8.628  0.00  0.00    -0.025 C 
HETATM    6  C   UNK N   1      33.174  17.771   7.745  0.00  0.00    -0.091 C 
HETATM    7  C   UNK N   1      34.424  18.467   8.154  0.00  0.00     0.042 C 
HETATM    8  C   UNK N   1      33.002  17.372   6.314  0.00  0.00     0.042 C 
ENDBRANCH   4   5
ENDBRANCH   3   4
ENDBRANCH   2   3
BRANCH   2   9
HETATM    9  C   UNK N   1      27.574  19.232   6.721  0.00  0.00     0.023 C 
HETATM   10  C   UNK N   1      27.617  20.760   6.286  0.00  0.00     0.035 C 
HETATM   11  C   UNK N   1      26.629  21.063   5.186  0.00  0.00    -0.024 C 
HETATM   12  C   UNK N   1      26.629  20.252   4.121  0.00  0.00    -0.087 C 
HETATM   13  C   UNK N   1      25.677  20.453   2.995  0.00  0.00     0.043 C 
HETATM   14  C   UNK N   1      27.567  19.089   4.112  0.00  0.00     0.034 C 
HETATM   15  C   UNK N   1      27.393  18.331   5.437  0.00  0.00     0.012 C 
ENDBRANCH   2   9
BRANCH   2  16
HETATM   16  O   UNK N   1      27.947  18.814   8.884  0.00  0.00    -0.390 OA
HETATM   17  H   UNK N   1      27.060  19.182   9.016  0.00  0.00     0.210 HD
ENDBRANCH   2  16
TORSDOF 5
ENDMDL
MODEL 2
REMARK VINA RESULT:      -5.8     10.707     14.082
REMARK  5 active torsions:
REMARK  status: ('A' for Active; 'I' for Inactive)
REMARK    1  A    between atoms: C_6  and  C_5 
REMARK    2  A    between atoms: C_11  and  C_5 
REMARK    3  A    between atoms: C_15  and  C_11 
REMARK    4  A    between atoms: C_14  and  C_15 
REMARK    5  A    between atoms: C_15  and  O_16 
ROOT
HETATM    1  C   UNK N   1      26.451  24.224  -3.765  0.00  0.00     0.046 C 
HETATM    2  C   UNK N   1      27.266  24.192  -5.054  0.00  0.00     0.058 C 
ENDROOT
BRANCH   2   3
HETATM    3  C   UNK N   1      25.911  24.485  -5.682  0.00  0.00     0.041 C 
BRANCH   3   4
HETATM    4  C   UNK N   1      25.366  25.850  -5.584  0.00  0.00     0.030 C 
BRANCH   4   5
HETATM    5  C   UNK N   1      26.221  26.859  -6.289  0.00  0.00    -0.025 C 
HETATM    6  C   UNK N   1      26.596  28.016  -5.727  0.00  0.00    -0.091 C 
HETATM    7  C   UNK N   1      27.665  28.812  -6.389  0.00  0.00     0.042 C 
HETATM    8  C   UNK N   1      26.128  28.424  -4.367  0.00  0.00     0.042 C 
ENDBRANCH   4   5
ENDBRANCH   3   4
ENDBRANCH   2   3
BRANCH   2   9
HETATM    9  C   UNK N   1      28.709  23.879  -4.385  0.00  0.00     0.023 C 
HETATM   10  C   UNK N   1      28.748  23.442  -2.858  0.00  0.00     0.035 C 
HETATM   11  C   UNK N   1      30.128  23.011  -2.427  0.00  0.00    -0.024 C 
HETATM   12  C   UNK N   1      30.765  22.126  -3.204  0.00  0.00    -0.087 C 
HETATM   13  C   UNK N   1      32.139  21.656  -2.878  0.00  0.00     0.043 C 
HETATM   14  C   UNK N   1      30.090  21.661  -4.453  0.00  0.00     0.034 C 
HETATM   15  C   UNK N   1      29.622  22.902  -5.228  0.00  0.00     0.012 C 
ENDBRANCH   2   9
BRANCH   2  16
HETATM   16  O   UNK N   1      27.301  23.203  -5.982  0.00  0.00    -0.390 OA
HETATM   17  H   UNK N   1      26.921  23.157  -6.873  0.00  0.00     0.210 HD
ENDBRANCH   2  16
TORSDOF 5
ENDMDL
MODEL 3
REMARK VINA RESULT:      -5.7     12.079     14.783
REMARK  5 active torsions:
REMARK  status: ('A' for Active; 'I' for Inactive)
REMARK    1  A    between atoms: C_6  and  C_5 
REMARK    2  A    between atoms: C_11  and  C_5 
REMARK    3  A    between atoms: C_15  and  C_11 
REMARK    4  A    between atoms: C_14  and  C_15 
REMARK    5  A    between atoms: C_15  and  O_16 
ROOT
HETATM    1  C   UNK N   1      25.933  25.923  -7.825  0.00  0.00     0.046 C 
HETATM    2  C   UNK N   1      25.892  25.693  -6.318  0.00  0.00     0.058 C 
ENDROOT
BRANCH   2   3
HETATM    3  C   UNK N   1      25.878  24.232  -6.742  0.00  0.00     0.041 C 
BRANCH   3   4
HETATM    4  C   UNK N   1      26.723  23.274  -6.008  0.00  0.00     0.030 C 
BRANCH   4   5
HETATM    5  C   UNK N   1      27.991  23.898  -5.506  0.00  0.00    -0.025 C 
HETATM    6  C   UNK N   1      28.165  24.269  -4.231  0.00  0.00    -0.091 C 
HETATM    7  C   UNK N   1      29.540  24.610  -3.774  0.00  0.00     0.042 C 
HETATM    8  C   UNK N   1      27.073  24.152  -3.217  0.00  0.00     0.042 C 
ENDBRANCH   4   5
ENDBRANCH   3   4
ENDBRANCH   2   3
BRANCH   2   9
HETATM    9  C   UNK N   1      25.907  27.251  -5.866  0.00  0.00     0.023 C 
HETATM   10  C   UNK N   1      25.723  27.585  -4.323  0.00  0.00     0.035 C 
HETATM   11  C   UNK N   1      25.939  29.050  -4.032  0.00  0.00    -0.024 C 
HETATM   12  C   UNK N   1      27.045  29.618  -4.527  0.00  0.00    -0.087 C 
HETATM   13  C   UNK N   1      27.336  31.062  -4.315  0.00  0.00     0.043 C 
HETATM   14  C   UNK N   1      27.962  28.783  -5.360  0.00  0.00     0.034 C 
HETATM   15  C   UNK N   1      27.119  28.087  -6.439  0.00  0.00     0.012 C 
ENDBRANCH   2   9
BRANCH   2  16
HETATM   16  O   UNK N   1      24.823  25.320  -5.571  0.00  0.00    -0.390 OA
HETATM   17  H   UNK N   1      24.208  25.848  -5.039  0.00  0.00     0.210 HD
ENDBRANCH   2  16
TORSDOF 5
ENDMDL
MODEL 4
REMARK VINA RESULT:      -5.7     10.936     14.226
REMARK  5 active torsions:
REMARK  status: ('A' for Active; 'I' for Inactive)
REMARK    1  A    between atoms: C_6  and  C_5 
REMARK    2  A    between atoms: C_11  and  C_5 
REMARK    3  A    between atoms: C_15  and  C_11 
REMARK    4  A    between atoms: C_14  and  C_15 
REMARK    5  A    between atoms: C_15  and  O_16 
ROOT
HETATM    1  C   UNK N   1      28.359  26.435  -4.080  0.00  0.00     0.046 C 
HETATM    2  C   UNK N   1      27.084  25.602  -3.992  0.00  0.00     0.058 C 
ENDROOT
BRANCH   2   3
HETATM    3  C   UNK N   1      26.436  26.973  -3.862  0.00  0.00     0.041 C 
BRANCH   3   4
HETATM    4  C   UNK N   1      25.690  27.514  -5.011  0.00  0.00     0.030 C 
BRANCH   4   5
HETATM    5  C   UNK N   1      25.345  26.458  -6.018  0.00  0.00    -0.025 C 
HETATM    6  C   UNK N   1      26.030  26.285  -7.156  0.00  0.00    -0.091 C 
HETATM    7  C   UNK N   1      25.793  25.045  -7.944  0.00  0.00     0.042 C 
HETATM    8  C   UNK N   1      27.158  27.186  -7.546  0.00  0.00     0.042 C 
ENDBRANCH   4   5
ENDBRANCH   3   4
ENDBRANCH   2   3
BRANCH   2   9
HETATM    9  C   UNK N   1      27.775  24.141  -4.130  0.00  0.00     0.023 C 
HETATM   10  C   UNK N   1      28.832  23.919  -5.296  0.00  0.00     0.035 C 
HETATM   11  C   UNK N   1      29.520  22.580  -5.188  0.00  0.00    -0.024 C 
HETATM   12  C   UNK N   1      30.030  22.246  -3.996  0.00  0.00    -0.087 C 
HETATM   13  C   UNK N   1      30.707  20.938  -3.782  0.00  0.00     0.043 C 
HETATM   14  C   UNK N   1      29.850  23.193  -2.855  0.00  0.00     0.034 C 
HETATM   15  C   UNK N   1      28.362  23.566  -2.780  0.00  0.00     0.012 C 
ENDBRANCH   2   9
BRANCH   2  16
HETATM   16  O   UNK N   1      26.354  25.330  -2.882  0.00  0.00    -0.390 OA
HETATM   17  H   UNK N   1      26.052  25.910  -2.166  0.00  0.00     0.210 HD
ENDBRANCH   2  16
TORSDOF 5
ENDMDL
MODEL 5
REMARK VINA RESULT:      -5.7     10.278     13.384
REMARK  5 active torsions:
REMARK  status: ('A' for Active; 'I' for Inactive)
REMARK    1  A    between atoms: C_6  and  C_5 
REMARK    2  A    between atoms: C_11  and  C_5 
REMARK    3  A    between atoms: C_15  and  C_11 
REMARK    4  A    between atoms: C_14  and  C_15 
REMARK    5  A    between atoms: C_15  and  O_16 
ROOT
HETATM    1  C   UNK N   1      27.817  25.782  -4.240  0.00  0.00     0.046 C 
HETATM    2  C   UNK N   1      27.521  24.335  -3.859  0.00  0.00     0.058 C 
ENDROOT
BRANCH   2   3
HETATM    3  C   UNK N   1      26.083  24.779  -4.086  0.00  0.00     0.041 C 
BRANCH   3   4
HETATM    4  C   UNK N   1      25.490  24.599  -5.422  0.00  0.00     0.030 C 
BRANCH   4   5
HETATM    5  C   UNK N   1      25.922  23.319  -6.072  0.00  0.00    -0.025 C 
HETATM    6  C   UNK N   1      26.710  23.281  -7.154  0.00  0.00    -0.091 C 
HETATM    7  C   UNK N   1      27.310  21.978  -7.549  0.00  0.00     0.042 C 
HETATM    8  C   UNK N   1      27.166  24.527  -7.844  0.00  0.00     0.042 C 
ENDBRANCH   4   5
ENDBRANCH   3   4
ENDBRANCH   2   3
BRANCH   2   9
HETATM    9  C   UNK N   1      29.054  23.863  -3.616  0.00  0.00     0.023 C 
HETATM   10  C   UNK N   1      29.407  23.140  -2.246  0.00  0.00     0.035 C 
HETATM   11  C   UNK N   1      30.815  22.600  -2.237  0.00  0.00    -0.024 C 
HETATM   12  C   UNK N   1      31.197  21.865  -3.289  0.00  0.00    -0.087 C 
HETATM   13  C   UNK N   1      32.574  21.307  -3.385  0.00  0.00     0.043 C 
HETATM   14  C   UNK N   1      30.227  21.666  -4.407  0.00  0.00     0.034 C 
HETATM   15  C   UNK N   1      29.683  23.044  -4.813  0.00  0.00     0.012 C 
ENDBRANCH   2   9
BRANCH   2  16
HETATM   16  O   UNK N   1      27.025  23.879  -2.682  0.00  0.00    -0.390 OA
HETATM   17  H   UNK N   1      27.469  23.677  -1.844  0.00  0.00     0.210 HD
ENDBRANCH   2  16
TORSDOF 5
ENDMDL
MODEL 6
REMARK VINA RESULT:      -5.5      1.923      6.497
REMARK  5 active torsions:
REMARK  status: ('A' for Active; 'I' for Inactive)
REMARK    1  A    between atoms: C_6  and  C_5 
REMARK    2  A    between atoms: C_11  and  C_5 
REMARK    3  A    between atoms: C_15  and  C_11 
REMARK    4  A    between atoms: C_14  and  C_15 
REMARK    5  A    between atoms: C_15  and  O_16 
ROOT
HETATM    1  C   UNK N   1      29.715  15.749   5.004  0.00  0.00     0.046 C 
HETATM    2  C   UNK N   1      30.220  17.183   5.130  0.00  0.00     0.058 C 
ENDROOT
BRANCH   2   3
HETATM    3  C   UNK N   1      29.001  17.476   4.267  0.00  0.00     0.041 C 
BRANCH   3   4
HETATM    4  C   UNK N   1      27.746  17.875   4.928  0.00  0.00     0.030 C 
BRANCH   4   5
HETATM    5  C   UNK N   1      27.888  19.152   5.700  0.00  0.00    -0.025 C 
HETATM    6  C   UNK N   1      27.398  20.322   5.270  0.00  0.00    -0.091 C 
HETATM    7  C   UNK N   1      27.339  21.460   6.226  0.00  0.00     0.042 C 
HETATM    8  C   UNK N   1      26.726  20.457   3.941  0.00  0.00     0.042 C 
ENDBRANCH   4   5
ENDBRANCH   3   4
ENDBRANCH   2   3
BRANCH   2   9
HETATM    9  C   UNK N   1      31.520  16.870   6.048  0.00  0.00     0.023 C 
HETATM   10  C   UNK N   1      32.913  17.499   5.613  0.00  0.00     0.035 C 
HETATM   11  C   UNK N   1      33.984  17.275   6.652  0.00  0.00    -0.024 C 
HETATM   12  C   UNK N   1      33.684  17.584   7.920  0.00  0.00    -0.087 C 
HETATM   13  C   UNK N   1      34.664  17.378   9.021  0.00  0.00     0.043 C 
HETATM   14  C   UNK N   1      32.309  18.085   8.223  0.00  0.00     0.034 C 
HETATM   15  C   UNK N   1      31.301  17.111   7.595  0.00  0.00     0.012 C 
ENDBRANCH   2   9
BRANCH   2  16
HETATM   16  O   UNK N   1      30.863  17.915   4.186  0.00  0.00    -0.390 OA
HETATM   17  H   UNK N   1      31.132  17.686   3.283  0.00  0.00     0.210 HD
ENDBRANCH   2  16
TORSDOF 5
ENDMDL
MODEL 7
REMARK VINA RESULT:      -5.5     10.524     12.940
REMARK  5 active torsions:
REMARK  status: ('A' for Active; 'I' for Inactive)
REMARK    1  A    between atoms: C_6  and  C_5 
REMARK    2  A    between atoms: C_11  and  C_5 
REMARK    3  A    between atoms: C_15  and  C_11 
REMARK    4  A    between atoms: C_14  and  C_15 
REMARK    5  A    between atoms: C_15  and  O_16 
ROOT
HETATM    1  C   UNK N   1      30.121  23.523  -4.486  0.00  0.00     0.046 C 
HETATM    2  C   UNK N   1      29.789  22.871  -3.148  0.00  0.00     0.058 C 
ENDROOT
BRANCH   2   3
HETATM    3  C   UNK N   1      28.926  24.114  -2.984  0.00  0.00     0.041 C 
BRANCH   3   4
HETATM    4  C   UNK N   1      27.462  23.973  -3.061  0.00  0.00     0.030 C 
BRANCH   4   5
HETATM    5  C   UNK N   1      26.815  25.116  -3.784  0.00  0.00    -0.025 C 
HETATM    6  C   UNK N   1      26.148  24.966  -4.936  0.00  0.00    -0.091 C 
HETATM    7  C   UNK N   1      25.309  26.095  -5.421  0.00  0.00     0.042 C 
HETATM    8  C   UNK N   1      26.057  23.645  -5.630  0.00  0.00     0.042 C 
ENDBRANCH   4   5
ENDBRANCH   3   4
ENDBRANCH   2   3
BRANCH   2   9
HETATM    9  C   UNK N   1      30.710  21.548  -3.322  0.00  0.00     0.023 C 
HETATM   10  C   UNK N   1      30.783  20.869  -4.757  0.00  0.00     0.035 C 
HETATM   11  C   UNK N   1      31.811  19.767  -4.810  0.00  0.00    -0.024 C 
HETATM   12  C   UNK N   1      33.033  20.043  -4.338  0.00  0.00    -0.087 C 
HETATM   13  C   UNK N   1      34.110  19.015  -4.324  0.00  0.00     0.043 C 
HETATM   14  C   UNK N   1      33.282  21.398  -3.759  0.00  0.00     0.034 C 
HETATM   15  C   UNK N   1      32.171  21.687  -2.737  0.00  0.00     0.012 C 
ENDBRANCH   2   9
BRANCH   2  16
HETATM   16  O   UNK N   1      30.251  23.228  -1.922  0.00  0.00    -0.390 OA
HETATM   17  H   UNK N   1      30.118  24.039  -1.408  0.00  0.00     0.210 HD
ENDBRANCH   2  16
TORSDOF 5
ENDMDL
MODEL 8
REMARK VINA RESULT:      -5.5      1.297      1.865
REMARK  5 active torsions:
REMARK  status: ('A' for Active; 'I' for Inactive)
REMARK    1  A    between atoms: C_6  and  C_5 
REMARK    2  A    between atoms: C_11  and  C_5 
REMARK    3  A    between atoms: C_15  and  C_11 
REMARK    4  A    between atoms: C_14  and  C_15 
REMARK    5  A    between atoms: C_15  and  O_16 
ROOT
HETATM    1  C   UNK N   1      28.581  16.378   5.904  0.00  0.00     0.046 C 
HETATM    2  C   UNK N   1      28.931  17.859   6.003  0.00  0.00     0.058 C 
ENDROOT
BRANCH   2   3
HETATM    3  C   UNK N   1      29.788  17.374   7.164  0.00  0.00     0.041 C 
BRANCH   3   4
HETATM    4  C   UNK N   1      31.067  16.706   6.868  0.00  0.00     0.030 C 
BRANCH   4   5
HETATM    5  C   UNK N   1      32.189  17.215   7.722  0.00  0.00    -0.025 C 
HETATM    6  C   UNK N   1      33.378  17.578   7.224  0.00  0.00    -0.091 C 
HETATM    7  C   UNK N   1      34.315  18.330   8.102  0.00  0.00     0.042 C 
HETATM    8  C   UNK N   1      33.704  17.435   5.771  0.00  0.00     0.042 C 
ENDBRANCH   4   5
ENDBRANCH   3   4
ENDBRANCH   2   3
BRANCH   2   9
HETATM    9  C   UNK N   1      28.017  18.377   4.768  0.00  0.00     0.023 C 
HETATM   10  C   UNK N   1      26.579  17.729   4.577  0.00  0.00     0.035 C 
HETATM   11  C   UNK N   1      25.779  18.432   3.508  0.00  0.00    -0.024 C 
HETATM   12  C   UNK N   1      25.709  19.767   3.572  0.00  0.00    -0.087 C 
HETATM   13  C   UNK N   1      24.964  20.553   2.550  0.00  0.00     0.043 C 
HETATM   14  C   UNK N   1      26.453  20.467   4.661  0.00  0.00     0.034 C 
HETATM   15  C   UNK N   1      27.899  19.948   4.656  0.00  0.00     0.012 C 
ENDBRANCH   2   9
BRANCH   2  16
HETATM   16  O   UNK N   1      28.480  18.751   6.921  0.00  0.00    -0.390 OA
HETATM   17  H   UNK N   1      28.958  19.272   7.585  0.00  0.00     0.210 HD
ENDBRANCH   2  16
TORSDOF 5
ENDMDL
MODEL 9
REMARK VINA RESULT:      -5.3      8.503     12.542
REMARK  5 active torsions:
REMARK  status: ('A' for Active; 'I' for Inactive)
REMARK    1  A    between atoms: C_6  and  C_5 
REMARK    2  A    between atoms: C_11  and  C_5 
REMARK    3  A    between atoms: C_15  and  C_11 
REMARK    4  A    between atoms: C_14  and  C_15 
REMARK    5  A    between atoms: C_15  and  O_16 
ROOT
HETATM    1  C   UNK N   1      35.174  12.974  12.707  0.00  0.00     0.046 C 
HETATM    2  C   UNK N   1      35.732  13.702  13.925  0.00  0.00     0.058 C 
ENDROOT
BRANCH   2   3
HETATM    3  C   UNK N   1      36.044  14.775  12.891  0.00  0.00     0.041 C 
BRANCH   3   4
HETATM    4  C   UNK N   1      36.057  14.402  11.466  0.00  0.00     0.030 C 
BRANCH   4   5
HETATM    5  C   UNK N   1      35.919  15.590  10.563  0.00  0.00    -0.025 C 
HETATM    6  C   UNK N   1      34.796  15.865   9.886  0.00  0.00    -0.091 C 
HETATM    7  C   UNK N   1      34.661  17.202   9.249  0.00  0.00     0.042 C 
HETATM    8  C   UNK N   1      33.607  14.958   9.926  0.00  0.00     0.042 C 
ENDBRANCH   4   5
ENDBRANCH   3   4
ENDBRANCH   2   3
BRANCH   2   9
HETATM    9  C   UNK N   1      35.402  12.558  15.026  0.00  0.00     0.023 C 
HETATM   10  C   UNK N   1      36.605  11.676  15.574  0.00  0.00     0.035 C 
HETATM   11  C   UNK N   1      36.179  10.786  16.715  0.00  0.00    -0.024 C 
HETATM   12  C   UNK N   1      35.495  11.355  17.716  0.00  0.00    -0.087 C 
HETATM   13  C   UNK N   1      35.011  10.557  18.876  0.00  0.00     0.043 C 
HETATM   14  C   UNK N   1      35.167  12.809  17.616  0.00  0.00     0.034 C 
HETATM   15  C   UNK N   1      34.525  13.056  16.243  0.00  0.00     0.012 C 
ENDBRANCH   2   9
BRANCH   2  16
HETATM   16  O   UNK N   1      37.037  13.871  14.256  0.00  0.00    -0.390 OA
HETATM   17  H   UNK N   1      37.815  13.327  14.058  0.00  0.00     0.210 HD
ENDBRANCH   2  16
TORSDOF 5
ENDMDL
