REMARK  5 active torsions:
REMARK  status: ('A' for Active; 'I' for Inactive)
REMARK    1  A    between atoms: C_6  and  C_5 
REMARK    2  A    between atoms: C_11  and  C_5 
REMARK    3  A    between atoms: C_15  and  C_11 
REMARK    4  A    between atoms: C_14  and  C_15 
REMARK    5  A    between atoms: C_15  and  O_16 
ROOT
HETATM    1  C   UNK N   1       1.736   2.473   0.521  0.00  0.00     0.046 C 
HETATM    2  C   UNK N   1       0.336   2.130   0.022  0.00  0.00     0.058 C 
ENDROOT
BRANCH   2   3
HETATM    3  C   UNK N   1       0.069   3.585   0.379  0.00  0.00     0.041 C 
BRANCH   3   4
HETATM    4  C   UNK N   1       0.061   4.588  -0.700  0.00  0.00     0.030 C 
BRANCH   4   5
HETATM    5  C   UNK N   1       0.287   5.979  -0.189  0.00  0.00    -0.025 C 
HETATM    6  C   UNK N   1       1.507   6.480   0.046  0.00  0.00    -0.091 C 
HETATM    7  C   UNK N   1       1.640   7.944   0.275  0.00  0.00     0.042 C 
HETATM    8  C   UNK N   1       2.745   5.657  -0.119  0.00  0.00     0.042 C 
ENDBRANCH   4   5
ENDBRANCH   3   4
ENDBRANCH   2   3
BRANCH   2   9
HETATM    9  C   UNK N   1       0.620   0.579  -0.357  0.00  0.00     0.023 C 
HETATM   10  C   UNK N   1       1.821  -0.163   0.373  0.00  0.00     0.035 C 
HETATM   11  C   UNK N   1       1.850  -1.638   0.058  0.00  0.00    -0.024 C 
HETATM   12  C   UNK N   1       0.704  -2.317   0.191  0.00  0.00    -0.087 C 
HETATM   13  C   UNK N   1       0.624  -3.771  -0.118  0.00  0.00     0.043 C 
HETATM   14  C   UNK N   1      -0.523  -1.568   0.598  0.00  0.00     0.034 C 
HETATM   15  C   UNK N   1      -0.660  -0.347  -0.324  0.00  0.00     0.012 C 
ENDBRANCH   2   9
BRANCH   2  16
HETATM   16  O   UNK N   1      -0.774   1.911   0.771  0.00  0.00    -0.390 OA
HETATM   17  H   UNK N   1      -1.306   2.520   1.306  0.00  0.00     0.210 HD
ENDBRANCH   2  16
TORSDOF 5
