REMARK  1 active torsions:
REMARK  status: ('A' for Active; 'I' for Inactive)
REMARK    1  A    between atoms: Fe_8  and  Fe_8 
ROOT
HETATM    1  O   UNK N   1       2.288  -2.044   0.000  0.00  0.00    -0.411 OA
HETATM    2  H   UNK N   1       3.258  -2.044   0.000  0.00  0.00     0.205 HD
HETATM    3  H   UNK N   1       1.803  -1.204   0.000  0.00  0.00     0.205 HD
ENDROOT
TORSDOF 1
