MODEL 1
REMARK VINA RESULT:      -9.6      0.000      0.000
REMARK  4 active torsions:
REMARK  status: ('A' for Active; 'I' for Inactive)
REMARK    1  A    between atoms: C_20  and  C_17 
REMARK    2  A    between atoms: C_19  and  O_38 
REMARK    3  A    between atoms: C_25  and  O_33 
REMARK    4  A    between atoms: C_27  and  O_38 
ROOT
HETATM    1  C   UNK N   1      20.471  20.528   2.553  0.00  0.00     0.042 C 
HETATM    2  C   UNK N   1      20.823  19.109   2.133  0.00  0.00     0.152 C 
HETATM    3  C   UNK N   1      19.579  18.382   1.624  0.00  0.00     0.178 C 
HETATM    4  C   UNK N   1      20.009  16.958   1.242  0.00  0.00     0.183 C 
HETATM    5  C   UNK N   1      20.656  16.250   2.442  0.00  0.00     0.204 C 
HETATM    6  C   UNK N   1      21.799  17.112   2.995  0.00  0.00     0.292 C 
HETATM    7  O   UNK N   1      18.598  18.351   2.625  0.00  0.00    -0.390 OA
HETATM    8  O   UNK N   1      19.707  16.038   3.450  0.00  0.00    -0.388 OA
HETATM    9  O   UNK N   1      21.323  18.437   3.259  0.00  0.00    -0.351 OA
HETATM   10  H   UNK N   1      17.914  18.251   3.306  0.00  0.00     0.210 HD
HETATM   11  H   UNK N   1      18.966  15.860   4.048  0.00  0.00     0.210 HD
ENDROOT
BRANCH   4  12
HETATM   12  O   UNK N   1      18.914  16.224   0.782  0.00  0.00    -0.390 OA
HETATM   13  H   UNK N   1      18.534  16.280  -0.109  0.00  0.00     0.210 HD
ENDBRANCH   4  12
BRANCH   6  14
HETATM   14  O   UNK N   1      22.263  16.464   4.192  0.00  0.00    -0.349 OA
BRANCH  14  15
HETATM   15  C   UNK N   1      23.604  16.802   4.459  0.00  0.00     0.147 C 
HETATM   16  C   UNK N   1      23.832  18.240   4.871  0.00  0.00     0.037 C 
HETATM   17  C   UNK N   1      25.295  18.248   5.337  0.00  0.00     0.017 C 
HETATM   18  C   UNK N   1      26.258  17.910   4.174  0.00  0.00    -0.017 C 
HETATM   19  C   UNK N   1      26.462  19.227   3.424  0.00  0.00     0.020 C 
HETATM   20  C   UNK N   1      25.720  16.900   3.179  0.00  0.00    -0.072 C 
HETATM   21  C   UNK N   1      27.622  17.382   4.638  0.00  0.00     0.005 C 
HETATM   22  C   UNK N   1      26.660  15.916   2.549  0.00  0.00     0.035 C 
HETATM   23  C   UNK N   1      24.485  16.458   3.292  0.00  0.00     0.008 C 
HETATM   24  C   UNK N   1      27.149  15.013   3.708  0.00  0.00     0.012 C 
HETATM   25  C   UNK N   1      27.784  15.817   4.879  0.00  0.00     0.026 C 
HETATM   26  C   UNK N   1      29.327  15.567   4.903  0.00  0.00     0.070 C 
HETATM   27  C   UNK N   1      30.005  14.231   5.284  0.00  0.00     0.040 C 
HETATM   28  C   UNK N   1      29.996  16.493   5.935  0.00  0.00    -0.005 C 
HETATM   29  O   UNK N   1      29.767  15.846   3.595  0.00  0.00    -0.389 OA
HETATM   30  C   UNK N   1      31.457  14.645   5.760  0.00  0.00     0.013 C 
HETATM   31  C   UNK N   1      31.460  16.182   5.646  0.00  0.00     0.032 C 
HETATM   32  C   UNK N   1      29.604  16.110   7.387  0.00  0.00     0.019 C 
HETATM   33  C   UNK N   1      29.664  17.976   5.768  0.00  0.00     0.013 C 
HETATM   34  C   UNK N   1      28.179  18.196   5.788  0.00  0.00     0.007 C 
HETATM   35  H   UNK N   1      30.085  16.182   2.742  0.00  0.00     0.210 HD
BRANCH  31  36
HETATM   36  C   UNK N   1      32.330  17.195   6.351  0.00  0.00    -0.030 A 
HETATM   37  C   UNK N   1      32.112  17.324   7.735  0.00  0.00     0.015 A 
HETATM   38  C   UNK N   1      33.100  17.832   8.562  0.00  0.00     0.083 A 
HETATM   39  C   UNK N   1      34.307  18.194   7.986  0.00  0.00     0.287 A 
HETATM   40  O   UNK N   1      35.211  18.605   8.703  0.00  0.00    -0.260 OA
HETATM   41  O   UNK N   1      34.501  18.090   6.674  0.00  0.00    -0.287 OA
HETATM   42  C   UNK N   1      33.576  17.579   5.854  0.00  0.00     0.153 A 
ENDBRANCH  31  36
ENDBRANCH  14  15
ENDBRANCH   6  14
TORSDOF 4
ENDMDL
MODEL 2
REMARK VINA RESULT:      -9.4      4.313      7.189
REMARK  4 active torsions:
REMARK  status: ('A' for Active; 'I' for Inactive)
REMARK    1  A    between atoms: C_20  and  C_17 
REMARK    2  A    between atoms: C_19  and  O_38 
REMARK    3  A    between atoms: C_25  and  O_33 
REMARK    4  A    between atoms: C_27  and  O_38 
ROOT
HETATM    1  C   UNK N   1      24.567  16.831   4.007  0.00  0.00     0.042 C 
HETATM    2  C   UNK N   1      25.589  17.589   4.841  0.00  0.00     0.152 C 
HETATM    3  C   UNK N   1      25.373  19.096   4.705  0.00  0.00     0.178 C 
HETATM    4  C   UNK N   1      26.449  19.788   5.554  0.00  0.00     0.183 C 
HETATM    5  C   UNK N   1      27.852  19.351   5.107  0.00  0.00     0.204 C 
HETATM    6  C   UNK N   1      27.945  17.820   5.123  0.00  0.00     0.292 C 
HETATM    7  O   UNK N   1      25.481  19.477   3.361  0.00  0.00    -0.390 OA
HETATM    8  O   UNK N   1      28.115  19.817   3.813  0.00  0.00    -0.388 OA
HETATM    9  O   UNK N   1      26.867  17.260   4.363  0.00  0.00    -0.351 OA
HETATM   10  H   UNK N   1      25.609  19.796   2.453  0.00  0.00     0.210 HD
HETATM   11  H   UNK N   1      28.238  20.253   2.956  0.00  0.00     0.210 HD
ENDROOT
BRANCH   4  12
HETATM   12  O   UNK N   1      26.324  21.176   5.463  0.00  0.00    -0.390 OA
HETATM   13  H   UNK N   1      26.807  21.820   6.004  0.00  0.00     0.210 HD
ENDBRANCH   4  12
BRANCH   6  14
HETATM   14  O   UNK N   1      29.224  17.477   4.561  0.00  0.00    -0.349 OA
BRANCH  14  15
HETATM   15  C   UNK N   1      30.098  16.998   5.557  0.00  0.00     0.147 C 
HETATM   16  C   UNK N   1      29.801  17.486   6.958  0.00  0.00     0.037 C 
HETATM   17  C   UNK N   1      30.716  16.622   7.836  0.00  0.00     0.017 C 
HETATM   18  C   UNK N   1      32.209  16.891   7.528  0.00  0.00    -0.017 C 
HETATM   19  C   UNK N   1      32.568  18.140   8.335  0.00  0.00     0.020 C 
HETATM   20  C   UNK N   1      32.511  17.188   6.072  0.00  0.00    -0.072 C 
HETATM   21  C   UNK N   1      33.139  15.743   7.942  0.00  0.00     0.005 C 
HETATM   22  C   UNK N   1      33.796  16.699   5.473  0.00  0.00     0.035 C 
HETATM   23  C   UNK N   1      31.527  17.296   5.204  0.00  0.00     0.008 C 
HETATM   24  C   UNK N   1      33.692  15.153   5.482  0.00  0.00     0.012 C 
HETATM   25  C   UNK N   1      33.405  14.572   6.897  0.00  0.00     0.026 C 
HETATM   26  C   UNK N   1      34.680  13.838   7.425  0.00  0.00     0.070 C 
HETATM   27  C   UNK N   1      35.243  12.515   6.856  0.00  0.00     0.040 C 
HETATM   28  C   UNK N   1      34.478  13.416   8.891  0.00  0.00    -0.005 C 
HETATM   29  O   UNK N   1      35.726  14.772   7.295  0.00  0.00    -0.389 OA
HETATM   30  C   UNK N   1      36.075  11.892   8.050  0.00  0.00     0.013 C 
HETATM   31  C   UNK N   1      35.876  12.896   9.204  0.00  0.00     0.032 C 
HETATM   32  C   UNK N   1      33.408  12.299   9.024  0.00  0.00     0.019 C 
HETATM   33  C   UNK N   1      34.046  14.547   9.825  0.00  0.00     0.013 C 
HETATM   34  C   UNK N   1      32.799  15.211   9.318  0.00  0.00     0.007 C 
HETATM   35  H   UNK N   1      36.405  15.463   7.345  0.00  0.00     0.210 HD
BRANCH  31  36
HETATM   36  C   UNK N   1      36.005  12.685  10.693  0.00  0.00    -0.030 A 
HETATM   37  C   UNK N   1      35.893  11.351  11.129  0.00  0.00     0.015 A 
HETATM   38  C   UNK N   1      36.436  10.955  12.339  0.00  0.00     0.083 A 
HETATM   39  C   UNK N   1      37.102  11.906  13.096  0.00  0.00     0.287 A 
HETATM   40  O   UNK N   1      37.628  11.570  14.149  0.00  0.00    -0.260 OA
HETATM   41  O   UNK N   1      37.187  13.171  12.689  0.00  0.00    -0.287 OA
HETATM   42  C   UNK N   1      36.695  13.577  11.514  0.00  0.00     0.153 A 
ENDBRANCH  31  36
ENDBRANCH  14  15
ENDBRANCH   6  14
TORSDOF 4
ENDMDL
MODEL 3
REMARK VINA RESULT:      -9.2     11.572     16.943
REMARK  4 active torsions:
REMARK  status: ('A' for Active; 'I' for Inactive)
REMARK    1  A    between atoms: C_20  and  C_17 
REMARK    2  A    between atoms: C_19  and  O_38 
REMARK    3  A    between atoms: C_25  and  O_33 
REMARK    4  A    between atoms: C_27  and  O_38 
ROOT
HETATM    1  C   UNK N   1      33.607  13.154   9.044  0.00  0.00     0.042 C 
HETATM    2  C   UNK N   1      34.085  14.130  10.109  0.00  0.00     0.152 C 
HETATM    3  C   UNK N   1      34.506  15.451   9.467  0.00  0.00     0.178 C 
HETATM    4  C   UNK N   1      34.993  16.371  10.597  0.00  0.00     0.183 C 
HETATM    5  C   UNK N   1      36.135  15.705  11.380  0.00  0.00     0.204 C 
HETATM    6  C   UNK N   1      35.690  14.318  11.861  0.00  0.00     0.292 C 
HETATM    7  O   UNK N   1      35.528  15.229   8.535  0.00  0.00    -0.390 OA
HETATM    8  O   UNK N   1      37.266  15.571  10.565  0.00  0.00    -0.388 OA
HETATM    9  O   UNK N   1      35.192  13.557  10.755  0.00  0.00    -0.351 OA
HETATM   10  H   UNK N   1      36.278  15.132   7.926  0.00  0.00     0.210 HD
HETATM   11  H   UNK N   1      38.019  15.602   9.956  0.00  0.00     0.210 HD
ENDROOT
BRANCH   4  12
HETATM   12  O   UNK N   1      35.412  17.598  10.081  0.00  0.00    -0.390 OA
HETATM   13  H   UNK N   1      35.309  18.457  10.520  0.00  0.00     0.210 HD
ENDBRANCH   4  12
BRANCH   6  14
HETATM   14  O   UNK N   1      36.844  13.698  12.456  0.00  0.00    -0.349 OA
BRANCH  14  15
HETATM   15  C   UNK N   1      36.461  12.707  13.381  0.00  0.00     0.147 C 
HETATM   16  C   UNK N   1      35.926  11.431  12.768  0.00  0.00     0.037 C 
HETATM   17  C   UNK N   1      35.843  10.471  13.962  0.00  0.00     0.017 C 
HETATM   18  C   UNK N   1      34.829  10.973  15.018  0.00  0.00    -0.017 C 
HETATM   19  C   UNK N   1      33.461  10.508  14.515  0.00  0.00     0.020 C 
HETATM   20  C   UNK N   1      34.768  12.480  15.172  0.00  0.00    -0.072 C 
HETATM   21  C   UNK N   1      35.066  10.399  16.421  0.00  0.00     0.005 C 
HETATM   22  C   UNK N   1      34.530  13.071  16.529  0.00  0.00     0.035 C 
HETATM   23  C   UNK N   1      35.472  13.252  14.371  0.00  0.00     0.008 C 
HETATM   24  C   UNK N   1      35.781  12.702  17.364  0.00  0.00     0.012 C 
HETATM   25  C   UNK N   1      36.062  11.172  17.394  0.00  0.00     0.026 C 
HETATM   26  C   UNK N   1      35.750  10.615  18.821  0.00  0.00     0.070 C 
HETATM   27  C   UNK N   1      36.574  10.920  20.093  0.00  0.00     0.040 C 
HETATM   28  C   UNK N   1      35.846   9.079  18.821  0.00  0.00    -0.005 C 
HETATM   29  O   UNK N   1      34.444  11.052  19.112  0.00  0.00    -0.389 OA
HETATM   30  C   UNK N   1      36.279   9.700  21.058  0.00  0.00     0.013 C 
HETATM   31  C   UNK N   1      35.348   8.791  20.232  0.00  0.00     0.032 C 
HETATM   32  C   UNK N   1      37.307   8.596  18.619  0.00  0.00     0.019 C 
HETATM   33  C   UNK N   1      35.005   8.389  17.746  0.00  0.00     0.013 C 
HETATM   34  C   UNK N   1      35.350   8.912  16.382  0.00  0.00     0.007 C 
HETATM   35  H   UNK N   1      33.498  11.225  19.243  0.00  0.00     0.210 HD
BRANCH  31  36
HETATM   36  C   UNK N   1      35.080   7.311  20.371  0.00  0.00    -0.030 A 
HETATM   37  C   UNK N   1      36.130   6.554  20.921  0.00  0.00     0.015 A 
HETATM   38  C   UNK N   1      35.879   5.333  21.525  0.00  0.00     0.083 A 
HETATM   39  C   UNK N   1      34.567   4.892  21.582  0.00  0.00     0.287 A 
HETATM   40  O   UNK N   1      34.315   3.837  22.149  0.00  0.00    -0.260 OA
HETATM   41  O   UNK N   1      33.580   5.603  21.041  0.00  0.00    -0.287 OA
HETATM   42  C   UNK N   1      33.788   6.796  20.475  0.00  0.00     0.153 A 
ENDBRANCH  31  36
ENDBRANCH  14  15
ENDBRANCH   6  14
TORSDOF 4
ENDMDL
MODEL 4
REMARK VINA RESULT:      -9.2      8.586     13.702
REMARK  4 active torsions:
REMARK  status: ('A' for Active; 'I' for Inactive)
REMARK    1  A    between atoms: C_20  and  C_17 
REMARK    2  A    between atoms: C_19  and  O_38 
REMARK    3  A    between atoms: C_25  and  O_33 
REMARK    4  A    between atoms: C_27  and  O_38 
ROOT
HETATM    1  C   UNK N   1      31.274  13.903   5.639  0.00  0.00     0.042 C 
HETATM    2  C   UNK N   1      32.161  14.832   6.454  0.00  0.00     0.152 C 
HETATM    3  C   UNK N   1      32.632  16.005   5.596  0.00  0.00     0.178 C 
HETATM    4  C   UNK N   1      33.534  16.880   6.478  0.00  0.00     0.183 C 
HETATM    5  C   UNK N   1      34.701  16.056   7.041  0.00  0.00     0.204 C 
HETATM    6  C   UNK N   1      34.157  14.813   7.757  0.00  0.00     0.292 C 
HETATM    7  O   UNK N   1      33.338  15.532   4.481  0.00  0.00    -0.390 OA
HETATM    8  O   UNK N   1      35.555  15.656   6.006  0.00  0.00    -0.388 OA
HETATM    9  O   UNK N   1      33.276  14.096   6.884  0.00  0.00    -0.351 OA
HETATM   10  H   UNK N   1      33.885  15.254   3.730  0.00  0.00     0.210 HD
HETATM   11  H   UNK N   1      36.128  15.503   5.239  0.00  0.00     0.210 HD
ENDROOT
BRANCH   4  12
HETATM   12  O   UNK N   1      34.018  17.969   5.751  0.00  0.00    -0.390 OA
HETATM   13  H   UNK N   1      34.566  18.685   6.109  0.00  0.00     0.210 HD
ENDBRANCH   4  12
BRANCH   6  14
HETATM   14  O   UNK N   1      35.297  14.019   8.131  0.00  0.00    -0.349 OA
BRANCH  14  15
HETATM   15  C   UNK N   1      35.285  13.744   9.513  0.00  0.00     0.147 C 
HETATM   16  C   UNK N   1      34.651  14.813  10.374  0.00  0.00     0.037 C 
HETATM   17  C   UNK N   1      34.546  14.145  11.751  0.00  0.00     0.017 C 
HETATM   18  C   UNK N   1      35.945  13.816  12.325  0.00  0.00    -0.017 C 
HETATM   19  C   UNK N   1      36.433  15.117  12.965  0.00  0.00     0.020 C 
HETATM   20  C   UNK N   1      36.974  13.404  11.290  0.00  0.00    -0.072 C 
HETATM   21  C   UNK N   1      35.930  12.711  13.390  0.00  0.00     0.005 C 
HETATM   22  C   UNK N   1      37.995  12.363  11.641  0.00  0.00     0.035 C 
HETATM   23  C   UNK N   1      36.671  13.441  10.010  0.00  0.00     0.008 C 
HETATM   24  C   UNK N   1      37.192  11.055  11.851  0.00  0.00     0.012 C 
HETATM   25  C   UNK N   1      36.061  11.199  12.910  0.00  0.00     0.026 C 
HETATM   26  C   UNK N   1      36.449  10.397  14.195  0.00  0.00     0.070 C 
HETATM   27  C   UNK N   1      36.519   8.855  14.292  0.00  0.00     0.040 C 
HETATM   28  C   UNK N   1      35.433  10.675  15.317  0.00  0.00    -0.005 C 
HETATM   29  O   UNK N   1      37.737  10.849  14.539  0.00  0.00    -0.389 OA
HETATM   30  C   UNK N   1      36.319   8.547  15.832  0.00  0.00     0.013 C 
HETATM   31  C   UNK N   1      36.111   9.937  16.465  0.00  0.00     0.032 C 
HETATM   32  C   UNK N   1      34.040  10.072  14.991  0.00  0.00     0.019 C 
HETATM   33  C   UNK N   1      35.208  12.157  15.619  0.00  0.00     0.013 C 
HETATM   34  C   UNK N   1      34.799  12.898  14.380  0.00  0.00     0.007 C 
HETATM   35  H   UNK N   1      38.552  11.270  14.856  0.00  0.00     0.210 HD
BRANCH  31  36
HETATM   36  C   UNK N   1      35.435  10.310  17.763  0.00  0.00    -0.030 A 
HETATM   37  C   UNK N   1      34.401   9.449  18.177  0.00  0.00     0.015 A 
HETATM   38  C   UNK N   1      34.027   9.384  19.508  0.00  0.00     0.083 A 
HETATM   39  C   UNK N   1      34.709  10.179  20.416  0.00  0.00     0.287 A 
HETATM   40  O   UNK N   1      34.425  10.107  21.604  0.00  0.00    -0.260 OA
HETATM   41  O   UNK N   1      35.672  11.007  20.016  0.00  0.00    -0.287 OA
HETATM   42  C   UNK N   1      36.072  11.072  18.741  0.00  0.00     0.153 A 
ENDBRANCH  31  36
ENDBRANCH  14  15
ENDBRANCH   6  14
TORSDOF 4
ENDMDL
MODEL 5
REMARK VINA RESULT:      -9.2      2.779      4.352
REMARK  4 active torsions:
REMARK  status: ('A' for Active; 'I' for Inactive)
REMARK    1  A    between atoms: C_20  and  C_17 
REMARK    2  A    between atoms: C_19  and  O_38 
REMARK    3  A    between atoms: C_25  and  O_33 
REMARK    4  A    between atoms: C_27  and  O_38 
ROOT
HETATM    1  C   UNK N   1      23.128  13.424   0.200  0.00  0.00     0.042 C 
HETATM    2  C   UNK N   1      21.828  12.963   0.844  0.00  0.00     0.152 C 
HETATM    3  C   UNK N   1      20.697  13.934   0.507  0.00  0.00     0.178 C 
HETATM    4  C   UNK N   1      19.431  13.416   1.205  0.00  0.00     0.183 C 
HETATM    5  C   UNK N   1      19.665  13.285   2.718  0.00  0.00     0.204 C 
HETATM    6  C   UNK N   1      20.908  12.422   2.975  0.00  0.00     0.292 C 
HETATM    7  O   UNK N   1      21.018  15.222   0.957  0.00  0.00    -0.390 OA
HETATM    8  O   UNK N   1      19.852  14.549   3.290  0.00  0.00    -0.388 OA
HETATM    9  O   UNK N   1      22.019  12.940   2.234  0.00  0.00    -0.351 OA
HETATM   10  H   UNK N   1      21.171  16.114   1.305  0.00  0.00     0.210 HD
HETATM   11  H   UNK N   1      19.883  15.465   3.605  0.00  0.00     0.210 HD
ENDROOT
BRANCH   4  12
HETATM   12  O   UNK N   1      18.353  14.267   0.956  0.00  0.00    -0.390 OA
HETATM   13  H   UNK N   1      18.388  15.078   0.425  0.00  0.00     0.210 HD
ENDBRANCH   4  12
BRANCH   6  14
HETATM   14  O   UNK N   1      21.150  12.460   4.392  0.00  0.00    -0.349 OA
BRANCH  14  15
HETATM   15  C   UNK N   1      22.448  12.933   4.667  0.00  0.00     0.147 C 
HETATM   16  C   UNK N   1      23.409  11.894   5.201  0.00  0.00     0.037 C 
HETATM   17  C   UNK N   1      24.766  12.610   5.159  0.00  0.00     0.017 C 
HETATM   18  C   UNK N   1      24.787  13.833   6.106  0.00  0.00    -0.017 C 
HETATM   19  C   UNK N   1      25.101  13.264   7.491  0.00  0.00     0.020 C 
HETATM   20  C   UNK N   1      23.470  14.577   6.209  0.00  0.00    -0.072 C 
HETATM   21  C   UNK N   1      25.851  14.876   5.742  0.00  0.00     0.005 C 
HETATM   22  C   UNK N   1      23.479  16.069   6.364  0.00  0.00     0.035 C 
HETATM   23  C   UNK N   1      22.402  14.113   5.597  0.00  0.00     0.008 C 
HETATM   24  C   UNK N   1      24.068  16.617   5.041  0.00  0.00     0.012 C 
HETATM   25  C   UNK N   1      25.464  16.019   4.703  0.00  0.00     0.026 C 
HETATM   26  C   UNK N   1      26.558  17.121   4.885  0.00  0.00     0.070 C 
HETATM   27  C   UNK N   1      26.728  18.362   3.977  0.00  0.00     0.040 C 
HETATM   28  C   UNK N   1      27.960  16.504   4.734  0.00  0.00    -0.005 C 
HETATM   29  O   UNK N   1      26.355  17.634   6.180  0.00  0.00    -0.389 OA
HETATM   30  C   UNK N   1      28.246  18.776   4.154  0.00  0.00     0.013 C 
HETATM   31  C   UNK N   1      28.813  17.709   5.112  0.00  0.00     0.032 C 
HETATM   32  C   UNK N   1      28.230  16.045   3.276  0.00  0.00     0.019 C 
HETATM   33  C   UNK N   1      28.221  15.292   5.629  0.00  0.00     0.013 C 
HETATM   34  C   UNK N   1      27.181  14.232   5.409  0.00  0.00     0.007 C 
HETATM   35  H   UNK N   1      26.308  17.876   7.119  0.00  0.00     0.210 HD
BRANCH  31  36
HETATM   36  C   UNK N   1      30.241  17.262   5.316  0.00  0.00    -0.030 A 
HETATM   37  C   UNK N   1      31.111  17.505   4.237  0.00  0.00     0.015 A 
HETATM   38  C   UNK N   1      32.479  17.588   4.438  0.00  0.00     0.083 A 
HETATM   39  C   UNK N   1      32.957  17.438   5.730  0.00  0.00     0.287 A 
HETATM   40  O   UNK N   1      34.158  17.549   5.940  0.00  0.00    -0.260 OA
HETATM   41  O   UNK N   1      32.131  17.187   6.744  0.00  0.00    -0.287 OA
HETATM   42  C   UNK N   1      30.804  17.128   6.584  0.00  0.00     0.153 A 
ENDBRANCH  31  36
ENDBRANCH  14  15
ENDBRANCH   6  14
TORSDOF 4
ENDMDL
MODEL 6
REMARK VINA RESULT:      -9.0      1.985     10.702
REMARK  4 active torsions:
REMARK  status: ('A' for Active; 'I' for Inactive)
REMARK    1  A    between atoms: C_20  and  C_17 
REMARK    2  A    between atoms: C_19  and  O_38 
REMARK    3  A    between atoms: C_25  and  O_33 
REMARK    4  A    between atoms: C_27  and  O_38 
ROOT
HETATM    1  C   UNK N   1      34.556  18.611   8.312  0.00  0.00     0.042 C 
HETATM    2  C   UNK N   1      33.452  17.569   8.415  0.00  0.00     0.152 C 
HETATM    3  C   UNK N   1      33.883  16.429   9.338  0.00  0.00     0.178 C 
HETATM    4  C   UNK N   1      32.732  15.413   9.373  0.00  0.00     0.183 C 
HETATM    5  C   UNK N   1      32.395  14.929   7.955  0.00  0.00     0.204 C 
HETATM    6  C   UNK N   1      32.125  16.137   7.048  0.00  0.00     0.292 C 
HETATM    7  O   UNK N   1      35.054  15.832   8.850  0.00  0.00    -0.390 OA
HETATM    8  O   UNK N   1      33.461  14.187   7.431  0.00  0.00    -0.388 OA
HETATM    9  O   UNK N   1      33.218  17.059   7.129  0.00  0.00    -0.351 OA
HETATM   10  H   UNK N   1      35.827  15.350   8.517  0.00  0.00     0.210 HD
HETATM   11  H   UNK N   1      34.209  13.619   7.191  0.00  0.00     0.210 HD
ENDROOT
BRANCH   4  12
HETATM   12  O   UNK N   1      33.063  14.329  10.188  0.00  0.00    -0.390 OA
HETATM   13  H   UNK N   1      33.021  14.319  11.157  0.00  0.00     0.210 HD
ENDBRANCH   4  12
BRANCH   6  14
HETATM   14  O   UNK N   1      31.960  15.624   5.715  0.00  0.00    -0.349 OA
BRANCH  14  15
HETATM   15  C   UNK N   1      30.671  15.910   5.222  0.00  0.00     0.147 C 
HETATM   16  C   UNK N   1      30.632  16.849   4.037  0.00  0.00     0.037 C 
HETATM   17  C   UNK N   1      29.173  16.770   3.568  0.00  0.00     0.017 C 
HETATM   18  C   UNK N   1      28.205  17.302   4.650  0.00  0.00    -0.017 C 
HETATM   19  C   UNK N   1      28.205  18.822   4.478  0.00  0.00     0.020 C 
HETATM   20  C   UNK N   1      28.625  17.007   6.077  0.00  0.00    -0.072 C 
HETATM   21  C   UNK N   1      26.769  16.783   4.501  0.00  0.00     0.005 C 
HETATM   22  C   UNK N   1      27.575  16.709   7.106  0.00  0.00     0.035 C 
HETATM   23  C   UNK N   1      29.783  16.430   6.316  0.00  0.00     0.008 C 
HETATM   24  C   UNK N   1      26.935  15.370   6.664  0.00  0.00     0.012 C 
HETATM   25  C   UNK N   1      26.385  15.409   5.208  0.00  0.00     0.026 C 
HETATM   26  C   UNK N   1      24.822  15.392   5.244  0.00  0.00     0.070 C 
HETATM   27  C   UNK N   1      23.957  14.186   5.674  0.00  0.00     0.040 C 
HETATM   28  C   UNK N   1      24.260  15.615   3.828  0.00  0.00    -0.005 C 
HETATM   29  O   UNK N   1      24.460  16.437   6.115  0.00  0.00    -0.389 OA
HETATM   30  C   UNK N   1      22.563  14.424   4.961  0.00  0.00     0.013 C 
HETATM   31  C   UNK N   1      22.775  15.723   4.156  0.00  0.00     0.032 C 
HETATM   32  C   UNK N   1      24.556  14.409   2.897  0.00  0.00     0.019 C 
HETATM   33  C   UNK N   1      24.799  16.858   3.118  0.00  0.00     0.013 C 
HETATM   34  C   UNK N   1      26.298  16.832   3.062  0.00  0.00     0.007 C 
HETATM   35  H   UNK N   1      24.216  17.247   6.591  0.00  0.00     0.210 HD
BRANCH  31  36
HETATM   36  C   UNK N   1      22.035  16.232   2.943  0.00  0.00    -0.030 A 
HETATM   37  C   UNK N   1      21.737  15.266   1.964  0.00  0.00     0.015 A 
HETATM   38  C   UNK N   1      20.701  15.466   1.067  0.00  0.00     0.083 A 
HETATM   39  C   UNK N   1      19.963  16.634   1.174  0.00  0.00     0.287 A 
HETATM   40  O   UNK N   1      19.016  16.813   0.420  0.00  0.00    -0.260 OA
HETATM   41  O   UNK N   1      20.262  17.554   2.089  0.00  0.00    -0.287 OA
HETATM   42  C   UNK N   1      21.240  17.377   2.985  0.00  0.00     0.153 A 
ENDBRANCH  31  36
ENDBRANCH  14  15
ENDBRANCH   6  14
TORSDOF 4
ENDMDL
MODEL 7
REMARK VINA RESULT:      -9.0      1.908      3.116
REMARK  4 active torsions:
REMARK  status: ('A' for Active; 'I' for Inactive)
REMARK    1  A    between atoms: C_20  and  C_17 
REMARK    2  A    between atoms: C_19  and  O_38 
REMARK    3  A    between atoms: C_25  and  O_33 
REMARK    4  A    between atoms: C_27  and  O_38 
ROOT
HETATM    1  C   UNK N   1      21.161  18.988   4.074  0.00  0.00     0.042 C 
HETATM    2  C   UNK N   1      21.131  18.143   2.809  0.00  0.00     0.152 C 
HETATM    3  C   UNK N   1      19.715  18.098   2.236  0.00  0.00     0.178 C 
HETATM    4  C   UNK N   1      19.761  17.214   0.981  0.00  0.00     0.183 C 
HETATM    5  C   UNK N   1      20.303  15.818   1.323  0.00  0.00     0.204 C 
HETATM    6  C   UNK N   1      21.656  15.951   2.034  0.00  0.00     0.292 C 
HETATM    7  O   UNK N   1      18.829  17.566   3.183  0.00  0.00    -0.390 OA
HETATM    8  O   UNK N   1      19.406  15.142   2.159  0.00  0.00    -0.388 OA
HETATM    9  O   UNK N   1      21.534  16.842   3.149  0.00  0.00    -0.351 OA
HETATM   10  H   UNK N   1      18.192  17.147   3.784  0.00  0.00     0.210 HD
HETATM   11  H   UNK N   1      18.688  14.725   2.659  0.00  0.00     0.210 HD
ENDROOT
BRANCH   4  12
HETATM   12  O   UNK N   1      18.491  17.112   0.409  0.00  0.00    -0.390 OA
HETATM   13  H   UNK N   1      18.119  17.721  -0.248  0.00  0.00     0.210 HD
ENDBRANCH   4  12
BRANCH   6  14
HETATM   14  O   UNK N   1      22.036  14.628   2.451  0.00  0.00    -0.349 OA
BRANCH  14  15
HETATM   15  C   UNK N   1      23.354  14.615   2.947  0.00  0.00     0.147 C 
HETATM   16  C   UNK N   1      24.236  13.517   2.395  0.00  0.00     0.037 C 
HETATM   17  C   UNK N   1      25.635  13.900   2.894  0.00  0.00     0.017 C 
HETATM   18  C   UNK N   1      25.712  13.864   4.438  0.00  0.00    -0.017 C 
HETATM   19  C   UNK N   1      25.958  12.396   4.795  0.00  0.00     0.020 C 
HETATM   20  C   UNK N   1      24.442  14.296   5.146  0.00  0.00    -0.072 C 
HETATM   21  C   UNK N   1      26.848  14.716   5.019  0.00  0.00     0.005 C 
HETATM   22  C   UNK N   1      24.542  15.056   6.436  0.00  0.00     0.035 C 
HETATM   23  C   UNK N   1      23.361  14.571   4.449  0.00  0.00     0.008 C 
HETATM   24  C   UNK N   1      25.194  16.411   6.065  0.00  0.00     0.012 C 
HETATM   25  C   UNK N   1      26.557  16.250   5.332  0.00  0.00     0.026 C 
HETATM   26  C   UNK N   1      27.714  16.697   6.284  0.00  0.00     0.070 C 
HETATM   27  C   UNK N   1      27.982  18.152   6.733  0.00  0.00     0.040 C 
HETATM   28  C   UNK N   1      29.077  16.374   5.647  0.00  0.00    -0.005 C 
HETATM   29  O   UNK N   1      27.514  15.973   7.475  0.00  0.00    -0.389 OA
HETATM   30  C   UNK N   1      29.519  18.171   7.114  0.00  0.00     0.013 C 
HETATM   31  C   UNK N   1      29.995  16.737   6.807  0.00  0.00     0.032 C 
HETATM   32  C   UNK N   1      29.351  17.257   4.400  0.00  0.00     0.019 C 
HETATM   33  C   UNK N   1      29.241  14.921   5.198  0.00  0.00     0.013 C 
HETATM   34  C   UNK N   1      28.142  14.527   4.255  0.00  0.00     0.007 C 
HETATM   35  H   UNK N   1      27.462  15.365   8.229  0.00  0.00     0.210 HD
BRANCH  31  36
HETATM   36  C   UNK N   1      31.387  16.229   6.517  0.00  0.00    -0.030 A 
HETATM   37  C   UNK N   1      32.207  17.099   5.774  0.00  0.00     0.015 A 
HETATM   38  C   UNK N   1      33.586  16.993   5.834  0.00  0.00     0.083 A 
HETATM   39  C   UNK N   1      34.129  16.016   6.654  0.00  0.00     0.287 A 
HETATM   40  O   UNK N   1      35.346  15.931   6.757  0.00  0.00    -0.260 OA
HETATM   41  O   UNK N   1      33.349  15.183   7.338  0.00  0.00    -0.287 OA
HETATM   42  C   UNK N   1      32.014  15.278   7.321  0.00  0.00     0.153 A 
ENDBRANCH  31  36
ENDBRANCH  14  15
ENDBRANCH   6  14
TORSDOF 4
ENDMDL
MODEL 8
REMARK VINA RESULT:      -8.9      8.854     12.883
REMARK  4 active torsions:
REMARK  status: ('A' for Active; 'I' for Inactive)
REMARK    1  A    between atoms: C_20  and  C_17 
REMARK    2  A    between atoms: C_19  and  O_38 
REMARK    3  A    between atoms: C_25  and  O_33 
REMARK    4  A    between atoms: C_27  and  O_38 
ROOT
HETATM    1  C   UNK N   1      32.077  10.877   4.829  0.00  0.00     0.042 C 
HETATM    2  C   UNK N   1      32.558  12.319   4.903  0.00  0.00     0.152 C 
HETATM    3  C   UNK N   1      32.659  12.917   3.500  0.00  0.00     0.178 C 
HETATM    4  C   UNK N   1      33.168  14.357   3.655  0.00  0.00     0.183 C 
HETATM    5  C   UNK N   1      34.510  14.377   4.403  0.00  0.00     0.204 C 
HETATM    6  C   UNK N   1      34.371  13.625   5.733  0.00  0.00     0.292 C 
HETATM    7  O   UNK N   1      33.543  12.161   2.718  0.00  0.00    -0.390 OA
HETATM    8  O   UNK N   1      35.505  13.767   3.629  0.00  0.00    -0.388 OA
HETATM    9  O   UNK N   1      33.829  12.320   5.498  0.00  0.00    -0.351 OA
HETATM   10  H   UNK N   1      34.193  11.705   2.159  0.00  0.00     0.210 HD
HETATM   11  H   UNK N   1      36.138  13.409   2.988  0.00  0.00     0.210 HD
ENDROOT
BRANCH   4  12
HETATM   12  O   UNK N   1      33.303  14.965   2.406  0.00  0.00    -0.390 OA
HETATM   13  H   UNK N   1      32.589  15.397   1.911  0.00  0.00     0.210 HD
ENDBRANCH   4  12
BRANCH   6  14
HETATM   14  O   UNK N   1      35.687  13.558   6.310  0.00  0.00    -0.349 OA
BRANCH  14  15
HETATM   15  C   UNK N   1      35.621  13.566   7.717  0.00  0.00     0.147 C 
HETATM   16  C   UNK N   1      34.769  14.666   8.311  0.00  0.00     0.037 C 
HETATM   17  C   UNK N   1      34.671  14.278   9.793  0.00  0.00     0.017 C 
HETATM   18  C   UNK N   1      36.059  14.308  10.475  0.00  0.00    -0.017 C 
HETATM   19  C   UNK N   1      36.294  15.773  10.847  0.00  0.00     0.020 C 
HETATM   20  C   UNK N   1      37.210  13.874   9.588  0.00  0.00    -0.072 C 
HETATM   21  C   UNK N   1      36.140  13.451  11.745  0.00  0.00     0.005 C 
HETATM   22  C   UNK N   1      38.352  13.108  10.187  0.00  0.00     0.035 C 
HETATM   23  C   UNK N   1      36.997  13.604   8.318  0.00  0.00     0.008 C 
HETATM   24  C   UNK N   1      37.749  11.754  10.635  0.00  0.00     0.012 C 
HETATM   25  C   UNK N   1      36.537  11.916  11.597  0.00  0.00     0.026 C 
HETATM   26  C   UNK N   1      36.952  11.463  13.035  0.00  0.00     0.070 C 
HETATM   27  C   UNK N   1      37.252  10.006  13.455  0.00  0.00     0.040 C 
HETATM   28  C   UNK N   1      35.828  11.787  14.035  0.00  0.00    -0.005 C 
HETATM   29  O   UNK N   1      38.127  12.182  13.325  0.00  0.00    -0.389 OA
HETATM   30  C   UNK N   1      36.994   9.982  15.016  0.00  0.00     0.013 C 
HETATM   31  C   UNK N   1      36.529  11.417  15.337  0.00  0.00     0.032 C 
HETATM   32  C   UNK N   1      34.571  10.909  13.790  0.00  0.00     0.019 C 
HETATM   33  C   UNK N   1      35.356  13.241  14.012  0.00  0.00     0.013 C 
HETATM   34  C   UNK N   1      34.926  13.641  12.631  0.00  0.00     0.007 C 
HETATM   35  H   UNK N   1      38.842  12.787  13.578  0.00  0.00     0.210 HD
BRANCH  31  36
HETATM   36  C   UNK N   1      35.712  11.924  16.502  0.00  0.00    -0.030 A 
HETATM   37  C   UNK N   1      35.578  11.032  17.582  0.00  0.00     0.015 A 
HETATM   38  C   UNK N   1      35.283  11.500  18.851  0.00  0.00     0.083 A 
HETATM   39  C   UNK N   1      35.138  12.867  19.024  0.00  0.00     0.287 A 
HETATM   40  O   UNK N   1      34.920  13.308  20.145  0.00  0.00    -0.260 OA
HETATM   41  O   UNK N   1      35.245  13.705  17.995  0.00  0.00    -0.287 OA
HETATM   42  C   UNK N   1      35.556  13.285  16.763  0.00  0.00     0.153 A 
ENDBRANCH  31  36
ENDBRANCH  14  15
ENDBRANCH   6  14
TORSDOF 4
ENDMDL
MODEL 9
REMARK VINA RESULT:      -8.8     12.025     14.523
REMARK  4 active torsions:
REMARK  status: ('A' for Active; 'I' for Inactive)
REMARK    1  A    between atoms: C_20  and  C_17 
REMARK    2  A    between atoms: C_19  and  O_38 
REMARK    3  A    between atoms: C_25  and  O_33 
REMARK    4  A    between atoms: C_27  and  O_38 
ROOT
HETATM    1  C   UNK N   1      30.508  28.778  -5.289  0.00  0.00     0.042 C 
HETATM    2  C   UNK N   1      29.240  29.467  -4.807  0.00  0.00     0.152 C 
HETATM    3  C   UNK N   1      29.412  29.949  -3.368  0.00  0.00     0.178 C 
HETATM    4  C   UNK N   1      28.090  30.610  -2.948  0.00  0.00     0.183 C 
HETATM    5  C   UNK N   1      26.922  29.626  -3.105  0.00  0.00     0.204 C 
HETATM    6  C   UNK N   1      26.906  29.066  -4.534  0.00  0.00     0.292 C 
HETATM    7  O   UNK N   1      29.711  28.866  -2.530  0.00  0.00    -0.390 OA
HETATM    8  O   UNK N   1      27.054  28.569  -2.196  0.00  0.00    -0.388 OA
HETATM    9  O   UNK N   1      28.194  28.532  -4.860  0.00  0.00    -0.351 OA
HETATM   10  H   UNK N   1      29.858  28.139  -1.904  0.00  0.00     0.210 HD
HETATM   11  H   UNK N   1      27.184  27.931  -1.478  0.00  0.00     0.210 HD
ENDROOT
BRANCH   4  12
HETATM   12  O   UNK N   1      28.167  31.062  -1.630  0.00  0.00    -0.390 OA
HETATM   13  H   UNK N   1      27.823  30.594  -0.854  0.00  0.00     0.210 HD
ENDBRANCH   4  12
BRANCH   6  14
HETATM   14  O   UNK N   1      25.885  28.053  -4.569  0.00  0.00    -0.349 OA
BRANCH  14  15
HETATM   15  C   UNK N   1      26.381  26.861  -5.133  0.00  0.00     0.147 C 
HETATM   16  C   UNK N   1      25.563  26.306  -6.278  0.00  0.00     0.037 C 
HETATM   17  C   UNK N   1      26.455  25.193  -6.844  0.00  0.00     0.017 C 
HETATM   18  C   UNK N   1      26.676  24.066  -5.807  0.00  0.00    -0.017 C 
HETATM   19  C   UNK N   1      25.442  23.170  -5.916  0.00  0.00     0.020 C 
HETATM   20  C   UNK N   1      26.768  24.539  -4.369  0.00  0.00    -0.072 C 
HETATM   21  C   UNK N   1      27.931  23.223  -6.070  0.00  0.00     0.005 C 
HETATM   22  C   UNK N   1      27.702  23.842  -3.424  0.00  0.00     0.035 C 
HETATM   23  C   UNK N   1      26.566  25.807  -4.079  0.00  0.00     0.008 C 
HETATM   24  C   UNK N   1      29.125  24.135  -3.961  0.00  0.00     0.012 C 
HETATM   25  C   UNK N   1      29.313  23.710  -5.447  0.00  0.00     0.026 C 
HETATM   26  C   UNK N   1      30.251  22.462  -5.514  0.00  0.00     0.070 C 
HETATM   27  C   UNK N   1      31.764  22.469  -5.192  0.00  0.00     0.040 C 
HETATM   28  C   UNK N   1      30.302  21.917  -6.953  0.00  0.00    -0.005 C 
HETATM   29  O   UNK N   1      29.688  21.526  -4.626  0.00  0.00    -0.389 OA
HETATM   30  C   UNK N   1      32.343  21.227  -5.984  0.00  0.00     0.013 C 
HETATM   31  C   UNK N   1      31.116  20.650  -6.719  0.00  0.00     0.032 C 
HETATM   32  C   UNK N   1      31.031  22.897  -7.912  0.00  0.00     0.019 C 
HETATM   33  C   UNK N   1      28.935  21.634  -7.575  0.00  0.00     0.013 C 
HETATM   34  C   UNK N   1      28.066  22.856  -7.534  0.00  0.00     0.007 C 
HETATM   35  H   UNK N   1      29.216  20.836  -4.135  0.00  0.00     0.210 HD
BRANCH  31  36
HETATM   36  C   UNK N   1      31.056  19.786  -7.956  0.00  0.00    -0.030 A 
HETATM   37  C   UNK N   1      32.248  19.710  -8.701  0.00  0.00     0.015 A 
HETATM   38  C   UNK N   1      32.485  18.640  -9.546  0.00  0.00     0.083 A 
HETATM   39  C   UNK N   1      31.523  17.646  -9.624  0.00  0.00     0.287 A 
HETATM   40  O   UNK N   1      31.729  16.668 -10.332  0.00  0.00    -0.260 OA
HETATM   41  O   UNK N   1      30.389  17.732  -8.933  0.00  0.00    -0.287 OA
HETATM   42  C   UNK N   1      30.143  18.741  -8.089  0.00  0.00     0.153 A 
ENDBRANCH  31  36
ENDBRANCH  14  15
ENDBRANCH   6  14
TORSDOF 4
ENDMDL
