MODEL 1
REMARK VINA RESULT:      -2.3      0.000      0.000
REMARK  0 active torsions:
REMARK  status: ('A' for Active; 'I' for Inactive)
ROOT
HETATM    1  I   UNK N   1      34.073  10.811  14.497  0.00  0.00    -0.062 I 
HETATM    2  C   UNK N   1      35.113  12.571  15.097  0.00  0.00     0.187 C 
HETATM    3  I   UNK N   1      35.172  13.144  17.149  0.00  0.00    -0.062 I 
HETATM    4  I   UNK N   1      36.101  13.768  13.635  0.00  0.00    -0.062 I 
ENDROOT
TORSDOF 0
ENDMDL
MODEL 2
REMARK VINA RESULT:      -2.2      0.529      2.655
REMARK  0 active torsions:
REMARK  status: ('A' for Active; 'I' for Inactive)
ROOT
HETATM    1  I   UNK N   1      34.246  10.719  13.883  0.00  0.00    -0.062 I 
HETATM    2  C   UNK N   1      35.155  12.510  14.595  0.00  0.00     0.187 C 
HETATM    3  I   UNK N   1      36.029  13.895  13.231  0.00  0.00    -0.062 I 
HETATM    4  I   UNK N   1      35.190  12.919  16.688  0.00  0.00    -0.062 I 
ENDROOT
TORSDOF 0
ENDMDL
MODEL 3
REMARK VINA RESULT:      -2.1     12.871     13.677
REMARK  0 active torsions:
REMARK  status: ('A' for Active; 'I' for Inactive)
ROOT
HETATM    1  I   UNK N   1      24.433  13.164   8.136  0.00  0.00    -0.062 I 
HETATM    2  C   UNK N   1      22.852  13.108   9.564  0.00  0.00     0.187 C 
HETATM    3  I   UNK N   1      23.050  11.963  11.351  0.00  0.00    -0.062 I 
HETATM    4  I   UNK N   1      21.058  14.204   9.202  0.00  0.00    -0.062 I 
ENDROOT
TORSDOF 0
ENDMDL
MODEL 4
REMARK VINA RESULT:      -2.1     12.871     13.644
REMARK  0 active torsions:
REMARK  status: ('A' for Active; 'I' for Inactive)
ROOT
HETATM    1  I   UNK N   1      23.119  11.964  11.305  0.00  0.00    -0.062 I 
HETATM    2  C   UNK N   1      22.850  13.133   9.543  0.00  0.00     0.187 C 
HETATM    3  I   UNK N   1      21.040  14.212   9.228  0.00  0.00    -0.062 I 
HETATM    4  I   UNK N   1      24.403  13.222   8.084  0.00  0.00    -0.062 I 
ENDROOT
TORSDOF 0
ENDMDL
MODEL 5
REMARK VINA RESULT:      -2.1     12.913     13.848
REMARK  0 active torsions:
REMARK  status: ('A' for Active; 'I' for Inactive)
ROOT
HETATM    1  I   UNK N   1      24.401  13.226   8.008  0.00  0.00    -0.062 I 
HETATM    2  C   UNK N   1      22.844  13.161   9.462  0.00  0.00     0.187 C 
HETATM    3  I   UNK N   1      21.041  14.259   9.165  0.00  0.00    -0.062 I 
HETATM    4  I   UNK N   1      23.091  11.988  11.226  0.00  0.00    -0.062 I 
ENDROOT
TORSDOF 0
ENDMDL
MODEL 6
REMARK VINA RESULT:      -2.1     12.417     13.159
REMARK  0 active torsions:
REMARK  status: ('A' for Active; 'I' for Inactive)
ROOT
HETATM    1  I   UNK N   1      28.519  18.346   8.436  0.00  0.00    -0.062 I 
HETATM    2  C   UNK N   1      27.946  19.063   6.513  0.00  0.00     0.187 C 
HETATM    3  I   UNK N   1      26.962  20.943   6.310  0.00  0.00    -0.062 I 
HETATM    4  I   UNK N   1      28.359  17.892   4.779  0.00  0.00    -0.062 I 
ENDROOT
TORSDOF 0
ENDMDL
MODEL 7
REMARK VINA RESULT:      -2.1     12.439     13.167
REMARK  0 active torsions:
REMARK  status: ('A' for Active; 'I' for Inactive)
ROOT
HETATM    1  I   UNK N   1      27.065  20.987   6.192  0.00  0.00    -0.062 I 
HETATM    2  C   UNK N   1      27.985  19.082   6.449  0.00  0.00     0.187 C 
HETATM    3  I   UNK N   1      28.506  18.387   8.395  0.00  0.00    -0.062 I 
HETATM    4  I   UNK N   1      28.387  17.862   4.746  0.00  0.00    -0.062 I 
ENDROOT
TORSDOF 0
ENDMDL
MODEL 8
REMARK VINA RESULT:      -2.1     12.386     13.342
REMARK  0 active torsions:
REMARK  status: ('A' for Active; 'I' for Inactive)
ROOT
HETATM    1  I   UNK N   1      27.001  20.936   6.320  0.00  0.00    -0.062 I 
HETATM    2  C   UNK N   1      27.974  19.050   6.517  0.00  0.00     0.187 C 
HETATM    3  I   UNK N   1      28.413  17.875   4.793  0.00  0.00    -0.062 I 
HETATM    4  I   UNK N   1      28.511  18.332   8.452  0.00  0.00    -0.062 I 
ENDROOT
TORSDOF 0
ENDMDL
MODEL 9
REMARK VINA RESULT:      -2.1     24.797     25.821
REMARK  0 active torsions:
REMARK  status: ('A' for Active; 'I' for Inactive)
ROOT
HETATM    1  I   UNK N   1      27.146  24.577  -3.834  0.00  0.00    -0.062 I 
HETATM    2  C   UNK N   1      26.406  26.262  -4.909  0.00  0.00     0.187 C 
HETATM    3  I   UNK N   1      25.993  28.092  -3.897  0.00  0.00    -0.062 I 
HETATM    4  I   UNK N   1      26.076  26.116  -7.011  0.00  0.00    -0.062 I 
ENDROOT
TORSDOF 0
ENDMDL
