MODEL 1
REMARK VINA RESULT:      -3.1      0.000      0.000
REMARK  3 active torsions:
REMARK  status: ('A' for Active; 'I' for Inactive)
REMARK    1  A    between atoms: C_4  and  C_3 
REMARK    2  A    between atoms: N_5  and  C_3 
REMARK    3  A    between atoms: O_6  and  C_4 
ROOT
HETATM    1  C   UNK N   1      23.705  11.922  11.658  0.00  0.00     0.141 C 
ENDROOT
BRANCH   1   2
HETATM    2  C   UNK N   1      23.104  11.837  13.054  0.00  0.00     0.183 C 
BRANCH   2   3
HETATM    3  O   UNK N   1      23.903  12.550  13.947  0.00  0.00    -0.399 OA
HETATM    4  H   UNK N   1      23.502  13.204  14.540  0.00  0.00     0.209 HD
ENDBRANCH   2   3
ENDBRANCH   1   2
BRANCH   1   5
HETATM    5  N   UNK N   1      22.802  12.523  10.675  0.00  0.00    -0.419 N 
HETATM    6  C   UNK N   1      23.385  13.229   9.550  0.00  0.00     0.142 C 
HETATM    7  C   UNK N   1      21.348  12.452  10.763  0.00  0.00     0.142 C 
ENDBRANCH   1   5
TORSDOF 3
ENDMDL
MODEL 2
REMARK VINA RESULT:      -3.1     11.458     12.603
REMARK  3 active torsions:
REMARK  status: ('A' for Active; 'I' for Inactive)
REMARK    1  A    between atoms: C_4  and  C_3 
REMARK    2  A    between atoms: N_5  and  C_3 
REMARK    3  A    between atoms: O_6  and  C_4 
ROOT
HETATM    1  C   UNK N   1      21.435  20.265   2.151  0.00  0.00     0.141 C 
ENDROOT
BRANCH   1   2
HETATM    2  C   UNK N   1      20.546  21.057   1.202  0.00  0.00     0.183 C 
BRANCH   2   3
HETATM    3  O   UNK N   1      20.669  20.540  -0.087  0.00  0.00    -0.399 OA
HETATM    4  H   UNK N   1      20.046  20.811  -0.780  0.00  0.00     0.209 HD
ENDBRANCH   2   3
ENDBRANCH   1   2
BRANCH   1   5
HETATM    5  N   UNK N   1      20.686  19.365   3.029  0.00  0.00    -0.419 N 
HETATM    6  C   UNK N   1      21.263  19.025   4.316  0.00  0.00     0.142 C 
HETATM    7  C   UNK N   1      19.391  18.789   2.683  0.00  0.00     0.142 C 
ENDBRANCH   1   5
TORSDOF 3
ENDMDL
MODEL 3
REMARK VINA RESULT:      -2.9     12.763     13.293
REMARK  3 active torsions:
REMARK  status: ('A' for Active; 'I' for Inactive)
REMARK    1  A    between atoms: C_4  and  C_3 
REMARK    2  A    between atoms: N_5  and  C_3 
REMARK    3  A    between atoms: O_6  and  C_4 
ROOT
HETATM    1  C   UNK N   1      33.868  17.330   8.960  0.00  0.00     0.141 C 
ENDROOT
BRANCH   1   2
HETATM    2  C   UNK N   1      34.471  18.253   7.911  0.00  0.00     0.183 C 
BRANCH   2   3
HETATM    3  O   UNK N   1      35.284  19.198   8.537  0.00  0.00    -0.399 OA
HETATM    4  H   UNK N   1      34.884  19.911   9.059  0.00  0.00     0.209 HD
ENDBRANCH   2   3
ENDBRANCH   1   2
BRANCH   1   5
HETATM    5  N   UNK N   1      34.832  16.382   9.519  0.00  0.00    -0.419 N 
HETATM    6  C   UNK N   1      35.207  15.233   8.717  0.00  0.00     0.142 C 
HETATM    7  C   UNK N   1      35.438  16.526  10.837  0.00  0.00     0.142 C 
ENDBRANCH   1   5
TORSDOF 3
ENDMDL
MODEL 4
REMARK VINA RESULT:      -2.8     11.436     12.198
REMARK  3 active torsions:
REMARK  status: ('A' for Active; 'I' for Inactive)
REMARK    1  A    between atoms: C_4  and  C_3 
REMARK    2  A    between atoms: N_5  and  C_3 
REMARK    3  A    between atoms: O_6  and  C_4 
ROOT
HETATM    1  C   UNK N   1      34.150  17.199   8.893  0.00  0.00     0.141 C 
ENDROOT
BRANCH   1   2
HETATM    2  C   UNK N   1      34.469  18.363   7.965  0.00  0.00     0.183 C 
BRANCH   2   3
HETATM    3  O   UNK N   1      35.348  19.237   8.604  0.00  0.00    -0.399 OA
HETATM    4  H   UNK N   1      36.229  19.396   8.232  0.00  0.00     0.209 HD
ENDBRANCH   2   3
ENDBRANCH   1   2
BRANCH   1   5
HETATM    5  N   UNK N   1      32.763  16.744   8.793  0.00  0.00    -0.419 N 
HETATM    6  C   UNK N   1      32.471  15.359   9.114  0.00  0.00     0.142 C 
HETATM    7  C   UNK N   1      31.656  17.603   8.389  0.00  0.00     0.142 C 
ENDBRANCH   1   5
TORSDOF 3
ENDMDL
MODEL 5
REMARK VINA RESULT:      -2.8     11.809     12.657
REMARK  3 active torsions:
REMARK  status: ('A' for Active; 'I' for Inactive)
REMARK    1  A    between atoms: C_4  and  C_3 
REMARK    2  A    between atoms: N_5  and  C_3 
REMARK    3  A    between atoms: O_6  and  C_4 
ROOT
HETATM    1  C   UNK N   1      33.162  18.186   8.106  0.00  0.00     0.141 C 
ENDROOT
BRANCH   1   2
HETATM    2  C   UNK N   1      34.642  17.989   8.403  0.00  0.00     0.183 C 
BRANCH   2   3
HETATM    3  O   UNK N   1      35.265  19.234   8.496  0.00  0.00    -0.399 OA
HETATM    4  H   UNK N   1      35.869  19.420   9.232  0.00  0.00     0.209 HD
ENDBRANCH   2   3
ENDBRANCH   1   2
BRANCH   1   5
HETATM    5  N   UNK N   1      32.730  17.541   6.865  0.00  0.00    -0.419 N 
HETATM    6  C   UNK N   1      31.362  17.067   6.778  0.00  0.00     0.142 C 
HETATM    7  C   UNK N   1      33.599  17.348   5.709  0.00  0.00     0.142 C 
ENDBRANCH   1   5
TORSDOF 3
ENDMDL
MODEL 6
REMARK VINA RESULT:      -2.7     12.176     12.717
REMARK  3 active torsions:
REMARK  status: ('A' for Active; 'I' for Inactive)
REMARK    1  A    between atoms: C_4  and  C_3 
REMARK    2  A    between atoms: N_5  and  C_3 
REMARK    3  A    between atoms: O_6  and  C_4 
ROOT
HETATM    1  C   UNK N   1      34.894  16.079   9.412  0.00  0.00     0.141 C 
ENDROOT
BRANCH   1   2
HETATM    2  C   UNK N   1      35.465  16.594  10.726  0.00  0.00     0.183 C 
BRANCH   2   3
HETATM    3  O   UNK N   1      36.803  16.217  10.829  0.00  0.00    -0.399 OA
HETATM    4  H   UNK N   1      37.055  15.472  11.398  0.00  0.00     0.209 HD
ENDBRANCH   2   3
ENDBRANCH   1   2
BRANCH   1   5
HETATM    5  N   UNK N   1      34.009  17.040   8.751  0.00  0.00    -0.419 N 
HETATM    6  C   UNK N   1      34.584  18.281   8.267  0.00  0.00     0.142 C 
HETATM    7  C   UNK N   1      32.582  16.820   8.550  0.00  0.00     0.142 C 
ENDBRANCH   1   5
TORSDOF 3
ENDMDL
MODEL 7
REMARK VINA RESULT:      -2.7     23.416     24.164
REMARK  3 active torsions:
REMARK  status: ('A' for Active; 'I' for Inactive)
REMARK    1  A    between atoms: C_4  and  C_3 
REMARK    2  A    between atoms: N_5  and  C_3 
REMARK    3  A    between atoms: O_6  and  C_4 
ROOT
HETATM    1  C   UNK N   1      43.626  22.966   3.487  0.00  0.00     0.141 C 
ENDROOT
BRANCH   1   2
HETATM    2  C   UNK N   1      44.468  21.888   4.154  0.00  0.00     0.183 C 
BRANCH   2   3
HETATM    3  O   UNK N   1      45.796  22.311   4.218  0.00  0.00    -0.399 OA
HETATM    4  H   UNK N   1      46.150  22.671   5.046  0.00  0.00     0.209 HD
ENDBRANCH   2   3
ENDBRANCH   1   2
BRANCH   1   5
HETATM    5  N   UNK N   1      42.476  22.432   2.755  0.00  0.00    -0.419 N 
HETATM    6  C   UNK N   1      42.144  21.030   2.931  0.00  0.00     0.142 C 
HETATM    7  C   UNK N   1      41.646  23.228   1.860  0.00  0.00     0.142 C 
ENDBRANCH   1   5
TORSDOF 3
ENDMDL
MODEL 8
REMARK VINA RESULT:      -2.7      8.941      9.624
REMARK  3 active torsions:
REMARK  status: ('A' for Active; 'I' for Inactive)
REMARK    1  A    between atoms: C_4  and  C_3 
REMARK    2  A    between atoms: N_5  and  C_3 
REMARK    3  A    between atoms: O_6  and  C_4 
ROOT
HETATM    1  C   UNK N   1      29.828  18.232   9.289  0.00  0.00     0.141 C 
ENDROOT
BRANCH   1   2
HETATM    2  C   UNK N   1      28.492  18.617   8.667  0.00  0.00     0.183 C 
BRANCH   2   3
HETATM    3  O   UNK N   1      27.455  18.076   9.426  0.00  0.00    -0.399 OA
HETATM    4  H   UNK N   1      26.706  18.633   9.690  0.00  0.00     0.209 HD
ENDBRANCH   2   3
ENDBRANCH   1   2
BRANCH   1   5
HETATM    5  N   UNK N   1      30.777  17.679   8.322  0.00  0.00    -0.419 N 
HETATM    6  C   UNK N   1      30.255  16.892   7.221  0.00  0.00     0.142 C 
HETATM    7  C   UNK N   1      32.220  17.875   8.402  0.00  0.00     0.142 C 
ENDBRANCH   1   5
TORSDOF 3
ENDMDL
MODEL 9
REMARK VINA RESULT:      -2.6     22.367     23.286
REMARK  3 active torsions:
REMARK  status: ('A' for Active; 'I' for Inactive)
REMARK    1  A    between atoms: C_4  and  C_3 
REMARK    2  A    between atoms: N_5  and  C_3 
REMARK    3  A    between atoms: O_6  and  C_4 
ROOT
HETATM    1  C   UNK N   1      42.458  22.676   2.552  0.00  0.00     0.141 C 
ENDROOT
BRANCH   1   2
HETATM    2  C   UNK N   1      43.607  22.802   3.542  0.00  0.00     0.183 C 
BRANCH   2   3
HETATM    3  O   UNK N   1      43.522  24.031   4.196  0.00  0.00    -0.399 OA
HETATM    4  H   UNK N   1      42.653  24.413   4.400  0.00  0.00     0.209 HD
ENDBRANCH   2   3
ENDBRANCH   1   2
BRANCH   1   5
HETATM    5  N   UNK N   1      41.700  21.433   2.702  0.00  0.00    -0.419 N 
HETATM    6  C   UNK N   1      40.321  21.412   2.250  0.00  0.00     0.142 C 
HETATM    7  C   UNK N   1      42.251  20.214   3.281  0.00  0.00     0.142 C 
ENDBRANCH   1   5
TORSDOF 3
ENDMDL
