MODEL 1
REMARK VINA RESULT:      -1.2      0.000      0.000
REMARK  3 active torsions:
REMARK  status: ('A' for Active; 'I' for Inactive)
REMARK    1  A    between atoms: C_6  and  C_7 
REMARK    2  A    between atoms: C_15  and  C_16 
REMARK    3  A    between atoms: Mg_19  and  Mg_19 
ROOT
HETATM    1 Mg   UNK N   1      39.964  21.073  13.075  0.00  0.00     0.000 Mg
ENDROOT
TORSDOF 3
ENDMDL
MODEL 2
REMARK VINA RESULT:      -1.2      4.352      4.352
REMARK  3 active torsions:
REMARK  status: ('A' for Active; 'I' for Inactive)
REMARK    1  A    between atoms: C_6  and  C_7 
REMARK    2  A    between atoms: C_15  and  C_16 
REMARK    3  A    between atoms: Mg_19  and  Mg_19 
ROOT
HETATM    1 Mg   UNK N   1      35.636  21.382  12.738  0.00  0.00     0.000 Mg
ENDROOT
TORSDOF 3
ENDMDL
MODEL 3
REMARK VINA RESULT:      -1.2     26.829     26.829
REMARK  3 active torsions:
REMARK  status: ('A' for Active; 'I' for Inactive)
REMARK    1  A    between atoms: C_6  and  C_7 
REMARK    2  A    between atoms: C_15  and  C_16 
REMARK    3  A    between atoms: Mg_19  and  Mg_19 
ROOT
HETATM    1 Mg   UNK N   1      21.453  21.778  -6.332  0.00  0.00     0.000 Mg
ENDROOT
TORSDOF 3
ENDMDL
MODEL 4
REMARK VINA RESULT:      -1.1      9.592      9.592
REMARK  3 active torsions:
REMARK  status: ('A' for Active; 'I' for Inactive)
REMARK    1  A    between atoms: C_6  and  C_7 
REMARK    2  A    between atoms: C_15  and  C_16 
REMARK    3  A    between atoms: Mg_19  and  Mg_19 
ROOT
HETATM    1 Mg   UNK N   1      43.320  25.304   5.147  0.00  0.00     0.000 Mg
ENDROOT
TORSDOF 3
ENDMDL
MODEL 5
REMARK VINA RESULT:      -1.1      8.408      8.408
REMARK  3 active torsions:
REMARK  status: ('A' for Active; 'I' for Inactive)
REMARK    1  A    between atoms: C_6  and  C_7 
REMARK    2  A    between atoms: C_15  and  C_16 
REMARK    3  A    between atoms: Mg_19  and  Mg_19 
ROOT
HETATM    1 Mg   UNK N   1      36.350  28.123  15.895  0.00  0.00     0.000 Mg
ENDROOT
TORSDOF 3
ENDMDL
MODEL 6
REMARK VINA RESULT:      -1.0      9.125      9.125
REMARK  3 active torsions:
REMARK  status: ('A' for Active; 'I' for Inactive)
REMARK    1  A    between atoms: C_6  and  C_7 
REMARK    2  A    between atoms: C_15  and  C_16 
REMARK    3  A    between atoms: Mg_19  and  Mg_19 
ROOT
HETATM    1 Mg   UNK N   1      41.691  21.639  22.017  0.00  0.00     0.000 Mg
ENDROOT
TORSDOF 3
ENDMDL
MODEL 7
REMARK VINA RESULT:      -0.9     22.617     22.617
REMARK  3 active torsions:
REMARK  status: ('A' for Active; 'I' for Inactive)
REMARK    1  A    between atoms: C_6  and  C_7 
REMARK    2  A    between atoms: C_15  and  C_16 
REMARK    3  A    between atoms: Mg_19  and  Mg_19 
ROOT
HETATM    1 Mg   UNK N   1      17.492  20.393  10.604  0.00  0.00     0.000 Mg
ENDROOT
TORSDOF 3
ENDMDL
MODEL 8
REMARK VINA RESULT:      -0.9      4.911      4.911
REMARK  3 active torsions:
REMARK  status: ('A' for Active; 'I' for Inactive)
REMARK    1  A    between atoms: C_6  and  C_7 
REMARK    2  A    between atoms: C_15  and  C_16 
REMARK    3  A    between atoms: Mg_19  and  Mg_19 
ROOT
HETATM    1 Mg   UNK N   1      36.345  19.944   9.954  0.00  0.00     0.000 Mg
ENDROOT
TORSDOF 3
ENDMDL
MODEL 9
REMARK VINA RESULT:      -0.9     14.049     14.049
REMARK  3 active torsions:
REMARK  status: ('A' for Active; 'I' for Inactive)
REMARK    1  A    between atoms: C_6  and  C_7 
REMARK    2  A    between atoms: C_15  and  C_16 
REMARK    3  A    between atoms: Mg_19  and  Mg_19 
ROOT
HETATM    1 Mg   UNK N   1      44.805  30.407   3.757  0.00  0.00     0.000 Mg
ENDROOT
TORSDOF 3
ENDMDL
