MODEL 1
REMARK VINA RESULT:      -1.8      0.000      0.000
REMARK  3 active torsions:
REMARK  status: ('A' for Active; 'I' for Inactive)
REMARK    1  A    between atoms: C_2  and  C_1 
REMARK    2  A    between atoms: C_1  and  O_12 
REMARK    3  A    between atoms: C_5  and  O_9 
ROOT
HETATM    1  O   UNK N   1      35.458  22.121  12.850  0.00  0.00    -0.411 OA
HETATM    2  H   UNK N   1      36.216  22.273  12.264  0.00  0.00     0.205 HD
HETATM    3  H   UNK N   1      34.686  21.630  12.528  0.00  0.00     0.205 HD
ENDROOT
TORSDOF 3
ENDMDL
MODEL 2
REMARK VINA RESULT:      -1.5     19.772     19.772
REMARK  3 active torsions:
REMARK  status: ('A' for Active; 'I' for Inactive)
REMARK    1  A    between atoms: C_2  and  C_1 
REMARK    2  A    between atoms: C_1  and  O_12 
REMARK    3  A    between atoms: C_5  and  O_9 
ROOT
HETATM    1  O   UNK N   1      20.609  20.611  -0.117  0.00  0.00    -0.411 OA
HETATM    2  H   UNK N   1      21.002  19.989  -0.749  0.00  0.00     0.205 HD
HETATM    3  H   UNK N   1      21.092  21.412   0.139  0.00  0.00     0.205 HD
ENDROOT
TORSDOF 3
ENDMDL
MODEL 3
REMARK VINA RESULT:      -1.4     10.371     10.371
REMARK  3 active torsions:
REMARK  status: ('A' for Active; 'I' for Inactive)
REMARK    1  A    between atoms: C_2  and  C_1 
REMARK    2  A    between atoms: C_1  and  O_12 
REMARK    3  A    between atoms: C_5  and  O_9 
ROOT
HETATM    1  O   UNK N   1      41.252  21.761  21.445  0.00  0.00    -0.411 OA
HETATM    2  H   UNK N   1      41.641  22.501  21.938  0.00  0.00     0.205 HD
HETATM    3  H   UNK N   1      41.195  21.800  20.477  0.00  0.00     0.205 HD
ENDROOT
TORSDOF 3
ENDMDL
MODEL 4
REMARK VINA RESULT:      -1.3     14.742     14.742
REMARK  3 active torsions:
REMARK  status: ('A' for Active; 'I' for Inactive)
REMARK    1  A    between atoms: C_2  and  C_1 
REMARK    2  A    between atoms: C_1  and  O_12 
REMARK    3  A    between atoms: C_5  and  O_9 
ROOT
HETATM    1  O   UNK N   1      47.532  19.043  20.730  0.00  0.00    -0.411 OA
HETATM    2  H   UNK N   1      48.289  19.195  20.144  0.00  0.00     0.205 HD
HETATM    3  H   UNK N   1      46.760  18.552  20.407  0.00  0.00     0.205 HD
ENDROOT
TORSDOF 3
ENDMDL
MODEL 5
REMARK VINA RESULT:      -1.3      5.083      5.083
REMARK  3 active torsions:
REMARK  status: ('A' for Active; 'I' for Inactive)
REMARK    1  A    between atoms: C_2  and  C_1 
REMARK    2  A    between atoms: C_1  and  O_12 
REMARK    3  A    between atoms: C_5  and  O_9 
ROOT
HETATM    1  O   UNK N   1      35.401  19.348   8.591  0.00  0.00    -0.411 OA
HETATM    2  H   UNK N   1      35.673  18.499   8.974  0.00  0.00     0.205 HD
HETATM    3  H   UNK N   1      35.006  20.030   9.157  0.00  0.00     0.205 HD
ENDROOT
TORSDOF 3
ENDMDL
MODEL 6
REMARK VINA RESULT:      -1.3     18.829     18.829
REMARK  3 active torsions:
REMARK  status: ('A' for Active; 'I' for Inactive)
REMARK    1  A    between atoms: C_2  and  C_1 
REMARK    2  A    between atoms: C_1  and  O_12 
REMARK    3  A    between atoms: C_5  and  O_9 
ROOT
HETATM    1  O   UNK N   1      17.989  26.179   7.114  0.00  0.00    -0.411 OA
HETATM    2  H   UNK N   1      18.378  26.918   7.607  0.00  0.00     0.205 HD
HETATM    3  H   UNK N   1      17.932  26.218   6.147  0.00  0.00     0.205 HD
ENDROOT
TORSDOF 3
ENDMDL
MODEL 7
REMARK VINA RESULT:      -1.3     19.931     19.931
REMARK  3 active torsions:
REMARK  status: ('A' for Active; 'I' for Inactive)
REMARK    1  A    between atoms: C_2  and  C_1 
REMARK    2  A    between atoms: C_1  and  O_12 
REMARK    3  A    between atoms: C_5  and  O_9 
ROOT
HETATM    1  O   UNK N   1      20.344  24.379   0.055  0.00  0.00    -0.411 OA
HETATM    2  H   UNK N   1      19.670  24.492  -0.633  0.00  0.00     0.205 HD
HETATM    3  H   UNK N   1      20.089  24.062   0.936  0.00  0.00     0.205 HD
ENDROOT
TORSDOF 3
ENDMDL
MODEL 8
REMARK VINA RESULT:      -1.3     16.556     16.556
REMARK  3 active torsions:
REMARK  status: ('A' for Active; 'I' for Inactive)
REMARK    1  A    between atoms: C_2  and  C_1 
REMARK    2  A    between atoms: C_1  and  O_12 
REMARK    3  A    between atoms: C_5  and  O_9 
ROOT
HETATM    1  O   UNK N   1      19.138  19.834  11.257  0.00  0.00    -0.411 OA
HETATM    2  H   UNK N   1      19.527  20.574  11.751  0.00  0.00     0.205 HD
HETATM    3  H   UNK N   1      19.080  19.874  10.290  0.00  0.00     0.205 HD
ENDROOT
TORSDOF 3
ENDMDL
MODEL 9
REMARK VINA RESULT:      -1.2     15.064     15.064
REMARK  3 active torsions:
REMARK  status: ('A' for Active; 'I' for Inactive)
REMARK    1  A    between atoms: C_2  and  C_1 
REMARK    2  A    between atoms: C_1  and  O_12 
REMARK    3  A    between atoms: C_5  and  O_9 
ROOT
HETATM    1  O   UNK N   1      32.865  21.100  -1.954  0.00  0.00    -0.411 OA
HETATM    2  H   UNK N   1      32.371  21.181  -1.123  0.00  0.00     0.205 HD
HETATM    3  H   UNK N   1      32.401  21.170  -2.803  0.00  0.00     0.205 HD
ENDROOT
TORSDOF 3
ENDMDL
