MODEL 1
REMARK VINA RESULT:      -6.9      0.000      0.000
REMARK  4 active torsions:
REMARK  status: ('A' for Active; 'I' for Inactive)
REMARK    1  A    between atoms: C_15  and  C_6 
REMARK    2  A    between atoms: O_16  and  C_9 
REMARK    3  A    between atoms: O_17  and  C_10 
REMARK    4  A    between atoms: O_21  and  C_15 
ROOT
HETATM    1  C   UNK N   1      26.364  16.243   6.033  0.00  0.00     0.004 A 
HETATM    2  C   UNK N   1      27.378  16.569   6.928  0.00  0.00     0.017 A 
HETATM    3  C   UNK N   1      26.655  16.081   4.680  0.00  0.00     0.037 A 
HETATM    4  C   UNK N   1      32.117  17.587   7.931  0.00  0.00     0.035 A 
HETATM    5  C   UNK N   1      33.802  17.619   6.207  0.00  0.00     0.055 A 
HETATM    6  C   UNK N   1      33.444  17.767   7.552  0.00  0.00     0.041 A 
HETATM    7  C   UNK N   1      28.695  16.736   6.479  0.00  0.00     0.032 A 
HETATM    8  C   UNK N   1      31.139  17.261   6.994  0.00  0.00     0.033 A 
HETATM    9  C   UNK N   1      27.962  16.244   4.211  0.00  0.00     0.080 A 
HETATM   10  C   UNK N   1      32.836  17.291   5.247  0.00  0.00     0.082 A 
HETATM   11  C   UNK N   1      29.004  16.575   5.110  0.00  0.00     0.062 A 
HETATM   12  C   UNK N   1      31.484  17.108   5.633  0.00  0.00     0.062 A 
HETATM   13  C   UNK N   1      29.750  17.081   7.448  0.00  0.00     0.194 A 
HETATM   14  C   UNK N   1      30.415  16.758   4.650  0.00  0.00     0.199 A 
HETATM   15  O   UNK N   1      29.472  17.219   8.632  0.00  0.00    -0.287 OA
HETATM   16  O   UNK N   1      30.696  16.621   3.467  0.00  0.00    -0.286 OA
ENDROOT
BRANCH   6  17
HETATM   17  C   UNK N   1      34.446  18.111   8.575  0.00  0.00     0.176 C 
HETATM   18  O   UNK N   1      35.215  19.044   8.392  0.00  0.00    -0.646 OA
BRANCH  17  19
HETATM   19  O   UNK N   1      34.525  17.404   9.718  0.00  0.00    -0.773 OA
HETATM   20  H   UNK N   1      34.715  16.486   9.688  0.00  0.00     0.167 HD
ENDBRANCH  17  19
ENDBRANCH   6  17
BRANCH  10  21
HETATM   21  O   UNK N   1      33.215  17.157   3.963  0.00  0.00    -0.360 OA
HETATM   22  H   UNK N   1      34.055  17.468   3.688  0.00  0.00     0.217 HD
ENDBRANCH  10  21
BRANCH   9  23
HETATM   23  O   UNK N   1      28.203  16.079   2.898  0.00  0.00    -0.360 OA
HETATM   24  H   UNK N   1      28.176  15.223   2.522  0.00  0.00     0.217 HD
ENDBRANCH   9  23
TORSDOF 4
ENDMDL
MODEL 2
REMARK VINA RESULT:      -6.8      3.463      5.326
REMARK  4 active torsions:
REMARK  status: ('A' for Active; 'I' for Inactive)
REMARK    1  A    between atoms: C_15  and  C_6 
REMARK    2  A    between atoms: O_16  and  C_9 
REMARK    3  A    between atoms: O_17  and  C_10 
REMARK    4  A    between atoms: O_21  and  C_15 
ROOT
HETATM    1  C   UNK N   1      31.779  14.828   4.685  0.00  0.00     0.004 A 
HETATM    2  C   UNK N   1      32.065  14.214   5.901  0.00  0.00     0.017 A 
HETATM    3  C   UNK N   1      32.250  16.113   4.427  0.00  0.00     0.037 A 
HETATM    4  C   UNK N   1      34.172  14.229  10.379  0.00  0.00     0.035 A 
HETATM    5  C   UNK N   1      35.424  16.124  11.187  0.00  0.00     0.055 A 
HETATM    6  C   UNK N   1      34.921  14.833  11.384  0.00  0.00     0.041 A 
HETATM    7  C   UNK N   1      32.826  14.878   6.870  0.00  0.00     0.032 A 
HETATM    8  C   UNK N   1      33.914  14.889   9.180  0.00  0.00     0.033 A 
HETATM    9  C   UNK N   1      33.011  16.795   5.381  0.00  0.00     0.080 A 
HETATM   10  C   UNK N   1      35.177  16.807   9.989  0.00  0.00     0.082 A 
HETATM   11  C   UNK N   1      33.310  16.182   6.622  0.00  0.00     0.062 A 
HETATM   12  C   UNK N   1      34.414  16.192   8.966  0.00  0.00     0.062 A 
HETATM   13  C   UNK N   1      33.115  14.205   8.149  0.00  0.00     0.194 A 
HETATM   14  C   UNK N   1      34.122  16.876   7.670  0.00  0.00     0.199 A 
HETATM   15  O   UNK N   1      32.691  13.075   8.355  0.00  0.00    -0.287 OA
HETATM   16  O   UNK N   1      34.547  18.005   7.467  0.00  0.00    -0.286 OA
ENDROOT
BRANCH   6  17
HETATM   17  C   UNK N   1      35.171  14.100  12.638  0.00  0.00     0.176 C 
HETATM   18  O   UNK N   1      36.014  14.502  13.426  0.00  0.00    -0.646 OA
BRANCH  17  19
HETATM   19  O   UNK N   1      34.475  12.983  12.925  0.00  0.00    -0.773 OA
HETATM   20  H   UNK N   1      33.628  13.048  13.319  0.00  0.00     0.167 HD
ENDBRANCH  17  19
ENDBRANCH   6  17
BRANCH  10  21
HETATM   21  O   UNK N   1      35.676  18.047   9.834  0.00  0.00    -0.360 OA
HETATM   22  H   UNK N   1      35.220  18.784  10.192  0.00  0.00     0.217 HD
ENDBRANCH  10  21
BRANCH   9  23
HETATM   23  O   UNK N   1      33.448  18.034   5.095  0.00  0.00    -0.360 OA
HETATM   24  H   UNK N   1      32.848  18.752   5.090  0.00  0.00     0.217 HD
ENDBRANCH   9  23
TORSDOF 4
ENDMDL
MODEL 3
REMARK VINA RESULT:      -6.8      3.005      6.795
REMARK  4 active torsions:
REMARK  status: ('A' for Active; 'I' for Inactive)
REMARK    1  A    between atoms: C_15  and  C_6 
REMARK    2  A    between atoms: O_16  and  C_9 
REMARK    3  A    between atoms: O_17  and  C_10 
REMARK    4  A    between atoms: O_21  and  C_15 
ROOT
HETATM    1  C   UNK N   1      31.820  15.564   6.616  0.00  0.00     0.004 A 
HETATM    2  C   UNK N   1      31.003  16.069   5.608  0.00  0.00     0.017 A 
HETATM    3  C   UNK N   1      31.656  16.004   7.928  0.00  0.00     0.037 A 
HETATM    4  C   UNK N   1      27.332  19.004   4.060  0.00  0.00     0.035 A 
HETATM    5  C   UNK N   1      26.118  20.429   5.579  0.00  0.00     0.055 A 
HETATM    6  C   UNK N   1      26.333  19.947   4.282  0.00  0.00     0.041 A 
HETATM    7  C   UNK N   1      30.016  17.017   5.901  0.00  0.00     0.032 A 
HETATM    8  C   UNK N   1      28.122  18.532   5.105  0.00  0.00     0.033 A 
HETATM    9  C   UNK N   1      30.676  16.950   8.243  0.00  0.00     0.080 A 
HETATM   10  C   UNK N   1      26.900  19.969   6.646  0.00  0.00     0.082 A 
HETATM   11  C   UNK N   1      29.839  17.471   7.228  0.00  0.00     0.062 A 
HETATM   12  C   UNK N   1      27.917  19.008   6.419  0.00  0.00     0.062 A 
HETATM   13  C   UNK N   1      29.165  17.534   4.815  0.00  0.00     0.194 A 
HETATM   14  C   UNK N   1      28.779  18.485   7.521  0.00  0.00     0.199 A 
HETATM   15  O   UNK N   1      29.326  17.135   3.669  0.00  0.00    -0.287 OA
HETATM   16  O   UNK N   1      28.616  18.886   8.665  0.00  0.00    -0.286 OA
ENDROOT
BRANCH   6  17
HETATM   17  C   UNK N   1      25.521  20.420   3.148  0.00  0.00     0.176 C 
HETATM   18  O   UNK N   1      24.335  20.130   3.080  0.00  0.00    -0.646 OA
BRANCH  17  19
HETATM   19  O   UNK N   1      26.075  21.173   2.179  0.00  0.00    -0.773 OA
HETATM   20  H   UNK N   1      25.535  21.546   1.510  0.00  0.00     0.167 HD
ENDBRANCH  17  19
ENDBRANCH   6  17
BRANCH  10  21
HETATM   21  O   UNK N   1      26.666  20.454   7.879  0.00  0.00    -0.360 OA
HETATM   22  H   UNK N   1      25.947  21.038   8.024  0.00  0.00     0.217 HD
ENDBRANCH  10  21
BRANCH   9  23
HETATM   23  O   UNK N   1      30.550  17.349   9.521  0.00  0.00    -0.360 OA
HETATM   24  H   UNK N   1      30.475  18.260   9.721  0.00  0.00     0.217 HD
ENDBRANCH   9  23
TORSDOF 4
ENDMDL
MODEL 4
REMARK VINA RESULT:      -6.8     11.074     12.883
REMARK  4 active torsions:
REMARK  status: ('A' for Active; 'I' for Inactive)
REMARK    1  A    between atoms: C_15  and  C_6 
REMARK    2  A    between atoms: O_16  and  C_9 
REMARK    3  A    between atoms: O_17  and  C_10 
REMARK    4  A    between atoms: O_21  and  C_15 
ROOT
HETATM    1  C   UNK N   1      25.796  24.485  -6.756  0.00  0.00     0.004 A 
HETATM    2  C   UNK N   1      26.830  23.576  -6.957  0.00  0.00     0.017 A 
HETATM    3  C   UNK N   1      25.667  25.131  -5.529  0.00  0.00     0.037 A 
HETATM    4  C   UNK N   1      30.819  21.119  -5.360  0.00  0.00     0.035 A 
HETATM    5  C   UNK N   1      31.686  21.419  -3.131  0.00  0.00     0.055 A 
HETATM    6  C   UNK N   1      31.761  20.804  -4.386  0.00  0.00     0.041 A 
HETATM    7  C   UNK N   1      27.745  23.303  -5.933  0.00  0.00     0.032 A 
HETATM    8  C   UNK N   1      29.802  22.038  -5.107  0.00  0.00     0.033 A 
HETATM    9  C   UNK N   1      26.569  24.874  -4.493  0.00  0.00     0.080 A 
HETATM   10  C   UNK N   1      30.673  22.345  -2.854  0.00  0.00     0.082 A 
HETATM   11  C   UNK N   1      27.626  23.952  -4.683  0.00  0.00     0.062 A 
HETATM   12  C   UNK N   1      29.714  22.667  -3.846  0.00  0.00     0.062 A 
HETATM   13  C   UNK N   1      28.831  22.336  -6.173  0.00  0.00     0.194 A 
HETATM   14  C   UNK N   1      28.613  23.648  -3.602  0.00  0.00     0.199 A 
HETATM   15  O   UNK N   1      28.926  21.780  -7.259  0.00  0.00    -0.287 OA
HETATM   16  O   UNK N   1      28.521  24.202  -2.515  0.00  0.00    -0.286 OA
ENDROOT
BRANCH   6  17
HETATM   17  C   UNK N   1      32.820  19.827  -4.696  0.00  0.00     0.176 C 
HETATM   18  O   UNK N   1      33.494  19.953  -5.707  0.00  0.00    -0.646 OA
BRANCH  17  19
HETATM   19  O   UNK N   1      33.053  18.789  -3.870  0.00  0.00    -0.773 OA
HETATM   20  H   UNK N   1      33.411  17.992  -4.209  0.00  0.00     0.167 HD
ENDBRANCH  17  19
ENDBRANCH   6  17
BRANCH  10  21
HETATM   21  O   UNK N   1      30.632  22.917  -1.636  0.00  0.00    -0.360 OA
HETATM   22  H   UNK N   1      29.821  23.245  -1.300  0.00  0.00     0.217 HD
ENDBRANCH  10  21
BRANCH   9  23
HETATM   23  O   UNK N   1      26.411  25.518  -3.323  0.00  0.00    -0.360 OA
HETATM   24  H   UNK N   1      25.565  25.828  -3.070  0.00  0.00     0.217 HD
ENDBRANCH   9  23
TORSDOF 4
ENDMDL
MODEL 5
REMARK VINA RESULT:      -6.7     11.824     14.668
REMARK  4 active torsions:
REMARK  status: ('A' for Active; 'I' for Inactive)
REMARK    1  A    between atoms: C_15  and  C_6 
REMARK    2  A    between atoms: O_16  and  C_9 
REMARK    3  A    between atoms: O_17  and  C_10 
REMARK    4  A    between atoms: O_21  and  C_15 
ROOT
HETATM    1  C   UNK N   1      32.200  20.652  -4.153  0.00  0.00     0.004 A 
HETATM    2  C   UNK N   1      31.313  20.804  -5.216  0.00  0.00     0.017 A 
HETATM    3  C   UNK N   1      32.022  21.394  -2.988  0.00  0.00     0.037 A 
HETATM    4  C   UNK N   1      27.326  22.894  -7.273  0.00  0.00     0.035 A 
HETATM    5  C   UNK N   1      26.008  24.539  -6.104  0.00  0.00     0.055 A 
HETATM    6  C   UNK N   1      26.241  23.765  -7.247  0.00  0.00     0.041 A 
HETATM    7  C   UNK N   1      30.241  21.700  -5.123  0.00  0.00     0.032 A 
HETATM    8  C   UNK N   1      28.184  22.779  -6.182  0.00  0.00     0.033 A 
HETATM    9  C   UNK N   1      30.958  22.294  -2.874  0.00  0.00     0.080 A 
HETATM   10  C   UNK N   1      26.857  24.441  -4.994  0.00  0.00     0.082 A 
HETATM   11  C   UNK N   1      30.049  22.459  -3.946  0.00  0.00     0.062 A 
HETATM   12  C   UNK N   1      27.962  23.554  -5.022  0.00  0.00     0.062 A 
HETATM   13  C   UNK N   1      29.317  21.842  -6.262  0.00  0.00     0.194 A 
HETATM   14  C   UNK N   1      28.898  23.410  -3.866  0.00  0.00     0.199 A 
HETATM   15  O   UNK N   1      29.491  21.180  -7.277  0.00  0.00    -0.287 OA
HETATM   16  O   UNK N   1      28.721  24.073  -2.853  0.00  0.00    -0.286 OA
ENDROOT
BRANCH   6  17
HETATM   17  C   UNK N   1      25.359  23.855  -8.423  0.00  0.00     0.176 C 
HETATM   18  O   UNK N   1      24.445  23.057  -8.566  0.00  0.00    -0.646 OA
BRANCH  17  19
HETATM   19  O   UNK N   1      25.551  24.815  -9.348  0.00  0.00    -0.773 OA
HETATM   20  H   UNK N   1      25.729  24.579 -10.237  0.00  0.00     0.167 HD
ENDBRANCH  17  19
ENDBRANCH   6  17
BRANCH  10  21
HETATM   21  O   UNK N   1      26.603  25.200  -3.913  0.00  0.00    -0.360 OA
HETATM   22  H   UNK N   1      27.090  25.068  -3.123  0.00  0.00     0.217 HD
ENDBRANCH  10  21
BRANCH   9  23
HETATM   23  O   UNK N   1      30.821  22.992  -1.733  0.00  0.00    -0.360 OA
HETATM   24  H   UNK N   1      30.414  23.834  -1.746  0.00  0.00     0.217 HD
ENDBRANCH   9  23
TORSDOF 4
ENDMDL
MODEL 6
REMARK VINA RESULT:      -6.7     12.420     14.576
REMARK  4 active torsions:
REMARK  status: ('A' for Active; 'I' for Inactive)
REMARK    1  A    between atoms: C_15  and  C_6 
REMARK    2  A    between atoms: O_16  and  C_9 
REMARK    3  A    between atoms: O_17  and  C_10 
REMARK    4  A    between atoms: O_21  and  C_15 
ROOT
HETATM    1  C   UNK N   1      31.089  20.647  -5.467  0.00  0.00     0.004 A 
HETATM    2  C   UNK N   1      30.615  21.725  -4.726  0.00  0.00     0.017 A 
HETATM    3  C   UNK N   1      30.437  20.266  -6.637  0.00  0.00     0.037 A 
HETATM    4  C   UNK N   1      27.381  25.401  -3.998  0.00  0.00     0.035 A 
HETATM    5  C   UNK N   1      25.565  25.816  -5.527  0.00  0.00     0.055 A 
HETATM    6  C   UNK N   1      26.265  26.147  -4.361  0.00  0.00     0.041 A 
HETATM    7  C   UNK N   1      29.484  22.435  -5.149  0.00  0.00     0.032 A 
HETATM    8  C   UNK N   1      27.814  24.330  -4.776  0.00  0.00     0.033 A 
HETATM    9  C   UNK N   1      29.306  20.960  -7.077  0.00  0.00     0.080 A 
HETATM   10  C   UNK N   1      25.981  24.743  -6.325  0.00  0.00     0.082 A 
HETATM   11  C   UNK N   1      28.813  22.059  -6.334  0.00  0.00     0.062 A 
HETATM   12  C   UNK N   1      27.119  23.983  -5.955  0.00  0.00     0.062 A 
HETATM   13  C   UNK N   1      29.003  23.573  -4.346  0.00  0.00     0.194 A 
HETATM   14  C   UNK N   1      27.606  22.829  -6.769  0.00  0.00     0.199 A 
HETATM   15  O   UNK N   1      29.591  23.890  -3.321  0.00  0.00    -0.287 OA
HETATM   16  O   UNK N   1      27.016  22.514  -7.794  0.00  0.00    -0.286 OA
ENDROOT
BRANCH   6  17
HETATM   17  C   UNK N   1      25.841  27.273  -3.510  0.00  0.00     0.176 C 
HETATM   18  O   UNK N   1      25.932  27.191  -2.294  0.00  0.00    -0.646 OA
BRANCH  17  19
HETATM   19  O   UNK N   1      25.350  28.399  -4.063  0.00  0.00    -0.773 OA
HETATM   20  H   UNK N   1      24.992  28.378  -4.929  0.00  0.00     0.167 HD
ENDBRANCH  17  19
ENDBRANCH   6  17
BRANCH  10  21
HETATM   21  O   UNK N   1      25.285  24.452  -7.439  0.00  0.00    -0.360 OA
HETATM   22  H   UNK N   1      24.348  24.464  -7.422  0.00  0.00     0.217 HD
ENDBRANCH  10  21
BRANCH   9  23
HETATM   23  O   UNK N   1      28.704  20.562  -8.212  0.00  0.00    -0.360 OA
HETATM   24  H   UNK N   1      29.168  20.029  -8.826  0.00  0.00     0.217 HD
ENDBRANCH   9  23
TORSDOF 4
ENDMDL
MODEL 7
REMARK VINA RESULT:      -6.7     10.684     13.097
REMARK  4 active torsions:
REMARK  status: ('A' for Active; 'I' for Inactive)
REMARK    1  A    between atoms: C_15  and  C_6 
REMARK    2  A    between atoms: O_16  and  C_9 
REMARK    3  A    between atoms: O_17  and  C_10 
REMARK    4  A    between atoms: O_21  and  C_15 
ROOT
HETATM    1  C   UNK N   1      33.034  19.628  -6.782  0.00  0.00     0.004 A 
HETATM    2  C   UNK N   1      31.877  20.393  -6.887  0.00  0.00     0.017 A 
HETATM    3  C   UNK N   1      33.680  19.510  -5.553  0.00  0.00     0.037 A 
HETATM    4  C   UNK N   1      28.401  23.299  -4.892  0.00  0.00     0.035 A 
HETATM    5  C   UNK N   1      28.430  23.894  -2.557  0.00  0.00     0.055 A 
HETATM    6  C   UNK N   1      27.829  23.973  -3.818  0.00  0.00     0.041 A 
HETATM    7  C   UNK N   1      31.353  21.047  -5.764  0.00  0.00     0.032 A 
HETATM    8  C   UNK N   1      29.562  22.546  -4.733  0.00  0.00     0.033 A 
HETATM    9  C   UNK N   1      33.176  20.154  -4.420  0.00  0.00     0.080 A 
HETATM   10  C   UNK N   1      29.598  23.143  -2.373  0.00  0.00     0.082 A 
HETATM   11  C   UNK N   1      31.999  20.935  -4.512  0.00  0.00     0.062 A 
HETATM   12  C   UNK N   1      30.180  22.456  -3.467  0.00  0.00     0.062 A 
HETATM   13  C   UNK N   1      30.126  21.851  -5.903  0.00  0.00     0.194 A 
HETATM   14  C   UNK N   1      31.425  21.641  -3.325  0.00  0.00     0.199 A 
HETATM   15  O   UNK N   1      29.574  21.942  -6.992  0.00  0.00    -0.287 OA
HETATM   16  O   UNK N   1      31.974  21.552  -2.236  0.00  0.00    -0.286 OA
ENDROOT
BRANCH   6  17
HETATM   17  C   UNK N   1      26.600  24.758  -4.031  0.00  0.00     0.176 C 
HETATM   18  O   UNK N   1      26.340  25.700  -3.297  0.00  0.00    -0.646 OA
BRANCH  17  19
HETATM   19  O   UNK N   1      25.756  24.446  -5.032  0.00  0.00    -0.773 OA
HETATM   20  H   UNK N   1      25.461  23.563  -5.138  0.00  0.00     0.167 HD
ENDBRANCH  17  19
ENDBRANCH   6  17
BRANCH  10  21
HETATM   21  O   UNK N   1      30.149  23.089  -1.146  0.00  0.00    -0.360 OA
HETATM   22  H   UNK N   1      30.151  23.850  -0.599  0.00  0.00     0.217 HD
ENDBRANCH  10  21
BRANCH   9  23
HETATM   23  O   UNK N   1      33.828  20.015  -3.253  0.00  0.00    -0.360 OA
HETATM   24  H   UNK N   1      33.768  19.211  -2.776  0.00  0.00     0.217 HD
ENDBRANCH   9  23
TORSDOF 4
ENDMDL
MODEL 8
REMARK VINA RESULT:      -6.5      8.575     11.074
REMARK  4 active torsions:
REMARK  status: ('A' for Active; 'I' for Inactive)
REMARK    1  A    between atoms: C_15  and  C_6 
REMARK    2  A    between atoms: O_16  and  C_9 
REMARK    3  A    between atoms: O_17  and  C_10 
REMARK    4  A    between atoms: O_21  and  C_15 
ROOT
HETATM    1  C   UNK N   1      23.853  11.766  10.213  0.00  0.00     0.004 A 
HETATM    2  C   UNK N   1      23.986  12.687   9.179  0.00  0.00     0.017 A 
HETATM    3  C   UNK N   1      22.654  11.676  10.915  0.00  0.00     0.037 A 
HETATM    4  C   UNK N   1      22.162  16.293   6.321  0.00  0.00     0.035 A 
HETATM    5  C   UNK N   1      19.913  17.117   6.596  0.00  0.00     0.055 A 
HETATM    6  C   UNK N   1      21.144  17.158   5.930  0.00  0.00     0.041 A 
HETATM    7  C   UNK N   1      22.920  13.529   8.836  0.00  0.00     0.032 A 
HETATM    8  C   UNK N   1      21.977  15.389   7.363  0.00  0.00     0.033 A 
HETATM    9  C   UNK N   1      21.577  12.507  10.590  0.00  0.00     0.080 A 
HETATM   10  C   UNK N   1      19.704  16.216   7.648  0.00  0.00     0.082 A 
HETATM   11  C   UNK N   1      21.698  13.449   9.540  0.00  0.00     0.062 A 
HETATM   12  C   UNK N   1      20.741  15.336   8.045  0.00  0.00     0.062 A 
HETATM   13  C   UNK N   1      23.087  14.496   7.737  0.00  0.00     0.194 A 
HETATM   14  C   UNK N   1      20.571  14.356   9.160  0.00  0.00     0.199 A 
HETATM   15  O   UNK N   1      24.150  14.558   7.133  0.00  0.00    -0.287 OA
HETATM   16  O   UNK N   1      19.508  14.296   9.762  0.00  0.00    -0.286 OA
ENDROOT
BRANCH   6  17
HETATM   17  C   UNK N   1      21.382  18.099   4.822  0.00  0.00     0.176 C 
HETATM   18  O   UNK N   1      21.919  17.713   3.794  0.00  0.00    -0.646 OA
BRANCH  17  19
HETATM   19  O   UNK N   1      21.011  19.389   4.931  0.00  0.00    -0.773 OA
HETATM   20  H   UNK N   1      20.936  19.921   4.163  0.00  0.00     0.167 HD
ENDBRANCH  17  19
ENDBRANCH   6  17
BRANCH  10  21
HETATM   21  O   UNK N   1      18.509  16.205   8.265  0.00  0.00    -0.360 OA
HETATM   22  H   UNK N   1      18.462  16.077   9.193  0.00  0.00     0.217 HD
ENDBRANCH  10  21
BRANCH   9  23
HETATM   23  O   UNK N   1      20.436  12.390  11.291  0.00  0.00    -0.360 OA
HETATM   24  H   UNK N   1      20.423  12.603  12.203  0.00  0.00     0.217 HD
ENDBRANCH   9  23
TORSDOF 4
ENDMDL
MODEL 9
REMARK VINA RESULT:      -6.5      2.694      4.254
REMARK  4 active torsions:
REMARK  status: ('A' for Active; 'I' for Inactive)
REMARK    1  A    between atoms: C_15  and  C_6 
REMARK    2  A    between atoms: O_16  and  C_9 
REMARK    3  A    between atoms: O_17  and  C_10 
REMARK    4  A    between atoms: O_21  and  C_15 
ROOT
HETATM    1  C   UNK N   1      26.687  19.994   3.985  0.00  0.00     0.004 A 
HETATM    2  C   UNK N   1      27.713  19.054   3.971  0.00  0.00     0.017 A 
HETATM    3  C   UNK N   1      26.250  20.529   5.195  0.00  0.00     0.037 A 
HETATM    4  C   UNK N   1      31.063  16.253   6.302  0.00  0.00     0.035 A 
HETATM    5  C   UNK N   1      31.309  16.299   8.700  0.00  0.00     0.055 A 
HETATM    6  C   UNK N   1      31.701  15.800   7.452  0.00  0.00     0.041 A 
HETATM    7  C   UNK N   1      28.313  18.639   5.167  0.00  0.00     0.032 A 
HETATM    8  C   UNK N   1      30.040  17.196   6.372  0.00  0.00     0.033 A 
HETATM    9  C   UNK N   1      26.835  20.130   6.400  0.00  0.00     0.080 A 
HETATM   10  C   UNK N   1      30.283  17.247   8.794  0.00  0.00     0.082 A 
HETATM   11  C   UNK N   1      27.880  19.175   6.401  0.00  0.00     0.062 A 
HETATM   12  C   UNK N   1      29.633  17.710   7.623  0.00  0.00     0.062 A 
HETATM   13  C   UNK N   1      29.398  17.643   5.124  0.00  0.00     0.194 A 
HETATM   14  C   UNK N   1      28.533  18.720   7.667  0.00  0.00     0.199 A 
HETATM   15  O   UNK N   1      29.766  17.186   4.050  0.00  0.00    -0.287 OA
HETATM   16  O   UNK N   1      28.168  19.175   8.742  0.00  0.00    -0.286 OA
ENDROOT
BRANCH   6  17
HETATM   17  C   UNK N   1      32.779  14.801   7.334  0.00  0.00     0.176 C 
HETATM   18  O   UNK N   1      33.511  14.803   6.356  0.00  0.00    -0.646 OA
BRANCH  17  19
HETATM   19  O   UNK N   1      32.965  13.881   8.299  0.00  0.00    -0.773 OA
HETATM   20  H   UNK N   1      33.454  14.101   9.068  0.00  0.00     0.167 HD
ENDBRANCH  17  19
ENDBRANCH   6  17
BRANCH  10  21
HETATM   21  O   UNK N   1      29.932  17.705  10.010  0.00  0.00    -0.360 OA
HETATM   22  H   UNK N   1      30.473  18.331  10.449  0.00  0.00     0.217 HD
ENDBRANCH  10  21
BRANCH   9  23
HETATM   23  O   UNK N   1      26.386  20.669   7.547  0.00  0.00    -0.360 OA
HETATM   24  H   UNK N   1      26.994  20.967   8.194  0.00  0.00     0.217 HD
ENDBRANCH   9  23
TORSDOF 4
ENDMDL
