MODEL 1
REMARK VINA RESULT:      -7.4      0.000      0.000
REMARK  2 active torsions:
REMARK  status: ('A' for Active; 'I' for Inactive)
REMARK    1  A    between atoms: C_3  and  O_21 
REMARK    2  A    between atoms: C_19  and  O_18 
ROOT
HETATM    1  C   UNK N   1      31.695  15.028   6.702  0.00  0.00     0.010 C 
HETATM    2  C   UNK N   1      29.905  16.774   5.039  0.00  0.00     0.009 C 
HETATM    3  C   UNK N   1      32.615  15.857   8.832  0.00  0.00     0.128 C 
HETATM    4  C   UNK N   1      30.840  17.792   9.163  0.00  0.00     0.014 C 
HETATM    5  C   UNK N   1      32.874  14.883   7.673  0.00  0.00     0.052 C 
HETATM    6  C   UNK N   1      27.944  18.511   6.487  0.00  0.00     0.019 C 
HETATM    7  C   UNK N   1      29.428  18.185   8.608  0.00  0.00     0.006 C 
HETATM    8  C   UNK N   1      28.562  17.102   4.372  0.00  0.00     0.034 C 
HETATM    9  C   UNK N   1      27.991  18.360   4.958  0.00  0.00    -0.077 C 
HETATM   10  C   UNK N   1      27.430  19.887   6.958  0.00  0.00     0.012 C 
HETATM   11  C   UNK N   1      27.597  19.332   4.120  0.00  0.00     0.007 C 
HETATM   12  C   UNK N   1      27.678  21.000   5.945  0.00  0.00     0.036 C 
HETATM   13  C   UNK N   1      29.681  16.714   6.552  0.00  0.00    -0.005 C 
HETATM   14  C   UNK N   1      29.339  18.144   7.065  0.00  0.00    -0.002 C 
HETATM   15  C   UNK N   1      31.702  16.941   8.189  0.00  0.00     0.003 C 
HETATM   16  C   UNK N   1      32.509  17.875   7.279  0.00  0.00     0.020 C 
HETATM   17  C   UNK N   1      30.783  16.031   7.386  0.00  0.00     0.002 C 
HETATM   18  C   UNK N   1      27.032  20.627   4.614  0.00  0.00     0.141 C 
HETATM   19  C   UNK N   1      33.901  16.296   9.392  0.00  0.00    -0.078 C 
HETATM   20  C   UNK N   1      34.972  16.581   9.868  0.00  0.00     0.015 C 
ENDROOT
BRANCH   3  21
HETATM   21  O   UNK N   1      31.922  15.169   9.837  0.00  0.00    -0.377 OA
HETATM   22  H   UNK N   1      31.775  14.762  10.705  0.00  0.00     0.211 HD
ENDBRANCH   3  21
BRANCH  18  23
HETATM   23  O   UNK N   1      25.645  20.514   4.754  0.00  0.00    -0.392 OA
HETATM   24  H   UNK N   1      24.847  20.275   4.258  0.00  0.00     0.210 HD
ENDBRANCH  18  23
TORSDOF 2
ENDMDL
MODEL 2
REMARK VINA RESULT:      -7.2     11.403     14.767
REMARK  2 active torsions:
REMARK  status: ('A' for Active; 'I' for Inactive)
REMARK    1  A    between atoms: C_3  and  O_21 
REMARK    2  A    between atoms: C_19  and  O_18 
ROOT
HETATM    1  C   UNK N   1      29.070  27.678  -4.527  0.00  0.00     0.010 C 
HETATM    2  C   UNK N   1      31.096  25.489  -4.873  0.00  0.00     0.009 C 
HETATM    3  C   UNK N   1      26.684  27.134  -4.240  0.00  0.00     0.128 C 
HETATM    4  C   UNK N   1      27.063  24.624  -3.493  0.00  0.00     0.014 C 
HETATM    5  C   UNK N   1      27.649  28.216  -4.746  0.00  0.00     0.052 C 
HETATM    6  C   UNK N   1      30.719  22.996  -3.259  0.00  0.00     0.019 C 
HETATM    7  C   UNK N   1      28.235  23.733  -2.953  0.00  0.00     0.006 C 
HETATM    8  C   UNK N   1      32.331  24.695  -4.424  0.00  0.00     0.034 C 
HETATM    9  C   UNK N   1      31.950  23.271  -4.138  0.00  0.00    -0.077 C 
HETATM   10  C   UNK N   1      30.377  21.498  -3.126  0.00  0.00     0.012 C 
HETATM   11  C   UNK N   1      32.668  22.292  -4.711  0.00  0.00     0.007 C 
HETATM   12  C   UNK N   1      30.846  20.666  -4.315  0.00  0.00     0.036 C 
HETATM   13  C   UNK N   1      30.017  25.334  -3.798  0.00  0.00    -0.005 C 
HETATM   14  C   UNK N   1      29.534  23.854  -3.784  0.00  0.00    -0.002 C 
HETATM   15  C   UNK N   1      27.517  25.825  -4.368  0.00  0.00     0.003 C 
HETATM   16  C   UNK N   1      27.621  25.376  -5.831  0.00  0.00     0.020 C 
HETATM   17  C   UNK N   1      28.850  26.341  -3.843  0.00  0.00     0.002 C 
HETATM   18  C   UNK N   1      32.351  20.845  -4.497  0.00  0.00     0.141 C 
HETATM   19  C   UNK N   1      25.427  27.216  -4.997  0.00  0.00    -0.078 C 
HETATM   20  C   UNK N   1      24.386  27.356  -5.589  0.00  0.00     0.015 C 
ENDROOT
BRANCH   3  21
HETATM   21  O   UNK N   1      26.394  27.399  -2.895  0.00  0.00    -0.377 OA
HETATM   22  H   UNK N   1      26.312  27.221  -1.946  0.00  0.00     0.211 HD
ENDBRANCH   3  21
BRANCH  18  23
HETATM   23  O   UNK N   1      33.042  20.372  -3.378  0.00  0.00    -0.392 OA
HETATM   24  H   UNK N   1      33.914  20.047  -3.102  0.00  0.00     0.210 HD
ENDBRANCH  18  23
TORSDOF 2
ENDMDL
MODEL 3
REMARK VINA RESULT:      -7.1      9.722     13.436
REMARK  2 active torsions:
REMARK  status: ('A' for Active; 'I' for Inactive)
REMARK    1  A    between atoms: C_3  and  O_21 
REMARK    2  A    between atoms: C_19  and  O_18 
ROOT
HETATM    1  C   UNK N   1      35.660  13.810  13.680  0.00  0.00     0.010 C 
HETATM    2  C   UNK N   1      35.798  13.492  16.663  0.00  0.00     0.009 C 
HETATM    3  C   UNK N   1      36.166  11.907  12.199  0.00  0.00     0.128 C 
HETATM    4  C   UNK N   1      35.800  10.031  14.029  0.00  0.00     0.014 C 
HETATM    5  C   UNK N   1      36.175  13.440  12.283  0.00  0.00     0.052 C 
HETATM    6  C   UNK N   1      34.829  10.906  17.818  0.00  0.00     0.019 C 
HETATM    7  C   UNK N   1      35.117   9.890  15.433  0.00  0.00     0.006 C 
HETATM    8  C   UNK N   1      35.166  13.489  18.061  0.00  0.00     0.034 C 
HETATM    9  C   UNK N   1      35.257  12.117  18.664  0.00  0.00    -0.077 C 
HETATM   10  C   UNK N   1      35.067   9.550  18.514  0.00  0.00     0.012 C 
HETATM   11  C   UNK N   1      35.767  11.996  19.900  0.00  0.00     0.007 C 
HETATM   12  C   UNK N   1      36.202   9.589  19.533  0.00  0.00     0.036 C 
HETATM   13  C   UNK N   1      35.121  12.398  15.834  0.00  0.00    -0.005 C 
HETATM   14  C   UNK N   1      35.508  11.010  16.424  0.00  0.00    -0.002 C 
HETATM   15  C   UNK N   1      36.281  11.468  13.688  0.00  0.00     0.003 C 
HETATM   16  C   UNK N   1      37.710  11.662  14.212  0.00  0.00     0.020 C 
HETATM   17  C   UNK N   1      35.317  12.470  14.306  0.00  0.00     0.002 C 
HETATM   18  C   UNK N   1      35.913  10.667  20.573  0.00  0.00     0.141 C 
HETATM   19  C   UNK N   1      37.221  11.466  11.276  0.00  0.00    -0.078 C 
HETATM   20  C   UNK N   1      38.051  11.145  10.463  0.00  0.00     0.015 C 
ENDROOT
BRANCH   3  21
HETATM   21  O   UNK N   1      34.934  11.504  11.666  0.00  0.00    -0.377 OA
HETATM   22  H   UNK N   1      34.101  11.012  11.611  0.00  0.00     0.211 HD
ENDBRANCH   3  21
BRANCH  18  23
HETATM   23  O   UNK N   1      34.746  10.368  21.283  0.00  0.00    -0.392 OA
HETATM   24  H   UNK N   1      34.401  10.296  22.187  0.00  0.00     0.210 HD
ENDBRANCH  18  23
TORSDOF 2
ENDMDL
MODEL 4
REMARK VINA RESULT:      -7.1      9.894     14.393
REMARK  2 active torsions:
REMARK  status: ('A' for Active; 'I' for Inactive)
REMARK    1  A    between atoms: C_3  and  O_21 
REMARK    2  A    between atoms: C_19  and  O_18 
ROOT
HETATM    1  C   UNK N   1      37.457  10.553  14.452  0.00  0.00     0.010 C 
HETATM    2  C   UNK N   1      36.103   8.467  16.134  0.00  0.00     0.009 C 
HETATM    3  C   UNK N   1      36.636  12.876  14.448  0.00  0.00     0.128 C 
HETATM    4  C   UNK N   1      35.306  12.701  16.729  0.00  0.00     0.014 C 
HETATM    5  C   UNK N   1      37.375  11.829  13.603  0.00  0.00     0.052 C 
HETATM    6  C   UNK N   1      35.130   9.298  18.840  0.00  0.00     0.019 C 
HETATM    7  C   UNK N   1      35.258  11.758  17.981  0.00  0.00     0.006 C 
HETATM    8  C   UNK N   1      36.087   7.436  17.271  0.00  0.00     0.034 C 
HETATM    9  C   UNK N   1      35.101   7.849  18.326  0.00  0.00    -0.077 C 
HETATM   10  C   UNK N   1      34.005   9.620  19.844  0.00  0.00     0.012 C 
HETATM   11  C   UNK N   1      34.192   6.950  18.735  0.00  0.00     0.007 C 
HETATM   12  C   UNK N   1      32.766   8.748  19.659  0.00  0.00     0.036 C 
HETATM   13  C   UNK N   1      36.380   9.843  16.745  0.00  0.00    -0.005 C 
HETATM   14  C   UNK N   1      35.159  10.258  17.618  0.00  0.00    -0.002 C 
HETATM   15  C   UNK N   1      35.782  12.011  15.421  0.00  0.00     0.003 C 
HETATM   16  C   UNK N   1      34.573  11.401  14.701  0.00  0.00     0.020 C 
HETATM   17  C   UNK N   1      36.819  10.954  15.770  0.00  0.00     0.002 C 
HETATM   18  C   UNK N   1      33.160   7.278  19.769  0.00  0.00     0.141 C 
HETATM   19  C   UNK N   1      35.923  13.802  13.557  0.00  0.00    -0.078 C 
HETATM   20  C   UNK N   1      35.408  14.582  12.795  0.00  0.00     0.015 C 
ENDROOT
BRANCH   3  21
HETATM   21  O   UNK N   1      37.589  13.616  15.162  0.00  0.00    -0.377 OA
HETATM   22  H   UNK N   1      37.950  14.141  15.892  0.00  0.00     0.211 HD
ENDBRANCH   3  21
BRANCH  18  23
HETATM   23  O   UNK N   1      33.662   6.997  21.043  0.00  0.00    -0.392 OA
HETATM   24  H   UNK N   1      33.993   6.264  21.586  0.00  0.00     0.210 HD
ENDBRANCH  18  23
TORSDOF 2
ENDMDL
MODEL 5
REMARK VINA RESULT:      -6.9     11.294     15.020
REMARK  2 active torsions:
REMARK  status: ('A' for Active; 'I' for Inactive)
REMARK    1  A    between atoms: C_3  and  O_21 
REMARK    2  A    between atoms: C_19  and  O_18 
ROOT
HETATM    1  C   UNK N   1      27.040  24.921  -4.236  0.00  0.00     0.010 C 
HETATM    2  C   UNK N   1      29.640  23.788  -3.252  0.00  0.00     0.009 C 
HETATM    3  C   UNK N   1      26.434  24.763  -6.619  0.00  0.00     0.128 C 
HETATM    4  C   UNK N   1      28.102  22.790  -7.195  0.00  0.00     0.014 C 
HETATM    5  C   UNK N   1      26.225  25.597  -5.348  0.00  0.00     0.052 C 
HETATM    6  C   UNK N   1      30.561  21.206  -4.455  0.00  0.00     0.019 C 
HETATM    7  C   UNK N   1      28.927  21.700  -6.428  0.00  0.00     0.006 C 
HETATM    8  C   UNK N   1      30.463  22.815  -2.395  0.00  0.00     0.034 C 
HETATM    9  C   UNK N   1      31.264  21.903  -3.278  0.00  0.00    -0.077 C 
HETATM   10  C   UNK N   1      31.513  20.379  -5.342  0.00  0.00     0.012 C 
HETATM   11  C   UNK N   1      32.579  21.778  -3.041  0.00  0.00     0.007 C 
HETATM   12  C   UNK N   1      32.951  20.889  -5.319  0.00  0.00     0.036 C 
HETATM   13  C   UNK N   1      28.797  22.963  -4.228  0.00  0.00    -0.005 C 
HETATM   14  C   UNK N   1      29.748  22.267  -5.246  0.00  0.00    -0.002 C 
HETATM   15  C   UNK N   1      27.809  24.075  -6.373  0.00  0.00     0.003 C 
HETATM   16  C   UNK N   1      28.964  25.067  -6.555  0.00  0.00     0.020 C 
HETATM   17  C   UNK N   1      27.623  23.692  -4.911  0.00  0.00     0.002 C 
HETATM   18  C   UNK N   1      33.459  20.906  -3.880  0.00  0.00     0.141 C 
HETATM   19  C   UNK N   1      26.312  25.635  -7.796  0.00  0.00    -0.078 C 
HETATM   20  C   UNK N   1      26.138  26.366  -8.739  0.00  0.00     0.015 C 
ENDROOT
BRANCH   3  21
HETATM   21  O   UNK N   1      25.415  23.804  -6.688  0.00  0.00    -0.377 OA
HETATM   22  H   UNK N   1      24.515  23.448  -6.628  0.00  0.00     0.211 HD
ENDBRANCH   3  21
BRANCH  18  23
HETATM   23  O   UNK N   1      33.483  19.612  -3.351  0.00  0.00    -0.392 OA
HETATM   24  H   UNK N   1      32.975  19.012  -2.783  0.00  0.00     0.210 HD
ENDBRANCH  18  23
TORSDOF 2
ENDMDL
MODEL 6
REMARK VINA RESULT:      -6.9     11.173     13.371
REMARK  2 active torsions:
REMARK  status: ('A' for Active; 'I' for Inactive)
REMARK    1  A    between atoms: C_3  and  O_21 
REMARK    2  A    between atoms: C_19  and  O_18 
ROOT
HETATM    1  C   UNK N   1      30.259  21.900  -6.261  0.00  0.00     0.010 C 
HETATM    2  C   UNK N   1      28.729  24.456  -6.636  0.00  0.00     0.009 C 
HETATM    3  C   UNK N   1      31.207  21.326  -4.060  0.00  0.00     0.128 C 
HETATM    4  C   UNK N   1      29.656  22.952  -2.662  0.00  0.00     0.014 C 
HETATM    5  C   UNK N   1      31.386  21.119  -5.571  0.00  0.00     0.052 C 
HETATM    6  C   UNK N   1      26.938  25.330  -4.402  0.00  0.00     0.019 C 
HETATM    7  C   UNK N   1      28.314  23.739  -2.859  0.00  0.00     0.006 C 
HETATM    8  C   UNK N   1      27.452  25.241  -6.965  0.00  0.00     0.034 C 
HETATM    9  C   UNK N   1      27.012  26.032  -5.768  0.00  0.00    -0.077 C 
HETATM   10  C   UNK N   1      26.572  26.274  -3.240  0.00  0.00     0.012 C 
HETATM   11  C   UNK N   1      26.756  27.340  -5.927  0.00  0.00     0.007 C 
HETATM   12  C   UNK N   1      26.975  27.724  -3.493  0.00  0.00     0.036 C 
HETATM   13  C   UNK N   1      28.456  23.607  -5.392  0.00  0.00    -0.005 C 
HETATM   14  C   UNK N   1      28.266  24.555  -4.171  0.00  0.00    -0.002 C 
HETATM   15  C   UNK N   1      30.442  22.679  -3.974  0.00  0.00     0.003 C 
HETATM   16  C   UNK N   1      31.377  23.861  -4.260  0.00  0.00     0.020 C 
HETATM   17  C   UNK N   1      29.449  22.462  -5.107  0.00  0.00     0.002 C 
HETATM   18  C   UNK N   1      26.328  28.211  -4.787  0.00  0.00     0.141 C 
HETATM   19  C   UNK N   1      32.518  21.243  -3.401  0.00  0.00    -0.078 C 
HETATM   20  C   UNK N   1      33.599  21.101  -2.888  0.00  0.00     0.015 C 
ENDROOT
BRANCH   3  21
HETATM   21  O   UNK N   1      30.411  20.284  -3.565  0.00  0.00    -0.377 OA
HETATM   22  H   UNK N   1      30.003  19.707  -2.901  0.00  0.00     0.211 HD
ENDBRANCH   3  21
BRANCH  18  23
HETATM   23  O   UNK N   1      24.935  28.195  -4.678  0.00  0.00    -0.392 OA
HETATM   24  H   UNK N   1      24.186  27.587  -4.578  0.00  0.00     0.210 HD
ENDBRANCH  18  23
TORSDOF 2
ENDMDL
MODEL 7
REMARK VINA RESULT:      -6.9      8.731     13.578
REMARK  2 active torsions:
REMARK  status: ('A' for Active; 'I' for Inactive)
REMARK    1  A    between atoms: C_3  and  O_21 
REMARK    2  A    between atoms: C_19  and  O_18 
ROOT
HETATM    1  C   UNK N   1      37.504  11.488  13.081  0.00  0.00     0.010 C 
HETATM    2  C   UNK N   1      36.799   9.278  14.987  0.00  0.00     0.009 C 
HETATM    3  C   UNK N   1      36.190  13.572  13.049  0.00  0.00     0.128 C 
HETATM    4  C   UNK N   1      35.136  13.269  15.458  0.00  0.00     0.014 C 
HETATM    5  C   UNK N   1      37.066  12.655  12.185  0.00  0.00     0.052 C 
HETATM    6  C   UNK N   1      35.906  10.061  17.735  0.00  0.00     0.019 C 
HETATM    7  C   UNK N   1      35.409  12.426  16.751  0.00  0.00     0.006 C 
HETATM    8  C   UNK N   1      37.112   8.349  16.168  0.00  0.00     0.034 C 
HETATM    9  C   UNK N   1      36.155   8.609  17.295  0.00  0.00    -0.077 C 
HETATM   10  C   UNK N   1      34.829  10.200  18.830  0.00  0.00     0.012 C 
HETATM   11  C   UNK N   1      35.508   7.565  17.836  0.00  0.00     0.007 C 
HETATM   12  C   UNK N   1      33.804   9.070  18.812  0.00  0.00     0.036 C 
HETATM   13  C   UNK N   1      36.816  10.720  15.502  0.00  0.00    -0.005 C 
HETATM   14  C   UNK N   1      35.615  10.919  16.472  0.00  0.00    -0.002 C 
HETATM   15  C   UNK N   1      35.637  12.611  14.143  0.00  0.00     0.003 C 
HETATM   16  C   UNK N   1      34.536  11.706  13.577  0.00  0.00     0.020 C 
HETATM   17  C   UNK N   1      36.910  11.830  14.436  0.00  0.00     0.002 C 
HETATM   18  C   UNK N   1      34.523   7.731  18.951  0.00  0.00     0.141 C 
HETATM   19  C   UNK N   1      35.214  14.259  12.191  0.00  0.00    -0.078 C 
HETATM   20  C   UNK N   1      34.474  14.854  11.448  0.00  0.00     0.015 C 
ENDROOT
BRANCH   3  21
HETATM   21  O   UNK N   1      37.013  14.548  13.628  0.00  0.00    -0.377 OA
HETATM   22  H   UNK N   1      37.315  15.183  14.295  0.00  0.00     0.211 HD
ENDBRANCH   3  21
BRANCH  18  23
HETATM   23  O   UNK N   1      35.185   7.653  20.180  0.00  0.00    -0.392 OA
HETATM   24  H   UNK N   1      35.893   8.074  20.692  0.00  0.00     0.210 HD
ENDBRANCH  18  23
TORSDOF 2
ENDMDL
MODEL 8
REMARK VINA RESULT:      -6.9     10.708     14.316
REMARK  2 active torsions:
REMARK  status: ('A' for Active; 'I' for Inactive)
REMARK    1  A    between atoms: C_3  and  O_21 
REMARK    2  A    between atoms: C_19  and  O_18 
ROOT
HETATM    1  C   UNK N   1      34.457   8.425  19.419  0.00  0.00     0.010 C 
HETATM    2  C   UNK N   1      34.984   9.514  16.671  0.00  0.00     0.009 C 
HETATM    3  C   UNK N   1      35.348   9.575  21.407  0.00  0.00     0.128 C 
HETATM    4  C   UNK N   1      35.737  11.909  20.222  0.00  0.00     0.014 C 
HETATM    5  C   UNK N   1      34.914   8.205  20.867  0.00  0.00     0.052 C 
HETATM    6  C   UNK N   1      34.940  12.488  16.336  0.00  0.00     0.019 C 
HETATM    7  C   UNK N   1      35.271  12.647  18.920  0.00  0.00     0.006 C 
HETATM    8  C   UNK N   1      34.525  10.109  15.333  0.00  0.00     0.034 C 
HETATM    9  C   UNK N   1      35.077  11.496  15.170  0.00  0.00    -0.077 C 
HETATM   10  C   UNK N   1      35.635  13.841  16.082  0.00  0.00     0.012 C 
HETATM   11  C   UNK N   1      35.721  11.796  14.032  0.00  0.00     0.007 C 
HETATM   12  C   UNK N   1      36.806  13.742  15.108  0.00  0.00     0.036 C 
HETATM   13  C   UNK N   1      34.578  10.483  17.784  0.00  0.00    -0.005 C 
HETATM   14  C   UNK N   1      35.414  11.789  17.641  0.00  0.00    -0.002 C 
HETATM   15  C   UNK N   1      35.738  10.359  20.120  0.00  0.00     0.003 C 
HETATM   16  C   UNK N   1      37.091   9.887  19.574  0.00  0.00     0.020 C 
HETATM   17  C   UNK N   1      34.588   9.924  19.222  0.00  0.00     0.002 C 
HETATM   18  C   UNK N   1      36.319  13.147  13.790  0.00  0.00     0.141 C 
HETATM   19  C   UNK N   1      36.387   9.386  22.429  0.00  0.00    -0.078 C 
HETATM   20  C   UNK N   1      37.188   9.189  23.309  0.00  0.00     0.015 C 
ENDROOT
BRANCH   3  21
HETATM   21  O   UNK N   1      34.242  10.173  22.026  0.00  0.00    -0.377 OA
HETATM   22  H   UNK N   1      33.763  10.784  22.607  0.00  0.00     0.211 HD
ENDBRANCH   3  21
BRANCH  18  23
HETATM   23  O   UNK N   1      35.370  13.982  13.193  0.00  0.00    -0.392 OA
HETATM   24  H   UNK N   1      34.521  14.418  13.368  0.00  0.00     0.210 HD
ENDBRANCH  18  23
TORSDOF 2
ENDMDL
MODEL 9
REMARK VINA RESULT:      -6.8      3.543      5.749
REMARK  2 active torsions:
REMARK  status: ('A' for Active; 'I' for Inactive)
REMARK    1  A    between atoms: C_3  and  O_21 
REMARK    2  A    between atoms: C_19  and  O_18 
ROOT
HETATM    1  C   UNK N   1      35.145  16.451  10.818  0.00  0.00     0.010 C 
HETATM    2  C   UNK N   1      33.081  17.058   8.723  0.00  0.00     0.009 C 
HETATM    3  C   UNK N   1      36.607  14.480  10.593  0.00  0.00     0.128 C 
HETATM    4  C   UNK N   1      36.248  14.168   7.990  0.00  0.00     0.014 C 
HETATM    5  C   UNK N   1      35.961  15.425  11.617  0.00  0.00     0.052 C 
HETATM    6  C   UNK N   1      33.829  16.557   5.867  0.00  0.00     0.019 C 
HETATM    7  C   UNK N   1      35.722  15.010   6.777  0.00  0.00     0.006 C 
HETATM    8  C   UNK N   1      32.477  17.944   7.626  0.00  0.00     0.034 C 
HETATM    9  C   UNK N   1      32.517  17.229   6.306  0.00  0.00    -0.077 C 
HETATM   10  C   UNK N   1      33.710  15.773   4.545  0.00  0.00     0.012 C 
HETATM   11  C   UNK N   1      31.386  17.154   5.587  0.00  0.00     0.007 C 
HETATM   12  C   UNK N   1      32.297  15.267   4.271  0.00  0.00     0.036 C 
HETATM   13  C   UNK N   1      34.487  16.645   8.278  0.00  0.00    -0.005 C 
HETATM   14  C   UNK N   1      34.365  15.699   7.047  0.00  0.00    -0.002 C 
HETATM   15  C   UNK N   1      35.655  14.579   9.365  0.00  0.00     0.003 C 
HETATM   16  C   UNK N   1      34.355  13.802   9.610  0.00  0.00     0.020 C 
HETATM   17  C   UNK N   1      35.418  16.083   9.370  0.00  0.00     0.002 C 
HETATM   18  C   UNK N   1      31.328  16.447   4.269  0.00  0.00     0.141 C 
HETATM   19  C   UNK N   1      36.791  13.157  11.206  0.00  0.00    -0.078 C 
HETATM   20  C   UNK N   1      36.988  12.105  11.762  0.00  0.00     0.015 C 
ENDROOT
BRANCH   3  21
HETATM   21  O   UNK N   1      37.874  14.983  10.270  0.00  0.00    -0.377 OA
HETATM   22  H   UNK N   1      38.525  15.606   9.913  0.00  0.00     0.211 HD
ENDBRANCH   3  21
BRANCH  18  23
HETATM   23  O   UNK N   1      31.642  17.340   3.240  0.00  0.00    -0.392 OA
HETATM   24  H   UNK N   1      31.400  17.567   2.328  0.00  0.00     0.210 HD
ENDBRANCH  18  23
TORSDOF 2
ENDMDL
