MODEL 1
REMARK VINA RESULT:      -6.6      0.000      0.000
REMARK  23 active torsions:
REMARK  status: ('A' for Active; 'I' for Inactive)
REMARK    1  A    between atoms: C_5  and  N_52 
REMARK    2  A    between atoms: C_6  and  C_10 
REMARK    3  A    between atoms: C_10  and  N_11 
REMARK    4  A    between atoms: N_11  and  C_12 
REMARK    5  A    between atoms: N_11  and  C_50 
REMARK    6  A    between atoms: C_13  and  S_14 
REMARK    7  A    between atoms: C_13  and  C_41 
REMARK    8  A    between atoms: S_14  and  S_15 
REMARK    9  A    between atoms: S_15  and  C_16 
REMARK   10  A    between atoms: C_16  and  C_33 
REMARK   11  A    between atoms: C_17  and  N_18 
REMARK   12  A    between atoms: N_18  and  C_19 
REMARK   13  A    between atoms: N_18  and  C_21 
REMARK   14  A    between atoms: C_21  and  C_22 
REMARK   15  A    between atoms: C_23  and  N_31 
REMARK   16  A    between atoms: C_33  and  C_34 
REMARK   17  A    between atoms: C_34  and  O_35 
REMARK   18  A    between atoms: O_35  and  C_36 
REMARK   19  A    between atoms: C_36  and  C_38 
REMARK   20  A    between atoms: C_41  and  C_42 
REMARK   21  A    between atoms: C_42  and  O_43 
REMARK   22  A    between atoms: O_43  and  C_44 
REMARK   23  A    between atoms: C_44  and  C_46 
ROOT
HETATM    1  S   UNK N   1      24.359  13.845   3.036  0.00  0.00    -0.055 SA
ENDROOT
BRANCH   1   2
HETATM    2  C   UNK N   1      26.077  14.364   2.993  0.00  0.00     0.014 C 
HETATM    3  C   UNK N   1      27.122  13.556   3.354  0.00  0.00     0.024 C 
HETATM    4  C   UNK N   1      26.820  12.113   3.628  0.00  0.00     0.069 C 
BRANCH   3   5
HETATM    5  N   UNK N   1      28.477  14.062   3.566  0.00  0.00    -0.324 N 
BRANCH   5   6
HETATM    6  C   UNK N   1      29.000  14.216   4.913  0.00  0.00     0.175 C 
BRANCH   6   7
HETATM    7  C   UNK N   1      28.727  15.534   5.588  0.00  0.00     0.019 A 
HETATM    8  C   UNK N   1      29.654  16.582   5.490  0.00  0.00     0.109 A 
HETATM    9  N   UNK N   1      29.352  17.802   6.007  0.00  0.00    -0.332 N 
HETATM   10  C   UNK N   1      28.161  18.024   6.621  0.00  0.00     0.078 A 
ATOM     11  HN  UNK N   1      30.027  18.561   5.932  1.00  0.00     0.168 HD
HETATM   12  C   UNK N   1      27.838  19.377   7.144  0.00  0.00     0.089 C 
HETATM   13  N   UNK N   1      27.253  17.020   6.736  0.00  0.00    -0.355 N 
HETATM   14  C   UNK N   1      27.512  15.789   6.228  0.00  0.00     0.102 A 
ATOM     15  HN  UNK N   1      26.368  17.193   7.211  1.00  0.00     0.166 HD
BRANCH   8  16
HETATM   16  N   UNK N   1      30.886  16.397   4.827  0.00  0.00    -0.385 N 
HETATM   17  H   UNK N   1      31.738  16.699   5.219  0.00  0.00     0.157 HD
HETATM   18  H   UNK N   1      30.895  15.954   3.949  0.00  0.00     0.157 HD
ENDBRANCH   8  16
ENDBRANCH   6   7
ENDBRANCH   5   6
BRANCH   5  19
HETATM   19  C   UNK N   1      29.400  14.144   2.559  0.00  0.00     0.355 C 
HETATM   20  O   UNK N   1      30.602  14.150   2.760  0.00  0.00    -0.283 OA
ENDBRANCH   5  19
ENDBRANCH   3   5
BRANCH   2  21
HETATM   21  C   UNK N   1      26.216  15.820   2.691  0.00  0.00     0.075 C 
BRANCH  21  22
HETATM   22  C   UNK N   1      25.172  16.578   3.497  0.00  0.00     0.184 C 
BRANCH  22  23
HETATM   23  O   UNK N   1      25.736  17.679   4.089  0.00  0.00    -0.321 OA
BRANCH  23  24
HETATM   24  C   UNK N   1      25.019  18.788   4.405  0.00  0.00     0.262 C 
HETATM   25  O   UNK N   1      23.995  18.701   5.071  0.00  0.00    -0.265 OA
BRANCH  24  26
HETATM   26  C   UNK N   1      25.481  20.139   3.937  0.00  0.00     0.077 C 
HETATM   27  C   UNK N   1      24.757  20.573   2.673  0.00  0.00     0.020 C 
HETATM   28  C   UNK N   1      26.974  20.112   3.663  0.00  0.00     0.020 C 
ENDBRANCH  24  26
ENDBRANCH  23  24
ENDBRANCH  22  23
ENDBRANCH  21  22
ENDBRANCH   2  21
ENDBRANCH   1   2
BRANCH   1  29
HETATM   29  S   UNK N   1      23.883  12.998   4.947  0.00  0.00    -0.055 SA
BRANCH  29  30
HETATM   30  C   UNK N   1      22.428  14.083   4.910  0.00  0.00     0.014 C 
HETATM   31  C   UNK N   1      21.363  13.768   4.086  0.00  0.00     0.024 C 
HETATM   32  C   UNK N   1      21.387  12.408   3.424  0.00  0.00     0.069 C 
BRANCH  31  33
HETATM   33  N   UNK N   1      20.274  14.651   3.696  0.00  0.00    -0.324 N 
BRANCH  33  34
HETATM   34  C   UNK N   1      19.260  15.121   4.475  0.00  0.00     0.355 C 
HETATM   35  O   UNK N   1      18.338  14.431   4.862  0.00  0.00    -0.283 OA
ENDBRANCH  33  34
BRANCH  33  36
HETATM   36  C   UNK N   1      20.266  15.109   2.318  0.00  0.00     0.175 C 
BRANCH  36  37
HETATM   37  C   UNK N   1      20.507  16.581   2.293  0.00  0.00     0.019 A 
HETATM   38  C   UNK N   1      19.814  17.436   1.424  0.00  0.00     0.109 A 
HETATM   39  N   UNK N   1      20.014  18.780   1.516  0.00  0.00    -0.332 N 
HETATM   40  C   UNK N   1      20.878  19.295   2.427  0.00  0.00     0.078 A 
ATOM     41  HN  UNK N   1      19.508  19.408   0.891  1.00  0.00     0.168 HD
HETATM   42  N   UNK N   1      21.576  18.477   3.253  0.00  0.00    -0.355 N 
HETATM   43  C   UNK N   1      21.052  20.767   2.537  0.00  0.00     0.089 C 
HETATM   44  C   UNK N   1      21.405  17.134   3.200  0.00  0.00     0.102 A 
ATOM     45  HN  UNK N   1      22.236  18.876   3.921  1.00  0.00     0.166 HD
BRANCH  38  46
HETATM   46  N   UNK N   1      18.899  16.931   0.478  0.00  0.00    -0.385 N 
HETATM   47  H   UNK N   1      18.752  15.962   0.388  0.00  0.00     0.157 HD
HETATM   48  H   UNK N   1      18.402  17.554  -0.099  0.00  0.00     0.157 HD
ENDBRANCH  38  46
ENDBRANCH  36  37
ENDBRANCH  33  36
ENDBRANCH  31  33
BRANCH  30  49
HETATM   49  C   UNK N   1      22.608  15.336   5.695  0.00  0.00     0.075 C 
BRANCH  49  50
HETATM   50  C   UNK N   1      21.972  15.316   7.071  0.00  0.00     0.184 C 
BRANCH  50  51
HETATM   51  O   UNK N   1      22.432  14.302   7.904  0.00  0.00    -0.321 OA
BRANCH  51  52
HETATM   52  C   UNK N   1      21.755  13.305   8.554  0.00  0.00     0.262 C 
HETATM   53  O   UNK N   1      20.901  12.694   7.932  0.00  0.00    -0.265 OA
BRANCH  52  54
HETATM   54  C   UNK N   1      22.023  12.926   9.998  0.00  0.00     0.077 C 
HETATM   55  C   UNK N   1      22.914  11.699  10.066  0.00  0.00     0.020 C 
HETATM   56  C   UNK N   1      20.749  12.647  10.782  0.00  0.00     0.020 C 
ENDBRANCH  52  54
ENDBRANCH  51  52
ENDBRANCH  50  51
ENDBRANCH  49  50
ENDBRANCH  30  49
ENDBRANCH  29  30
ENDBRANCH   1  29
TORSDOF 23
ENDMDL
MODEL 2
REMARK VINA RESULT:      -6.5      1.838      8.936
REMARK  23 active torsions:
REMARK  status: ('A' for Active; 'I' for Inactive)
REMARK    1  A    between atoms: C_5  and  N_52 
REMARK    2  A    between atoms: C_6  and  C_10 
REMARK    3  A    between atoms: C_10  and  N_11 
REMARK    4  A    between atoms: N_11  and  C_12 
REMARK    5  A    between atoms: N_11  and  C_50 
REMARK    6  A    between atoms: C_13  and  S_14 
REMARK    7  A    between atoms: C_13  and  C_41 
REMARK    8  A    between atoms: S_14  and  S_15 
REMARK    9  A    between atoms: S_15  and  C_16 
REMARK   10  A    between atoms: C_16  and  C_33 
REMARK   11  A    between atoms: C_17  and  N_18 
REMARK   12  A    between atoms: N_18  and  C_19 
REMARK   13  A    between atoms: N_18  and  C_21 
REMARK   14  A    between atoms: C_21  and  C_22 
REMARK   15  A    between atoms: C_23  and  N_31 
REMARK   16  A    between atoms: C_33  and  C_34 
REMARK   17  A    between atoms: C_34  and  O_35 
REMARK   18  A    between atoms: O_35  and  C_36 
REMARK   19  A    between atoms: C_36  and  C_38 
REMARK   20  A    between atoms: C_41  and  C_42 
REMARK   21  A    between atoms: C_42  and  O_43 
REMARK   22  A    between atoms: O_43  and  C_44 
REMARK   23  A    between atoms: C_44  and  C_46 
ROOT
HETATM    1  S   UNK N   1      24.370  14.249   4.620  0.00  0.00    -0.055 SA
ENDROOT
BRANCH   1   2
HETATM    2  C   UNK N   1      22.631  14.409   5.037  0.00  0.00     0.014 C 
HETATM    3  C   UNK N   1      21.665  14.763   4.133  0.00  0.00     0.024 C 
HETATM    4  C   UNK N   1      22.063  14.845   2.690  0.00  0.00     0.069 C 
BRANCH   3   5
HETATM    5  N   UNK N   1      20.311  15.143   4.531  0.00  0.00    -0.324 N 
BRANCH   5   6
HETATM    6  C   UNK N   1      20.041  16.480   5.030  0.00  0.00     0.175 C 
BRANCH   6   7
HETATM    7  C   UNK N   1      20.239  17.610   4.053  0.00  0.00     0.019 A 
HETATM    8  C   UNK N   1      21.364  18.442   4.154  0.00  0.00     0.109 A 
HETATM    9  N   UNK N   1      21.593  19.386   3.205  0.00  0.00    -0.332 N 
HETATM   10  C   UNK N   1      20.746  19.541   2.155  0.00  0.00     0.078 A 
ATOM     11  HN  UNK N   1      22.412  19.987   3.282  1.00  0.00     0.168 HD
HETATM   12  C   UNK N   1      21.040  20.555   1.109  0.00  0.00     0.089 C 
HETATM   13  N   UNK N   1      19.645  18.752   2.043  0.00  0.00    -0.355 N 
HETATM   14  C   UNK N   1      19.383  17.792   2.965  0.00  0.00     0.102 A 
ATOM     15  HN  UNK N   1      19.008  18.885   1.258  1.00  0.00     0.166 HD
BRANCH   8  16
HETATM   16  N   UNK N   1      22.285  18.286   5.213  0.00  0.00    -0.385 N 
HETATM   17  H   UNK N   1      22.044  18.491   6.146  0.00  0.00     0.157 HD
HETATM   18  H   UNK N   1      23.192  17.962   5.014  0.00  0.00     0.157 HD
ENDBRANCH   8  16
ENDBRANCH   6   7
ENDBRANCH   5   6
BRANCH   5  19
HETATM   19  C   UNK N   1      19.210  14.399   4.203  0.00  0.00     0.355 C 
HETATM   20  O   UNK N   1      18.237  14.297   4.932  0.00  0.00    -0.283 OA
ENDBRANCH   5  19
ENDBRANCH   3   5
BRANCH   2  21
HETATM   21  C   UNK N   1      22.392  14.285   6.506  0.00  0.00     0.075 C 
BRANCH  21  22
HETATM   22  C   UNK N   1      23.684  13.822   7.164  0.00  0.00     0.184 C 
BRANCH  22  23
HETATM   23  O   UNK N   1      23.486  13.614   8.505  0.00  0.00    -0.321 OA
BRANCH  23  24
HETATM   24  C   UNK N   1      23.235  12.385   9.026  0.00  0.00     0.262 C 
HETATM   25  O   UNK N   1      23.884  11.411   8.667  0.00  0.00    -0.265 OA
BRANCH  24  26
HETATM   26  C   UNK N   1      22.154  12.214  10.054  0.00  0.00     0.077 C 
HETATM   27  C   UNK N   1      21.191  13.389  10.057  0.00  0.00     0.020 C 
HETATM   28  C   UNK N   1      22.767  12.077  11.436  0.00  0.00     0.020 C 
ENDBRANCH  24  26
ENDBRANCH  23  24
ENDBRANCH  22  23
ENDBRANCH  21  22
ENDBRANCH   2  21
ENDBRANCH   1   2
BRANCH   1  29
HETATM   29  S   UNK N   1      25.219  16.174   4.210  0.00  0.00    -0.055 SA
BRANCH  29  30
HETATM   30  C   UNK N   1      26.810  15.409   4.636  0.00  0.00     0.014 C 
HETATM   31  C   UNK N   1      27.624  14.924   3.629  0.00  0.00     0.024 C 
HETATM   32  C   UNK N   1      27.232  15.261   2.208  0.00  0.00     0.069 C 
BRANCH  31  33
HETATM   33  N   UNK N   1      28.757  14.024   3.784  0.00  0.00    -0.324 N 
BRANCH  33  34
HETATM   34  C   UNK N   1      28.734  12.701   4.111  0.00  0.00     0.355 C 
HETATM   35  O   UNK N   1      27.763  12.145   4.585  0.00  0.00    -0.283 OA
ENDBRANCH  33  34
BRANCH  33  36
HETATM   36  C   UNK N   1      30.074  14.584   3.546  0.00  0.00     0.175 C 
BRANCH  36  37
HETATM   37  C   UNK N   1      30.502  15.352   4.752  0.00  0.00     0.019 A 
HETATM   38  C   UNK N   1      30.385  16.747   4.829  0.00  0.00     0.109 A 
HETATM   39  N   UNK N   1      30.707  17.378   5.992  0.00  0.00    -0.332 N 
HETATM   40  C   UNK N   1      31.146  16.675   7.067  0.00  0.00     0.078 A 
ATOM     41  HN  UNK N   1      30.618  18.393   6.056  1.00  0.00     0.168 HD
HETATM   42  N   UNK N   1      31.290  15.328   6.996  0.00  0.00    -0.355 N 
HETATM   43  C   UNK N   1      31.454  17.378   8.339  0.00  0.00     0.089 C 
HETATM   44  C   UNK N   1      30.978  14.660   5.860  0.00  0.00     0.102 A 
ATOM     45  HN  UNK N   1      31.639  14.814   7.805  1.00  0.00     0.166 HD
BRANCH  38  46
HETATM   46  N   UNK N   1      29.918  17.503   3.734  0.00  0.00    -0.385 N 
HETATM   47  H   UNK N   1      29.868  18.484   3.785  0.00  0.00     0.157 HD
HETATM   48  H   UNK N   1      29.639  17.043   2.909  0.00  0.00     0.157 HD
ENDBRANCH  38  46
ENDBRANCH  36  37
ENDBRANCH  33  36
ENDBRANCH  31  33
BRANCH  30  49
HETATM   49  C   UNK N   1      27.009  15.242   6.102  0.00  0.00     0.075 C 
BRANCH  49  50
HETATM   50  C   UNK N   1      27.243  16.534   6.859  0.00  0.00     0.184 C 
BRANCH  50  51
HETATM   51  O   UNK N   1      27.595  17.616   6.059  0.00  0.00    -0.321 OA
BRANCH  51  52
HETATM   52  C   UNK N   1      27.678  18.951   6.350  0.00  0.00     0.262 C 
HETATM   53  O   UNK N   1      28.415  19.294   7.261  0.00  0.00    -0.265 OA
BRANCH  52  54
HETATM   54  C   UNK N   1      26.907  20.015   5.591  0.00  0.00     0.077 C 
HETATM   55  C   UNK N   1      27.242  19.956   4.112  0.00  0.00     0.020 C 
HETATM   56  C   UNK N   1      27.184  21.422   6.099  0.00  0.00     0.020 C 
ENDBRANCH  52  54
ENDBRANCH  51  52
ENDBRANCH  50  51
ENDBRANCH  49  50
ENDBRANCH  30  49
ENDBRANCH  29  30
ENDBRANCH   1  29
TORSDOF 23
ENDMDL
MODEL 3
REMARK VINA RESULT:      -6.4      3.878     10.659
REMARK  23 active torsions:
REMARK  status: ('A' for Active; 'I' for Inactive)
REMARK    1  A    between atoms: C_5  and  N_52 
REMARK    2  A    between atoms: C_6  and  C_10 
REMARK    3  A    between atoms: C_10  and  N_11 
REMARK    4  A    between atoms: N_11  and  C_12 
REMARK    5  A    between atoms: N_11  and  C_50 
REMARK    6  A    between atoms: C_13  and  S_14 
REMARK    7  A    between atoms: C_13  and  C_41 
REMARK    8  A    between atoms: S_14  and  S_15 
REMARK    9  A    between atoms: S_15  and  C_16 
REMARK   10  A    between atoms: C_16  and  C_33 
REMARK   11  A    between atoms: C_17  and  N_18 
REMARK   12  A    between atoms: N_18  and  C_19 
REMARK   13  A    between atoms: N_18  and  C_21 
REMARK   14  A    between atoms: C_21  and  C_22 
REMARK   15  A    between atoms: C_23  and  N_31 
REMARK   16  A    between atoms: C_33  and  C_34 
REMARK   17  A    between atoms: C_34  and  O_35 
REMARK   18  A    between atoms: O_35  and  C_36 
REMARK   19  A    between atoms: C_36  and  C_38 
REMARK   20  A    between atoms: C_41  and  C_42 
REMARK   21  A    between atoms: C_42  and  O_43 
REMARK   22  A    between atoms: O_43  and  C_44 
REMARK   23  A    between atoms: C_44  and  C_46 
ROOT
HETATM    1  S   UNK N   1      28.632  18.217   5.076  0.00  0.00    -0.055 SA
ENDROOT
BRANCH   1   2
HETATM    2  C   UNK N   1      27.018  18.283   4.292  0.00  0.00     0.014 C 
HETATM    3  C   UNK N   1      26.218  19.395   4.298  0.00  0.00     0.024 C 
HETATM    4  C   UNK N   1      26.803  20.666   4.836  0.00  0.00     0.069 C 
BRANCH   3   5
HETATM    5  N   UNK N   1      24.814  19.361   3.892  0.00  0.00    -0.324 N 
BRANCH   5   6
HETATM    6  C   UNK N   1      23.816  18.748   4.753  0.00  0.00     0.175 C 
BRANCH   6   7
HETATM    7  C   UNK N   1      22.845  17.811   4.085  0.00  0.00     0.019 A 
HETATM    8  C   UNK N   1      21.543  18.240   3.786  0.00  0.00     0.109 A 
HETATM    9  N   UNK N   1      20.709  17.429   3.086  0.00  0.00    -0.332 N 
HETATM   10  C   UNK N   1      21.114  16.202   2.669  0.00  0.00     0.078 A 
ATOM     11  HN  UNK N   1      19.764  17.745   2.869  1.00  0.00     0.168 HD
HETATM   12  C   UNK N   1      20.196  15.349   1.871  0.00  0.00     0.089 C 
HETATM   13  N   UNK N   1      22.368  15.762   2.957  0.00  0.00    -0.355 N 
HETATM   14  C   UNK N   1      23.235  16.544   3.648  0.00  0.00     0.102 A 
ATOM     15  HN  UNK N   1      22.659  14.835   2.651  1.00  0.00     0.166 HD
BRANCH   8  16
HETATM   16  N   UNK N   1      21.099  19.523   4.172  0.00  0.00    -0.385 N 
HETATM   17  H   UNK N   1      21.441  20.342   3.744  0.00  0.00     0.157 HD
HETATM   18  H   UNK N   1      20.428  19.603   4.888  0.00  0.00     0.157 HD
ENDBRANCH   8  16
ENDBRANCH   6   7
ENDBRANCH   5   6
BRANCH   5  19
HETATM   19  C   UNK N   1      24.325  20.122   2.866  0.00  0.00     0.355 C 
HETATM   20  O   UNK N   1      23.600  21.087   3.043  0.00  0.00    -0.283 OA
ENDBRANCH   5  19
ENDBRANCH   3   5
BRANCH   2  21
HETATM   21  C   UNK N   1      26.581  16.946   3.791  0.00  0.00     0.075 C 
BRANCH  21  22
HETATM   22  C   UNK N   1      27.763  16.286   3.095  0.00  0.00     0.184 C 
BRANCH  22  23
HETATM   23  O   UNK N   1      27.985  15.037   3.616  0.00  0.00    -0.321 OA
BRANCH  23  24
HETATM   24  C   UNK N   1      27.120  14.006   3.437  0.00  0.00     0.262 C 
HETATM   25  O   UNK N   1      26.666  13.398   4.398  0.00  0.00    -0.265 OA
BRANCH  24  26
HETATM   26  C   UNK N   1      26.710  13.604   2.049  0.00  0.00     0.077 C 
HETATM   27  C   UNK N   1      25.260  13.960   1.766  0.00  0.00     0.020 C 
HETATM   28  C   UNK N   1      26.894  12.108   1.864  0.00  0.00     0.020 C 
ENDBRANCH  24  26
ENDBRANCH  23  24
ENDBRANCH  22  23
ENDBRANCH  21  22
ENDBRANCH   2  21
ENDBRANCH   1   2
BRANCH   1  29
HETATM   29  S   UNK N   1      28.457  17.480   7.081  0.00  0.00    -0.055 SA
BRANCH  29  30
HETATM   30  C   UNK N   1      30.182  16.947   6.887  0.00  0.00     0.014 C 
HETATM   31  C   UNK N   1      31.149  17.442   7.743  0.00  0.00     0.024 C 
HETATM   32  C   UNK N   1      30.667  18.236   8.936  0.00  0.00     0.069 C 
BRANCH  31  33
HETATM   33  N   UNK N   1      32.591  17.378   7.556  0.00  0.00    -0.324 N 
BRANCH  33  34
HETATM   34  C   UNK N   1      33.310  17.772   6.467  0.00  0.00     0.355 C 
HETATM   35  O   UNK N   1      34.506  17.980   6.495  0.00  0.00    -0.283 OA
ENDBRANCH  33  34
BRANCH  33  36
HETATM   36  C   UNK N   1      33.371  16.850   8.661  0.00  0.00     0.175 C 
BRANCH  36  37
HETATM   37  C   UNK N   1      33.420  15.363   8.556  0.00  0.00     0.019 A 
HETATM   38  C   UNK N   1      32.607  14.532   9.340  0.00  0.00     0.109 A 
HETATM   39  N   UNK N   1      32.634  13.187   9.130  0.00  0.00    -0.332 N 
HETATM   40  C   UNK N   1      33.441  12.646   8.183  0.00  0.00     0.078 A 
ATOM     41  HN  UNK N   1      32.039  12.578   9.693  1.00  0.00     0.168 HD
HETATM   42  N   UNK N   1      34.254  13.436   7.438  0.00  0.00    -0.355 N 
HETATM   43  C   UNK N   1      33.427  11.179   7.943  0.00  0.00     0.089 C 
HETATM   44  C   UNK N   1      34.256  14.780   7.610  0.00  0.00     0.102 A 
ATOM     45  HN  UNK N   1      34.870  13.015   6.742  1.00  0.00     0.166 HD
BRANCH  38  46
HETATM   46  N   UNK N   1      31.747  15.067  10.321  0.00  0.00    -0.385 N 
HETATM   47  H   UNK N   1      31.745  14.708  11.238  0.00  0.00     0.157 HD
HETATM   48  H   UNK N   1      31.141  15.806  10.087  0.00  0.00     0.157 HD
ENDBRANCH  38  46
ENDBRANCH  36  37
ENDBRANCH  33  36
ENDBRANCH  31  33
BRANCH  30  49
HETATM   49  C   UNK N   1      30.407  16.110   5.676  0.00  0.00     0.075 C 
BRANCH  49  50
HETATM   50  C   UNK N   1      30.823  14.682   5.963  0.00  0.00     0.184 C 
BRANCH  50  51
HETATM   51  O   UNK N   1      32.020  14.298   5.370  0.00  0.00    -0.321 OA
BRANCH  51  52
HETATM   52  C   UNK N   1      32.399  14.283   4.054  0.00  0.00     0.262 C 
HETATM   53  O   UNK N   1      31.770  13.574   3.286  0.00  0.00    -0.265 OA
BRANCH  52  54
HETATM   54  C   UNK N   1      33.551  15.109   3.513  0.00  0.00     0.077 C 
HETATM   55  C   UNK N   1      33.048  16.445   2.997  0.00  0.00     0.020 C 
HETATM   56  C   UNK N   1      34.306  14.407   2.393  0.00  0.00     0.020 C 
ENDBRANCH  52  54
ENDBRANCH  51  52
ENDBRANCH  50  51
ENDBRANCH  49  50
ENDBRANCH  30  49
ENDBRANCH  29  30
ENDBRANCH   1  29
TORSDOF 23
ENDMDL
MODEL 4
REMARK VINA RESULT:      -6.4      2.650      8.211
REMARK  23 active torsions:
REMARK  status: ('A' for Active; 'I' for Inactive)
REMARK    1  A    between atoms: C_5  and  N_52 
REMARK    2  A    between atoms: C_6  and  C_10 
REMARK    3  A    between atoms: C_10  and  N_11 
REMARK    4  A    between atoms: N_11  and  C_12 
REMARK    5  A    between atoms: N_11  and  C_50 
REMARK    6  A    between atoms: C_13  and  S_14 
REMARK    7  A    between atoms: C_13  and  C_41 
REMARK    8  A    between atoms: S_14  and  S_15 
REMARK    9  A    between atoms: S_15  and  C_16 
REMARK   10  A    between atoms: C_16  and  C_33 
REMARK   11  A    between atoms: C_17  and  N_18 
REMARK   12  A    between atoms: N_18  and  C_19 
REMARK   13  A    between atoms: N_18  and  C_21 
REMARK   14  A    between atoms: C_21  and  C_22 
REMARK   15  A    between atoms: C_23  and  N_31 
REMARK   16  A    between atoms: C_33  and  C_34 
REMARK   17  A    between atoms: C_34  and  O_35 
REMARK   18  A    between atoms: O_35  and  C_36 
REMARK   19  A    between atoms: C_36  and  C_38 
REMARK   20  A    between atoms: C_41  and  C_42 
REMARK   21  A    between atoms: C_42  and  O_43 
REMARK   22  A    between atoms: O_43  and  C_44 
REMARK   23  A    between atoms: C_44  and  C_46 
ROOT
HETATM    1  S   UNK N   1      24.977  13.529   3.769  0.00  0.00    -0.055 SA
ENDROOT
BRANCH   1   2
HETATM    2  C   UNK N   1      23.708  13.771   5.016  0.00  0.00     0.014 C 
HETATM    3  C   UNK N   1      23.307  12.794   5.889  0.00  0.00     0.024 C 
HETATM    4  C   UNK N   1      24.097  11.520   5.912  0.00  0.00     0.069 C 
BRANCH   3   5
HETATM    5  N   UNK N   1      22.107  12.915   6.714  0.00  0.00    -0.324 N 
BRANCH   5   6
HETATM    6  C   UNK N   1      22.104  13.782   7.880  0.00  0.00     0.175 C 
BRANCH   6   7
HETATM    7  C   UNK N   1      22.409  13.125   9.201  0.00  0.00     0.019 A 
HETATM    8  C   UNK N   1      23.723  13.111   9.695  0.00  0.00     0.109 A 
HETATM    9  N   UNK N   1      23.973  12.617  10.935  0.00  0.00    -0.332 N 
HETATM   10  C   UNK N   1      22.968  12.132  11.709  0.00  0.00     0.078 A 
ATOM     11  HN  UNK N   1      24.928  12.610  11.290  1.00  0.00     0.168 HD
HETATM   12  C   UNK N   1      23.262  11.633  13.078  0.00  0.00     0.089 C 
HETATM   13  N   UNK N   1      21.690  12.127  11.247  0.00  0.00    -0.355 N 
HETATM   14  C   UNK N   1      21.396  12.618  10.016  0.00  0.00     0.102 A 
ATOM     15  HN  UNK N   1      20.945  11.749  11.830  1.00  0.00     0.166 HD
BRANCH   8  16
HETATM   16  N   UNK N   1      24.787  13.639   8.932  0.00  0.00    -0.385 N 
HETATM   17  H   UNK N   1      25.147  13.168   8.146  0.00  0.00     0.157 HD
HETATM   18  H   UNK N   1      25.179  14.503   9.192  0.00  0.00     0.157 HD
ENDBRANCH   8  16
ENDBRANCH   6   7
ENDBRANCH   5   6
BRANCH   5  19
HETATM   19  C   UNK N   1      20.880  12.471   6.302  0.00  0.00     0.355 C 
HETATM   20  O   UNK N   1      20.555  11.296   6.333  0.00  0.00    -0.283 OA
ENDBRANCH   5  19
ENDBRANCH   3   5
BRANCH   2  21
HETATM   21  C   UNK N   1      23.025  15.091   4.874  0.00  0.00     0.075 C 
BRANCH  21  22
HETATM   22  C   UNK N   1      22.047  15.001   3.712  0.00  0.00     0.184 C 
BRANCH  22  23
HETATM   23  O   UNK N   1      20.770  15.255   4.144  0.00  0.00    -0.321 OA
BRANCH  23  24
HETATM   24  C   UNK N   1      20.146  16.441   3.925  0.00  0.00     0.262 C 
HETATM   25  O   UNK N   1      19.033  16.655   4.388  0.00  0.00    -0.265 OA
BRANCH  24  26
HETATM   26  C   UNK N   1      20.822  17.504   3.108  0.00  0.00     0.077 C 
HETATM   27  C   UNK N   1      21.033  18.779   3.909  0.00  0.00     0.020 C 
HETATM   28  C   UNK N   1      19.990  17.828   1.881  0.00  0.00     0.020 C 
ENDBRANCH  24  26
ENDBRANCH  23  24
ENDBRANCH  22  23
ENDBRANCH  21  22
ENDBRANCH   2  21
ENDBRANCH   1   2
BRANCH   1  29
HETATM   29  S   UNK N   1      26.921  13.540   4.673  0.00  0.00    -0.055 SA
BRANCH  29  30
HETATM   30  C   UNK N   1      27.016  15.266   4.118  0.00  0.00     0.014 C 
HETATM   31  C   UNK N   1      26.567  16.276   4.949  0.00  0.00     0.024 C 
HETATM   32  C   UNK N   1      26.221  15.891   6.370  0.00  0.00     0.069 C 
BRANCH  31  33
HETATM   33  N   UNK N   1      26.280  17.651   4.570  0.00  0.00    -0.324 N 
BRANCH  33  34
HETATM   34  C   UNK N   1      25.075  18.189   4.227  0.00  0.00     0.355 C 
HETATM   35  O   UNK N   1      24.308  18.679   5.031  0.00  0.00    -0.283 OA
ENDBRANCH  33  34
BRANCH  33  36
HETATM   36  C   UNK N   1      27.397  18.577   4.572  0.00  0.00     0.175 C 
BRANCH  36  37
HETATM   37  C   UNK N   1      27.976  18.639   5.945  0.00  0.00     0.019 A 
HETATM   38  C   UNK N   1      27.414  19.431   6.957  0.00  0.00     0.109 A 
HETATM   39  N   UNK N   1      27.936  19.372   8.214  0.00  0.00    -0.332 N 
HETATM   40  C   UNK N   1      28.992  18.567   8.492  0.00  0.00     0.078 A 
ATOM     41  HN  UNK N   1      27.527  19.941   8.955  1.00  0.00     0.168 HD
HETATM   42  N   UNK N   1      29.563  17.818   7.516  0.00  0.00    -0.355 N 
HETATM   43  C   UNK N   1      29.521  18.487   9.878  0.00  0.00     0.089 C 
HETATM   44  C   UNK N   1      29.074  17.843   6.253  0.00  0.00     0.102 A 
ATOM     45  HN  UNK N   1      30.368  17.231   7.734  1.00  0.00     0.166 HD
BRANCH  38  46
HETATM   46  N   UNK N   1      26.307  20.266   6.701  0.00  0.00    -0.385 N 
HETATM   47  H   UNK N   1      26.360  21.235   6.863  0.00  0.00     0.157 HD
HETATM   48  H   UNK N   1      25.472  19.874   6.357  0.00  0.00     0.157 HD
ENDBRANCH  38  46
ENDBRANCH  36  37
ENDBRANCH  33  36
ENDBRANCH  31  33
BRANCH  30  49
HETATM   49  C   UNK N   1      27.450  15.406   2.700  0.00  0.00     0.075 C 
BRANCH  49  50
HETATM   50  C   UNK N   1      28.801  14.793   2.390  0.00  0.00     0.184 C 
BRANCH  50  51
HETATM   51  O   UNK N   1      29.862  15.690   2.417  0.00  0.00    -0.321 OA
BRANCH  51  52
HETATM   52  C   UNK N   1      30.799  15.935   3.385  0.00  0.00     0.262 C 
HETATM   53  O   UNK N   1      30.683  15.356   4.453  0.00  0.00    -0.265 OA
BRANCH  52  54
HETATM   54  C   UNK N   1      31.970  16.879   3.186  0.00  0.00     0.077 C 
HETATM   55  C   UNK N   1      33.210  16.106   2.777  0.00  0.00     0.020 C 
HETATM   56  C   UNK N   1      32.291  17.692   4.432  0.00  0.00     0.020 C 
ENDBRANCH  52  54
ENDBRANCH  51  52
ENDBRANCH  50  51
ENDBRANCH  49  50
ENDBRANCH  30  49
ENDBRANCH  29  30
ENDBRANCH   1  29
TORSDOF 23
ENDMDL
MODEL 5
REMARK VINA RESULT:      -6.4      2.537      8.655
REMARK  23 active torsions:
REMARK  status: ('A' for Active; 'I' for Inactive)
REMARK    1  A    between atoms: C_5  and  N_52 
REMARK    2  A    between atoms: C_6  and  C_10 
REMARK    3  A    between atoms: C_10  and  N_11 
REMARK    4  A    between atoms: N_11  and  C_12 
REMARK    5  A    between atoms: N_11  and  C_50 
REMARK    6  A    between atoms: C_13  and  S_14 
REMARK    7  A    between atoms: C_13  and  C_41 
REMARK    8  A    between atoms: S_14  and  S_15 
REMARK    9  A    between atoms: S_15  and  C_16 
REMARK   10  A    between atoms: C_16  and  C_33 
REMARK   11  A    between atoms: C_17  and  N_18 
REMARK   12  A    between atoms: N_18  and  C_19 
REMARK   13  A    between atoms: N_18  and  C_21 
REMARK   14  A    between atoms: C_21  and  C_22 
REMARK   15  A    between atoms: C_23  and  N_31 
REMARK   16  A    between atoms: C_33  and  C_34 
REMARK   17  A    between atoms: C_34  and  O_35 
REMARK   18  A    between atoms: O_35  and  C_36 
REMARK   19  A    between atoms: C_36  and  C_38 
REMARK   20  A    between atoms: C_41  and  C_42 
REMARK   21  A    between atoms: C_42  and  O_43 
REMARK   22  A    between atoms: O_43  and  C_44 
REMARK   23  A    between atoms: C_44  and  C_46 
ROOT
HETATM    1  S   UNK N   1      25.091  13.913   4.346  0.00  0.00    -0.055 SA
ENDROOT
BRANCH   1   2
HETATM    2  C   UNK N   1      23.325  14.044   4.640  0.00  0.00     0.014 C 
HETATM    3  C   UNK N   1      22.784  14.554   5.790  0.00  0.00     0.024 C 
HETATM    4  C   UNK N   1      23.720  15.193   6.771  0.00  0.00     0.069 C 
BRANCH   3   5
HETATM    5  N   UNK N   1      21.368  14.417   6.127  0.00  0.00    -0.324 N 
BRANCH   5   6
HETATM    6  C   UNK N   1      20.895  13.244   6.843  0.00  0.00     0.175 C 
BRANCH   6   7
HETATM    7  C   UNK N   1      21.582  12.937   8.148  0.00  0.00     0.019 A 
HETATM    8  C   UNK N   1      21.147  13.547   9.334  0.00  0.00     0.109 A 
HETATM    9  N   UNK N   1      21.696  13.183  10.522  0.00  0.00    -0.332 N 
HETATM   10  C   UNK N   1      22.666  12.235  10.581  0.00  0.00     0.078 A 
ATOM     11  HN  UNK N   1      21.376  13.628  11.381  1.00  0.00     0.168 HD
HETATM   12  C   UNK N   1      23.224  11.826  11.896  0.00  0.00     0.089 C 
HETATM   13  N   UNK N   1      23.109  11.639   9.443  0.00  0.00    -0.355 N 
HETATM   14  C   UNK N   1      22.582  11.968   8.237  0.00  0.00     0.102 A 
ATOM     15  HN  UNK N   1      23.847  10.937   9.497  1.00  0.00     0.166 HD
BRANCH   8  16
HETATM   16  N   UNK N   1      20.116  14.511   9.315  0.00  0.00    -0.385 N 
HETATM   17  H   UNK N   1      20.192  15.343   8.793  0.00  0.00     0.157 HD
HETATM   18  H   UNK N   1      19.297  14.347   9.835  0.00  0.00     0.157 HD
ENDBRANCH   8  16
ENDBRANCH   6   7
ENDBRANCH   5   6
BRANCH   5  19
HETATM   19  C   UNK N   1      20.488  15.461   6.053  0.00  0.00     0.355 C 
HETATM   20  O   UNK N   1      19.370  15.422   6.540  0.00  0.00    -0.283 OA
ENDBRANCH   5  19
ENDBRANCH   3   5
BRANCH   2  21
HETATM   21  C   UNK N   1      22.527  13.377   3.569  0.00  0.00     0.075 C 
BRANCH  21  22
HETATM   22  C   UNK N   1      22.425  14.328   2.385  0.00  0.00     0.184 C 
BRANCH  22  23
HETATM   23  O   UNK N   1      21.241  15.018   2.431  0.00  0.00    -0.321 OA
BRANCH  23  24
HETATM   24  C   UNK N   1      21.185  16.366   2.588  0.00  0.00     0.262 C 
HETATM   25  O   UNK N   1      22.038  16.954   3.239  0.00  0.00    -0.265 OA
BRANCH  24  26
HETATM   26  C   UNK N   1      20.068  17.148   1.959  0.00  0.00     0.077 C 
HETATM   27  C   UNK N   1      20.006  16.929   0.456  0.00  0.00     0.020 C 
HETATM   28  C   UNK N   1      20.251  18.630   2.231  0.00  0.00     0.020 C 
ENDBRANCH  24  26
ENDBRANCH  23  24
ENDBRANCH  22  23
ENDBRANCH  21  22
ENDBRANCH   2  21
ENDBRANCH   1   2
BRANCH   1  29
HETATM   29  S   UNK N   1      25.878  15.792   3.679  0.00  0.00    -0.055 SA
BRANCH  29  30
HETATM   30  C   UNK N   1      27.479  15.176   4.275  0.00  0.00     0.014 C 
HETATM   31  C   UNK N   1      28.333  14.537   3.395  0.00  0.00     0.024 C 
HETATM   32  C   UNK N   1      27.970  14.586   1.928  0.00  0.00     0.069 C 
BRANCH  31  33
HETATM   33  N   UNK N   1      29.488  13.722   3.742  0.00  0.00    -0.324 N 
BRANCH  33  34
HETATM   34  C   UNK N   1      29.498  12.429   4.175  0.00  0.00     0.355 C 
HETATM   35  O   UNK N   1      28.679  11.977   4.951  0.00  0.00    -0.283 OA
ENDBRANCH  33  34
BRANCH  33  36
HETATM   36  C   UNK N   1      30.793  14.340   3.595  0.00  0.00     0.175 C 
BRANCH  36  37
HETATM   37  C   UNK N   1      31.048  15.224   4.770  0.00  0.00     0.019 A 
HETATM   38  C   UNK N   1      30.970  16.621   4.683  0.00  0.00     0.109 A 
HETATM   39  N   UNK N   1      31.123  17.366   5.813  0.00  0.00    -0.332 N 
HETATM   40  C   UNK N   1      31.357  16.773   7.012  0.00  0.00     0.078 A 
ATOM     41  HN  UNK N   1      31.061  18.383   5.758  1.00  0.00     0.168 HD
HETATM   42  N   UNK N   1      31.462  15.425   7.104  0.00  0.00    -0.355 N 
HETATM   43  C   UNK N   1      31.481  17.602   8.239  0.00  0.00     0.089 C 
HETATM   44  C   UNK N   1      31.313  14.645   6.006  0.00  0.00     0.102 A 
ATOM     45  HN  UNK N   1      31.657  14.993   8.007  1.00  0.00     0.166 HD
BRANCH  38  46
HETATM   46  N   UNK N   1      30.714  17.264   3.455  0.00  0.00    -0.385 N 
HETATM   47  H   UNK N   1      30.694  18.246   3.397  0.00  0.00     0.157 HD
HETATM   48  H   UNK N   1      30.552  16.725   2.648  0.00  0.00     0.157 HD
ENDBRANCH  38  46
ENDBRANCH  36  37
ENDBRANCH  33  36
ENDBRANCH  31  33
BRANCH  30  49
HETATM   49  C   UNK N   1      27.644  15.296   5.750  0.00  0.00     0.075 C 
BRANCH  49  50
HETATM   50  C   UNK N   1      27.093  16.577   6.345  0.00  0.00     0.184 C 
BRANCH  50  51
HETATM   51  O   UNK N   1      27.961  17.661   6.282  0.00  0.00    -0.321 OA
BRANCH  51  52
HETATM   52  C   UNK N   1      27.867  18.840   5.592  0.00  0.00     0.262 C 
HETATM   53  O   UNK N   1      28.618  19.010   4.646  0.00  0.00    -0.265 OA
BRANCH  52  54
HETATM   54  C   UNK N   1      26.873  19.930   5.944  0.00  0.00     0.077 C 
HETATM   55  C   UNK N   1      25.885  20.132   4.810  0.00  0.00     0.020 C 
HETATM   56  C   UNK N   1      27.541  21.263   6.252  0.00  0.00     0.020 C 
ENDBRANCH  52  54
ENDBRANCH  51  52
ENDBRANCH  50  51
ENDBRANCH  49  50
ENDBRANCH  30  49
ENDBRANCH  29  30
ENDBRANCH   1  29
TORSDOF 23
ENDMDL
MODEL 6
REMARK VINA RESULT:      -6.4      2.006      4.093
REMARK  23 active torsions:
REMARK  status: ('A' for Active; 'I' for Inactive)
REMARK    1  A    between atoms: C_5  and  N_52 
REMARK    2  A    between atoms: C_6  and  C_10 
REMARK    3  A    between atoms: C_10  and  N_11 
REMARK    4  A    between atoms: N_11  and  C_12 
REMARK    5  A    between atoms: N_11  and  C_50 
REMARK    6  A    between atoms: C_13  and  S_14 
REMARK    7  A    between atoms: C_13  and  C_41 
REMARK    8  A    between atoms: S_14  and  S_15 
REMARK    9  A    between atoms: S_15  and  C_16 
REMARK   10  A    between atoms: C_16  and  C_33 
REMARK   11  A    between atoms: C_17  and  N_18 
REMARK   12  A    between atoms: N_18  and  C_19 
REMARK   13  A    between atoms: N_18  and  C_21 
REMARK   14  A    between atoms: C_21  and  C_22 
REMARK   15  A    between atoms: C_23  and  N_31 
REMARK   16  A    between atoms: C_33  and  C_34 
REMARK   17  A    between atoms: C_34  and  O_35 
REMARK   18  A    between atoms: O_35  and  C_36 
REMARK   19  A    between atoms: C_36  and  C_38 
REMARK   20  A    between atoms: C_41  and  C_42 
REMARK   21  A    between atoms: C_42  and  O_43 
REMARK   22  A    between atoms: O_43  and  C_44 
REMARK   23  A    between atoms: C_44  and  C_46 
ROOT
HETATM    1  S   UNK N   1      25.638  13.671   3.860  0.00  0.00    -0.055 SA
ENDROOT
BRANCH   1   2
HETATM    2  C   UNK N   1      26.982  14.852   3.709  0.00  0.00     0.014 C 
HETATM    3  C   UNK N   1      28.231  14.649   4.232  0.00  0.00     0.024 C 
HETATM    4  C   UNK N   1      28.531  13.296   4.804  0.00  0.00     0.069 C 
BRANCH   3   5
HETATM    5  N   UNK N   1      29.229  15.712   4.332  0.00  0.00    -0.324 N 
BRANCH   5   6
HETATM    6  C   UNK N   1      29.398  16.445   5.575  0.00  0.00     0.175 C 
BRANCH   6   7
HETATM    7  C   UNK N   1      28.628  17.734   5.699  0.00  0.00     0.019 A 
HETATM    8  C   UNK N   1      27.847  17.982   6.838  0.00  0.00     0.109 A 
HETATM    9  N   UNK N   1      27.246  19.190   6.994  0.00  0.00    -0.332 N 
HETATM   10  C   UNK N   1      27.387  20.167   6.061  0.00  0.00     0.078 A 
ATOM     11  HN  UNK N   1      26.681  19.367   7.824  1.00  0.00     0.168 HD
HETATM   12  C   UNK N   1      26.751  21.493   6.274  0.00  0.00     0.089 C 
HETATM   13  N   UNK N   1      28.130  19.944   4.946  0.00  0.00    -0.355 N 
HETATM   14  C   UNK N   1      28.754  18.754   4.754  0.00  0.00     0.102 A 
ATOM     15  HN  UNK N   1      28.220  20.678   4.245  1.00  0.00     0.166 HD
BRANCH   8  16
HETATM   16  N   UNK N   1      27.708  17.004   7.846  0.00  0.00    -0.385 N 
HETATM   17  H   UNK N   1      28.113  17.114   8.737  0.00  0.00     0.157 HD
HETATM   18  H   UNK N   1      27.191  16.189   7.654  0.00  0.00     0.157 HD
ENDBRANCH   8  16
ENDBRANCH   6   7
ENDBRANCH   5   6
BRANCH   5  19
HETATM   19  C   UNK N   1      30.220  15.883   3.404  0.00  0.00     0.355 C 
HETATM   20  O   UNK N   1      30.030  16.409   2.320  0.00  0.00    -0.283 OA
ENDBRANCH   5  19
ENDBRANCH   3   5
BRANCH   2  21
HETATM   21  C   UNK N   1      26.532  16.141   3.105  0.00  0.00     0.075 C 
BRANCH  21  22
HETATM   22  C   UNK N   1      25.581  16.820   4.081  0.00  0.00     0.184 C 
BRANCH  22  23
HETATM   23  O   UNK N   1      25.602  18.178   3.898  0.00  0.00    -0.321 OA
BRANCH  23  24
HETATM   24  C   UNK N   1      24.553  18.977   4.224  0.00  0.00     0.262 C 
HETATM   25  O   UNK N   1      23.735  18.622   5.062  0.00  0.00    -0.265 OA
BRANCH  24  26
HETATM   26  C   UNK N   1      24.392  20.312   3.555  0.00  0.00     0.077 C 
HETATM   27  C   UNK N   1      23.060  20.420   2.831  0.00  0.00     0.020 C 
HETATM   28  C   UNK N   1      25.513  20.533   2.555  0.00  0.00     0.020 C 
ENDBRANCH  24  26
ENDBRANCH  23  24
ENDBRANCH  22  23
ENDBRANCH  21  22
ENDBRANCH   2  21
ENDBRANCH   1   2
BRANCH   1  29
HETATM   29  S   UNK N   1      25.213  13.287   5.926  0.00  0.00    -0.055 SA
BRANCH  29  30
HETATM   30  C   UNK N   1      23.475  13.556   5.474  0.00  0.00     0.014 C 
HETATM   31  C   UNK N   1      22.509  13.584   6.464  0.00  0.00     0.024 C 
HETATM   32  C   UNK N   1      22.995  13.606   7.896  0.00  0.00     0.069 C 
BRANCH  31  33
HETATM   33  N   UNK N   1      21.070  13.478   6.278  0.00  0.00    -0.324 N 
BRANCH  33  34
HETATM   34  C   UNK N   1      20.379  12.482   5.654  0.00  0.00     0.355 C 
HETATM   35  O   UNK N   1      20.048  12.527   4.487  0.00  0.00    -0.283 OA
ENDBRANCH  33  34
BRANCH  33  36
HETATM   36  C   UNK N   1      20.259  14.545   6.835  0.00  0.00     0.175 C 
BRANCH  36  37
HETATM   37  C   UNK N   1      20.148  15.646   5.834  0.00  0.00     0.019 A 
HETATM   38  C   UNK N   1      21.029  16.736   5.823  0.00  0.00     0.109 A 
HETATM   39  N   UNK N   1      20.932  17.659   4.826  0.00  0.00    -0.332 N 
HETATM   40  C   UNK N   1      19.990  17.540   3.856  0.00  0.00     0.078 A 
ATOM     41  HN  UNK N   1      21.575  18.451   4.809  1.00  0.00     0.168 HD
HETATM   42  N   UNK N   1      19.113  16.506   3.872  0.00  0.00    -0.355 N 
HETATM   43  C   UNK N   1      19.925  18.537   2.756  0.00  0.00     0.089 C 
HETATM   44  C   UNK N   1      19.176  15.562   4.842  0.00  0.00     0.102 A 
ATOM     45  HN  UNK N   1      18.397  16.438   3.148  1.00  0.00     0.166 HD
BRANCH  38  46
HETATM   46  N   UNK N   1      22.028  16.878   6.808  0.00  0.00    -0.385 N 
HETATM   47  H   UNK N   1      21.832  17.326   7.662  0.00  0.00     0.157 HD
HETATM   48  H   UNK N   1      22.932  16.526   6.639  0.00  0.00     0.157 HD
ENDBRANCH  38  46
ENDBRANCH  36  37
ENDBRANCH  33  36
ENDBRANCH  31  33
BRANCH  30  49
HETATM   49  C   UNK N   1      23.244  13.569   4.003  0.00  0.00     0.075 C 
BRANCH  49  50
HETATM   50  C   UNK N   1      22.653  14.858   3.467  0.00  0.00     0.184 C 
BRANCH  50  51
HETATM   51  O   UNK N   1      21.532  14.689   2.663  0.00  0.00    -0.321 OA
BRANCH  51  52
HETATM   52  C   UNK N   1      21.414  14.621   1.301  0.00  0.00     0.262 C 
HETATM   53  O   UNK N   1      22.438  14.596   0.638  0.00  0.00    -0.265 OA
BRANCH  52  54
HETATM   54  C   UNK N   1      20.076  14.568   0.586  0.00  0.00     0.077 C 
HETATM   55  C   UNK N   1      19.578  15.971   0.291  0.00  0.00     0.020 C 
HETATM   56  C   UNK N   1      19.010  13.830   1.382  0.00  0.00     0.020 C 
ENDBRANCH  52  54
ENDBRANCH  51  52
ENDBRANCH  50  51
ENDBRANCH  49  50
ENDBRANCH  30  49
ENDBRANCH  29  30
ENDBRANCH   1  29
TORSDOF 23
ENDMDL
MODEL 7
REMARK VINA RESULT:      -6.3      2.933      8.435
REMARK  23 active torsions:
REMARK  status: ('A' for Active; 'I' for Inactive)
REMARK    1  A    between atoms: C_5  and  N_52 
REMARK    2  A    between atoms: C_6  and  C_10 
REMARK    3  A    between atoms: C_10  and  N_11 
REMARK    4  A    between atoms: N_11  and  C_12 
REMARK    5  A    between atoms: N_11  and  C_50 
REMARK    6  A    between atoms: C_13  and  S_14 
REMARK    7  A    between atoms: C_13  and  C_41 
REMARK    8  A    between atoms: S_14  and  S_15 
REMARK    9  A    between atoms: S_15  and  C_16 
REMARK   10  A    between atoms: C_16  and  C_33 
REMARK   11  A    between atoms: C_17  and  N_18 
REMARK   12  A    between atoms: N_18  and  C_19 
REMARK   13  A    between atoms: N_18  and  C_21 
REMARK   14  A    between atoms: C_21  and  C_22 
REMARK   15  A    between atoms: C_23  and  N_31 
REMARK   16  A    between atoms: C_33  and  C_34 
REMARK   17  A    between atoms: C_34  and  O_35 
REMARK   18  A    between atoms: O_35  and  C_36 
REMARK   19  A    between atoms: C_36  and  C_38 
REMARK   20  A    between atoms: C_41  and  C_42 
REMARK   21  A    between atoms: C_42  and  O_43 
REMARK   22  A    between atoms: O_43  and  C_44 
REMARK   23  A    between atoms: C_44  and  C_46 
ROOT
HETATM    1  S   UNK N   1      26.219  14.029   4.485  0.00  0.00    -0.055 SA
ENDROOT
BRANCH   1   2
HETATM    2  C   UNK N   1      24.784  13.272   5.254  0.00  0.00     0.014 C 
HETATM    3  C   UNK N   1      24.528  13.327   6.599  0.00  0.00     0.024 C 
HETATM    4  C   UNK N   1      25.400  14.214   7.435  0.00  0.00     0.069 C 
BRANCH   3   5
HETATM    5  N   UNK N   1      23.513  12.497   7.245  0.00  0.00    -0.324 N 
BRANCH   5   6
HETATM    6  C   UNK N   1      22.101  12.754   7.016  0.00  0.00     0.175 C 
BRANCH   6   7
HETATM    7  C   UNK N   1      21.587  14.097   7.464  0.00  0.00     0.019 A 
HETATM    8  C   UNK N   1      21.295  15.092   6.518  0.00  0.00     0.109 A 
HETATM    9  N   UNK N   1      20.727  16.259   6.918  0.00  0.00    -0.332 N 
HETATM   10  C   UNK N   1      20.437  16.482   8.226  0.00  0.00     0.078 A 
ATOM     11  HN  UNK N   1      20.516  16.978   6.227  1.00  0.00     0.168 HD
HETATM   12  C   UNK N   1      19.781  17.752   8.633  0.00  0.00     0.089 C 
HETATM   13  N   UNK N   1      20.721  15.537   9.159  0.00  0.00    -0.355 N 
HETATM   14  C   UNK N   1      21.282  14.354   8.801  0.00  0.00     0.102 A 
ATOM     15  HN  UNK N   1      20.512  15.719  10.140  1.00  0.00     0.166 HD
BRANCH   8  16
HETATM   16  N   UNK N   1      21.549  14.880   5.145  0.00  0.00    -0.385 N 
HETATM   17  H   UNK N   1      21.795  15.619   4.542  0.00  0.00     0.157 HD
HETATM   18  H   UNK N   1      21.480  13.969   4.781  0.00  0.00     0.157 HD
ENDBRANCH   8  16
ENDBRANCH   6   7
ENDBRANCH   5   6
BRANCH   5  19
HETATM   19  C   UNK N   1      23.808  11.303   7.844  0.00  0.00     0.355 C 
HETATM   20  O   UNK N   1      23.291  10.249   7.514  0.00  0.00    -0.283 OA
ENDBRANCH   5  19
ENDBRANCH   3   5
BRANCH   2  21
HETATM   21  C   UNK N   1      24.007  12.436   4.292  0.00  0.00     0.075 C 
BRANCH  21  22
HETATM   22  C   UNK N   1      24.957  11.433   3.654  0.00  0.00     0.184 C 
BRANCH  22  23
HETATM   23  O   UNK N   1      24.540  11.126   2.384  0.00  0.00    -0.321 OA
BRANCH  23  24
HETATM   24  C   UNK N   1      25.046  11.734   1.280  0.00  0.00     0.262 C 
HETATM   25  O   UNK N   1      26.245  11.961   1.187  0.00  0.00    -0.265 OA
BRANCH  24  26
HETATM   26  C   UNK N   1      24.130  12.134   0.158  0.00  0.00     0.077 C 
HETATM   27  C   UNK N   1      23.591  13.542   0.348  0.00  0.00     0.020 C 
HETATM   28  C   UNK N   1      22.962  11.169   0.071  0.00  0.00     0.020 C 
ENDBRANCH  24  26
ENDBRANCH  23  24
ENDBRANCH  22  23
ENDBRANCH  21  22
ENDBRANCH   2  21
ENDBRANCH   1   2
BRANCH   1  29
HETATM   29  S   UNK N   1      25.607  15.509   3.060  0.00  0.00    -0.055 SA
BRANCH  29  30
HETATM   30  C   UNK N   1      25.821  16.700   4.413  0.00  0.00     0.014 C 
HETATM   31  C   UNK N   1      27.077  17.218   4.673  0.00  0.00     0.024 C 
HETATM   32  C   UNK N   1      28.163  16.922   3.664  0.00  0.00     0.069 C 
BRANCH  31  33
HETATM   33  N   UNK N   1      27.494  17.924   5.875  0.00  0.00    -0.324 N 
BRANCH  33  34
HETATM   34  C   UNK N   1      27.588  19.271   6.063  0.00  0.00     0.355 C 
HETATM   35  O   UNK N   1      26.761  20.062   5.658  0.00  0.00    -0.283 OA
ENDBRANCH  33  34
BRANCH  33  36
HETATM   36  C   UNK N   1      27.837  17.109   7.026  0.00  0.00     0.175 C 
BRANCH  36  37
HETATM   37  C   UNK N   1      29.255  17.374   7.406  0.00  0.00     0.019 A 
HETATM   38  C   UNK N   1      29.601  17.978   8.623  0.00  0.00     0.109 A 
HETATM   39  N   UNK N   1      30.917  18.106   8.950  0.00  0.00    -0.332 N 
HETATM   40  C   UNK N   1      31.889  17.667   8.111  0.00  0.00     0.078 A 
ATOM     41  HN  UNK N   1      31.176  18.540   9.837  1.00  0.00     0.168 HD
HETATM   42  N   UNK N   1      31.568  17.107   6.919  0.00  0.00    -0.355 N 
HETATM   43  C   UNK N   1      33.318  17.781   8.504  0.00  0.00     0.089 C 
HETATM   44  C   UNK N   1      30.272  16.955   6.555  0.00  0.00     0.102 A 
ATOM     45  HN  UNK N   1      32.309  16.797   6.289  1.00  0.00     0.166 HD
BRANCH  38  46
HETATM   46  N   UNK N   1      28.614  18.431   9.522  0.00  0.00    -0.385 N 
HETATM   47  H   UNK N   1      28.301  19.363   9.497  0.00  0.00     0.157 HD
HETATM   48  H   UNK N   1      28.233  17.807  10.181  0.00  0.00     0.157 HD
ENDBRANCH  38  46
ENDBRANCH  36  37
ENDBRANCH  33  36
ENDBRANCH  31  33
BRANCH  30  49
HETATM   49  C   UNK N   1      24.592  16.887   5.233  0.00  0.00     0.075 C 
BRANCH  49  50
HETATM   50  C   UNK N   1      23.814  18.150   4.926  0.00  0.00     0.184 C 
BRANCH  50  51
HETATM   51  O   UNK N   1      22.437  17.974   4.845  0.00  0.00    -0.321 OA
BRANCH  51  52
HETATM   52  C   UNK N   1      21.577  18.138   3.792  0.00  0.00     0.262 C 
HETATM   53  O   UNK N   1      21.339  17.168   3.092  0.00  0.00    -0.265 OA
BRANCH  52  54
HETATM   54  C   UNK N   1      20.908  19.460   3.466  0.00  0.00     0.077 C 
HETATM   55  C   UNK N   1      19.626  19.226   2.687  0.00  0.00     0.020 C 
HETATM   56  C   UNK N   1      21.803  20.393   2.663  0.00  0.00     0.020 C 
ENDBRANCH  52  54
ENDBRANCH  51  52
ENDBRANCH  50  51
ENDBRANCH  49  50
ENDBRANCH  30  49
ENDBRANCH  29  30
ENDBRANCH   1  29
TORSDOF 23
ENDMDL
MODEL 8
REMARK VINA RESULT:      -6.3      2.731      8.961
REMARK  23 active torsions:
REMARK  status: ('A' for Active; 'I' for Inactive)
REMARK    1  A    between atoms: C_5  and  N_52 
REMARK    2  A    between atoms: C_6  and  C_10 
REMARK    3  A    between atoms: C_10  and  N_11 
REMARK    4  A    between atoms: N_11  and  C_12 
REMARK    5  A    between atoms: N_11  and  C_50 
REMARK    6  A    between atoms: C_13  and  S_14 
REMARK    7  A    between atoms: C_13  and  C_41 
REMARK    8  A    between atoms: S_14  and  S_15 
REMARK    9  A    between atoms: S_15  and  C_16 
REMARK   10  A    between atoms: C_16  and  C_33 
REMARK   11  A    between atoms: C_17  and  N_18 
REMARK   12  A    between atoms: N_18  and  C_19 
REMARK   13  A    between atoms: N_18  and  C_21 
REMARK   14  A    between atoms: C_21  and  C_22 
REMARK   15  A    between atoms: C_23  and  N_31 
REMARK   16  A    between atoms: C_33  and  C_34 
REMARK   17  A    between atoms: C_34  and  O_35 
REMARK   18  A    between atoms: O_35  and  C_36 
REMARK   19  A    between atoms: C_36  and  C_38 
REMARK   20  A    between atoms: C_41  and  C_42 
REMARK   21  A    between atoms: C_42  and  O_43 
REMARK   22  A    between atoms: O_43  and  C_44 
REMARK   23  A    between atoms: C_44  and  C_46 
ROOT
HETATM    1  S   UNK N   1      24.933  14.724   4.641  0.00  0.00    -0.055 SA
ENDROOT
BRANCH   1   2
HETATM    2  C   UNK N   1      23.185  14.324   4.721  0.00  0.00     0.014 C 
HETATM    3  C   UNK N   1      22.355  14.751   5.724  0.00  0.00     0.024 C 
HETATM    4  C   UNK N   1      22.906  15.746   6.702  0.00  0.00     0.069 C 
BRANCH   3   5
HETATM    5  N   UNK N   1      21.011  14.213   5.923  0.00  0.00    -0.324 N 
BRANCH   5   6
HETATM    6  C   UNK N   1      20.818  12.980   6.666  0.00  0.00     0.175 C 
BRANCH   6   7
HETATM    7  C   UNK N   1      21.687  12.790   7.882  0.00  0.00     0.019 A 
HETATM    8  C   UNK N   1      21.356  13.422   9.090  0.00  0.00     0.109 A 
HETATM    9  N   UNK N   1      22.080  13.159  10.209  0.00  0.00    -0.332 N 
HETATM   10  C   UNK N   1      23.124  12.292  10.179  0.00  0.00     0.078 A 
ATOM     11  HN  UNK N   1      21.835  13.619  11.086  1.00  0.00     0.168 HD
HETATM   12  C   UNK N   1      23.876  11.991  11.425  0.00  0.00     0.089 C 
HETATM   13  N   UNK N   1      23.468  11.677   9.016  0.00  0.00    -0.355 N 
HETATM   14  C   UNK N   1      22.767  11.906   7.877  0.00  0.00     0.102 A 
ATOM     15  HN  UNK N   1      24.262  11.038   9.000  1.00  0.00     0.166 HD
BRANCH   8  16
HETATM   16  N   UNK N   1      20.255  14.301   9.168  0.00  0.00    -0.385 N 
HETATM   17  H   UNK N   1      20.345  15.216   9.523  0.00  0.00     0.157 HD
HETATM   18  H   UNK N   1      19.373  13.993   8.859  0.00  0.00     0.157 HD
ENDBRANCH   8  16
ENDBRANCH   6   7
ENDBRANCH   5   6
BRANCH   5  19
HETATM   19  C   UNK N   1      19.880  14.946   5.687  0.00  0.00     0.355 C 
HETATM   20  O   UNK N   1      19.223  15.456   6.578  0.00  0.00    -0.283 OA
ENDBRANCH   5  19
ENDBRANCH   3   5
BRANCH   2  21
HETATM   21  C   UNK N   1      22.785  13.338   3.675  0.00  0.00     0.075 C 
BRANCH  21  22
HETATM   22  C   UNK N   1      21.990  14.072   2.604  0.00  0.00     0.184 C 
BRANCH  22  23
HETATM   23  O   UNK N   1      21.193  13.192   1.917  0.00  0.00    -0.321 OA
BRANCH  23  24
HETATM   24  C   UNK N   1      19.883  13.001   2.219  0.00  0.00     0.262 C 
HETATM   25  O   UNK N   1      19.557  12.477   3.275  0.00  0.00    -0.265 OA
BRANCH  24  26
HETATM   26  C   UNK N   1      18.820  13.439   1.252  0.00  0.00     0.077 C 
HETATM   27  C   UNK N   1      18.553  12.379   0.195  0.00  0.00     0.020 C 
HETATM   28  C   UNK N   1      19.239  14.725   0.563  0.00  0.00     0.020 C 
ENDBRANCH  24  26
ENDBRANCH  23  24
ENDBRANCH  22  23
ENDBRANCH  21  22
ENDBRANCH   2  21
ENDBRANCH   1   2
BRANCH   1  29
HETATM   29  S   UNK N   1      25.338  15.962   2.939  0.00  0.00    -0.055 SA
BRANCH  29  30
HETATM   30  C   UNK N   1      25.840  17.220   4.148  0.00  0.00     0.014 C 
HETATM   31  C   UNK N   1      27.168  17.316   4.522  0.00  0.00     0.024 C 
HETATM   32  C   UNK N   1      28.164  16.501   3.727  0.00  0.00     0.069 C 
BRANCH  31  33
HETATM   33  N   UNK N   1      27.698  18.029   5.673  0.00  0.00    -0.324 N 
BRANCH  33  34
HETATM   34  C   UNK N   1      27.975  19.360   5.776  0.00  0.00     0.355 C 
HETATM   35  O   UNK N   1      27.826  20.148   4.863  0.00  0.00    -0.283 OA
ENDBRANCH  33  34
BRANCH  33  36
HETATM   36  C   UNK N   1      27.950  17.246   6.869  0.00  0.00     0.175 C 
BRANCH  36  37
HETATM   37  C   UNK N   1      29.358  17.468   7.310  0.00  0.00     0.019 A 
HETATM   38  C   UNK N   1      29.670  18.061   8.541  0.00  0.00     0.109 A 
HETATM   39  N   UNK N   1      30.974  18.149   8.924  0.00  0.00    -0.332 N 
HETATM   40  C   UNK N   1      31.967  17.682   8.126  0.00  0.00     0.078 A 
ATOM     41  HN  UNK N   1      31.207  18.574   9.822  1.00  0.00     0.168 HD
HETATM   42  N   UNK N   1      31.680  17.132   6.920  0.00  0.00    -0.355 N 
HETATM   43  C   UNK N   1      33.380  17.753   8.580  0.00  0.00     0.089 C 
HETATM   44  C   UNK N   1      30.397  17.020   6.502  0.00  0.00     0.102 A 
ATOM     45  HN  UNK N   1      32.437  16.801   6.322  1.00  0.00     0.166 HD
BRANCH  38  46
HETATM   46  N   UNK N   1      28.659  18.542   9.398  0.00  0.00    -0.385 N 
HETATM   47  H   UNK N   1      28.554  18.178  10.306  0.00  0.00     0.157 HD
HETATM   48  H   UNK N   1      28.051  19.249   9.084  0.00  0.00     0.157 HD
ENDBRANCH  38  46
ENDBRANCH  36  37
ENDBRANCH  33  36
ENDBRANCH  31  33
BRANCH  30  49
HETATM   49  C   UNK N   1      24.689  17.950   4.750  0.00  0.00     0.075 C 
BRANCH  49  50
HETATM   50  C   UNK N   1      24.293  19.217   4.019  0.00  0.00     0.184 C 
BRANCH  50  51
HETATM   51  O   UNK N   1      22.937  19.517   4.079  0.00  0.00    -0.321 OA
BRANCH  51  52
HETATM   52  C   UNK N   1      22.061  19.889   3.094  0.00  0.00     0.262 C 
HETATM   53  O   UNK N   1      22.144  21.023   2.652  0.00  0.00    -0.265 OA
BRANCH  52  54
HETATM   54  C   UNK N   1      21.007  18.956   2.526  0.00  0.00     0.077 C 
HETATM   55  C   UNK N   1      19.621  19.540   2.727  0.00  0.00     0.020 C 
HETATM   56  C   UNK N   1      21.048  17.569   3.151  0.00  0.00     0.020 C 
ENDBRANCH  52  54
ENDBRANCH  51  52
ENDBRANCH  50  51
ENDBRANCH  49  50
ENDBRANCH  30  49
ENDBRANCH  29  30
ENDBRANCH   1  29
TORSDOF 23
ENDMDL
MODEL 9
REMARK VINA RESULT:      -6.2      1.931      8.589
REMARK  23 active torsions:
REMARK  status: ('A' for Active; 'I' for Inactive)
REMARK    1  A    between atoms: C_5  and  N_52 
REMARK    2  A    between atoms: C_6  and  C_10 
REMARK    3  A    between atoms: C_10  and  N_11 
REMARK    4  A    between atoms: N_11  and  C_12 
REMARK    5  A    between atoms: N_11  and  C_50 
REMARK    6  A    between atoms: C_13  and  S_14 
REMARK    7  A    between atoms: C_13  and  C_41 
REMARK    8  A    between atoms: S_14  and  S_15 
REMARK    9  A    between atoms: S_15  and  C_16 
REMARK   10  A    between atoms: C_16  and  C_33 
REMARK   11  A    between atoms: C_17  and  N_18 
REMARK   12  A    between atoms: N_18  and  C_19 
REMARK   13  A    between atoms: N_18  and  C_21 
REMARK   14  A    between atoms: C_21  and  C_22 
REMARK   15  A    between atoms: C_23  and  N_31 
REMARK   16  A    between atoms: C_33  and  C_34 
REMARK   17  A    between atoms: C_34  and  O_35 
REMARK   18  A    between atoms: O_35  and  C_36 
REMARK   19  A    between atoms: C_36  and  C_38 
REMARK   20  A    between atoms: C_41  and  C_42 
REMARK   21  A    between atoms: C_42  and  O_43 
REMARK   22  A    between atoms: O_43  and  C_44 
REMARK   23  A    between atoms: C_44  and  C_46 
ROOT
HETATM    1  S   UNK N   1      24.256  13.840   4.046  0.00  0.00    -0.055 SA
ENDROOT
BRANCH   1   2
HETATM    2  C   UNK N   1      22.485  13.752   3.771  0.00  0.00     0.014 C 
HETATM    3  C   UNK N   1      21.878  14.148   2.608  0.00  0.00     0.024 C 
HETATM    4  C   UNK N   1      22.763  14.506   1.452  0.00  0.00     0.069 C 
BRANCH   3   5
HETATM    5  N   UNK N   1      20.431  14.318   2.489  0.00  0.00    -0.324 N 
BRANCH   5   6
HETATM    6  C   UNK N   1      19.764  15.421   3.162  0.00  0.00     0.175 C 
BRANCH   6   7
HETATM    7  C   UNK N   1      20.340  16.792   2.924  0.00  0.00     0.019 A 
HETATM    8  C   UNK N   1      19.926  17.548   1.817  0.00  0.00     0.109 A 
HETATM    9  N   UNK N   1      20.364  18.825   1.670  0.00  0.00    -0.332 N 
HETATM   10  C   UNK N   1      21.201  19.386   2.581  0.00  0.00     0.078 A 
ATOM     11  HN  UNK N   1      20.060  19.372   0.865  1.00  0.00     0.168 HD
HETATM   12  C   UNK N   1      21.636  20.798   2.418  0.00  0.00     0.089 C 
HETATM   13  N   UNK N   1      21.622  18.668   3.655  0.00  0.00    -0.355 N 
HETATM   14  C   UNK N   1      21.203  17.391   3.843  0.00  0.00     0.102 A 
ATOM     15  HN  UNK N   1      22.261  19.093   4.326  1.00  0.00     0.166 HD
BRANCH   8  16
HETATM   16  N   UNK N   1      19.028  17.011   0.870  0.00  0.00    -0.385 N 
HETATM   17  H   UNK N   1      19.313  16.784  -0.046  0.00  0.00     0.157 HD
HETATM   18  H   UNK N   1      18.092  16.857   1.131  0.00  0.00     0.157 HD
ENDBRANCH   8  16
ENDBRANCH   6   7
ENDBRANCH   5   6
BRANCH   5  19
HETATM   19  C   UNK N   1      19.685  13.658   1.551  0.00  0.00     0.355 C 
HETATM   20  O   UNK N   1      18.503  13.889   1.361  0.00  0.00    -0.283 OA
ENDBRANCH   5  19
ENDBRANCH   3   5
BRANCH   2  21
HETATM   21  C   UNK N   1      21.742  13.366   5.007  0.00  0.00     0.075 C 
BRANCH  21  22
HETATM   22  C   UNK N   1      22.095  14.358   6.106  0.00  0.00     0.184 C 
BRANCH  22  23
HETATM   23  O   UNK N   1      20.988  15.084   6.464  0.00  0.00    -0.321 OA
BRANCH  23  24
HETATM   24  C   UNK N   1      20.477  15.067   7.722  0.00  0.00     0.262 C 
HETATM   25  O   UNK N   1      20.175  14.009   8.259  0.00  0.00    -0.265 OA
BRANCH  24  26
HETATM   26  C   UNK N   1      20.280  16.355   8.468  0.00  0.00     0.077 C 
HETATM   27  C   UNK N   1      18.870  16.471   9.026  0.00  0.00     0.020 C 
HETATM   28  C   UNK N   1      20.542  17.535   7.550  0.00  0.00     0.020 C 
ENDBRANCH  24  26
ENDBRANCH  23  24
ENDBRANCH  22  23
ENDBRANCH  21  22
ENDBRANCH   2  21
ENDBRANCH   1   2
BRANCH   1  29
HETATM   29  S   UNK N   1      24.927  15.873   3.941  0.00  0.00    -0.055 SA
BRANCH  29  30
HETATM   30  C   UNK N   1      26.570  15.205   4.331  0.00  0.00     0.014 C 
HETATM   31  C   UNK N   1      27.370  14.723   3.311  0.00  0.00     0.024 C 
HETATM   32  C   UNK N   1      26.908  14.985   1.895  0.00  0.00     0.069 C 
BRANCH  31  33
HETATM   33  N   UNK N   1      28.552  13.888   3.455  0.00  0.00    -0.324 N 
BRANCH  33  34
HETATM   34  C   UNK N   1      28.608  12.572   3.808  0.00  0.00     0.355 C 
HETATM   35  O   UNK N   1      27.996  11.697   3.229  0.00  0.00    -0.283 OA
ENDBRANCH  33  34
BRANCH  33  36
HETATM   36  C   UNK N   1      29.832  14.512   3.173  0.00  0.00     0.175 C 
BRANCH  36  37
HETATM   37  C   UNK N   1      30.304  15.229   4.393  0.00  0.00     0.019 A 
HETATM   38  C   UNK N   1      30.184  16.618   4.536  0.00  0.00     0.109 A 
HETATM   39  N   UNK N   1      30.549  17.199   5.713  0.00  0.00    -0.332 N 
HETATM   40  C   UNK N   1      31.034  16.452   6.737  0.00  0.00     0.078 A 
ATOM     41  HN  UNK N   1      30.458  18.209   5.826  1.00  0.00     0.168 HD
HETATM   42  N   UNK N   1      31.182  15.111   6.601  0.00  0.00    -0.355 N 
HETATM   43  C   UNK N   1      31.390  17.100   8.026  0.00  0.00     0.089 C 
HETATM   44  C   UNK N   1      30.827  14.491   5.450  0.00  0.00     0.102 A 
ATOM     45  HN  UNK N   1      31.565  14.563   7.372  1.00  0.00     0.166 HD
BRANCH  38  46
HETATM   46  N   UNK N   1      29.670  17.418   3.496  0.00  0.00    -0.385 N 
HETATM   47  H   UNK N   1      29.519  18.381   3.630  0.00  0.00     0.157 HD
HETATM   48  H   UNK N   1      29.459  17.009   2.626  0.00  0.00     0.157 HD
ENDBRANCH  38  46
ENDBRANCH  36  37
ENDBRANCH  33  36
ENDBRANCH  31  33
BRANCH  30  49
HETATM   49  C   UNK N   1      26.833  15.106   5.794  0.00  0.00     0.075 C 
BRANCH  49  50
HETATM   50  C   UNK N   1      26.800  16.428   6.533  0.00  0.00     0.184 C 
BRANCH  50  51
HETATM   51  O   UNK N   1      27.530  17.446   5.928  0.00  0.00    -0.321 OA
BRANCH  51  52
HETATM   52  C   UNK N   1      27.645  18.772   6.249  0.00  0.00     0.262 C 
HETATM   53  O   UNK N   1      28.285  19.066   7.245  0.00  0.00    -0.265 OA
BRANCH  52  54
HETATM   54  C   UNK N   1      27.025  19.882   5.421  0.00  0.00     0.077 C 
HETATM   55  C   UNK N   1      27.063  21.194   6.183  0.00  0.00     0.020 C 
HETATM   56  C   UNK N   1      25.585  19.589   5.024  0.00  0.00     0.020 C 
ENDBRANCH  52  54
ENDBRANCH  51  52
ENDBRANCH  50  51
ENDBRANCH  49  50
ENDBRANCH  30  49
ENDBRANCH  29  30
ENDBRANCH   1  29
TORSDOF 23
ENDMDL
