MODEL 1
REMARK VINA RESULT:      -6.2      0.000      0.000
REMARK  8 active torsions:
REMARK  status: ('A' for Active; 'I' for Inactive)
REMARK    1  A    between atoms: C_3  and  C_2 
REMARK    2  A    between atoms: C_8  and  C_3 
REMARK    3  A    between atoms: O_17  and  C_8 
REMARK    4  A    between atoms: C_10  and  C_9 
REMARK    5  A    between atoms: C_12  and  C_9 
REMARK    6  A    between atoms: O_17  and  C_11 
REMARK    7  A    between atoms: O_15  and  C_12 
REMARK    8  A    between atoms: N_13  and  O_16 
ROOT
HETATM    1  C   UNK N   1      20.990  13.145  10.466  0.00  0.00     0.010 A 
HETATM    2  C   UNK N   1      22.489  12.905   8.586  0.00  0.00     0.010 A 
HETATM    3  C   UNK N   1      20.214  14.057   9.735  0.00  0.00     0.037 A 
HETATM    4  C   UNK N   1      21.722  13.809   7.859  0.00  0.00     0.037 A 
HETATM    5  C   UNK N   1      22.136  12.564   9.891  0.00  0.00    -0.050 A 
HETATM    6  C   UNK N   1      20.576  14.394   8.425  0.00  0.00     0.068 A 
ENDROOT
BRANCH   5   7
HETATM    7  C   UNK N   1      23.023  11.578  10.602  0.00  0.00     0.124 C 
BRANCH   7   8
HETATM    8  C   UNK N   1      23.841  12.018  11.786  0.00  0.00     0.139 C 
HETATM    9  N   UNK N   1      23.265  12.094  12.930  0.00  0.00    -0.251 N 
ATOM     10  HN  UNK N   1      22.276  11.858  13.012  1.00  0.00     0.196 HD
BRANCH   9  11
HETATM   11  O   UNK N   1      23.933  12.474  14.000  0.00  0.00    -0.288 OA
HETATM   12  H   UNK N   1      24.370  11.837  14.531  0.00  0.00     0.244 HD
ENDBRANCH   9  11
BRANCH   8  13
HETATM   13  O   UNK N   1      25.149  12.328  11.663  0.00  0.00    -0.348 OA
HETATM   14  H   UNK N   1      25.421  12.969  11.036  0.00  0.00     0.219 HD
ENDBRANCH   8  13
ENDBRANCH   7   8
ENDBRANCH   5   7
BRANCH   6  15
HETATM   15  O   UNK N   1      19.827  15.276   7.717  0.00  0.00    -0.351 OA
BRANCH  15  16
HETATM   16  C   UNK N   1      20.192  16.603   7.633  0.00  0.00     0.175 C 
BRANCH  16  17
HETATM   17  C   UNK N   1      19.567  17.442   8.719  0.00  0.00     0.026 C 
BRANCH  17  18
HETATM   18  C   UNK N   1      18.107  17.039   8.793  0.00  0.00    -0.002 C 
HETATM   19  C   UNK N   1      17.414  17.758   9.928  0.00  0.00     0.005 C 
ENDBRANCH  17  18
ENDBRANCH  16  17
ENDBRANCH  15  16
ENDBRANCH   6  15
TORSDOF 8
ENDMDL
MODEL 2
REMARK VINA RESULT:      -6.0      8.877     11.010
REMARK  8 active torsions:
REMARK  status: ('A' for Active; 'I' for Inactive)
REMARK    1  A    between atoms: C_3  and  C_2 
REMARK    2  A    between atoms: C_8  and  C_3 
REMARK    3  A    between atoms: O_17  and  C_8 
REMARK    4  A    between atoms: C_10  and  C_9 
REMARK    5  A    between atoms: C_12  and  C_9 
REMARK    6  A    between atoms: O_17  and  C_11 
REMARK    7  A    between atoms: O_15  and  C_12 
REMARK    8  A    between atoms: N_13  and  O_16 
ROOT
HETATM    1  C   UNK N   1      24.178  20.489   2.934  0.00  0.00     0.010 A 
HETATM    2  C   UNK N   1      23.573  18.406   3.997  0.00  0.00     0.010 A 
HETATM    3  C   UNK N   1      25.536  20.208   3.146  0.00  0.00     0.037 A 
HETATM    4  C   UNK N   1      24.918  18.124   4.209  0.00  0.00     0.037 A 
HETATM    5  C   UNK N   1      23.188  19.585   3.360  0.00  0.00    -0.050 A 
HETATM    6  C   UNK N   1      25.914  19.022   3.787  0.00  0.00     0.068 A 
ENDROOT
BRANCH   5   7
HETATM    7  C   UNK N   1      21.711  19.807   3.173  0.00  0.00     0.124 C 
BRANCH   7   8
HETATM    8  C   UNK N   1      21.207  20.535   1.956  0.00  0.00     0.139 C 
HETATM    9  N   UNK N   1      20.897  19.845   0.919  0.00  0.00    -0.251 N 
ATOM     10  HN  UNK N   1      20.997  18.830   0.941  1.00  0.00     0.196 HD
BRANCH   9  11
HETATM   11  O   UNK N   1      20.450  20.430  -0.174  0.00  0.00    -0.288 OA
HETATM   12  H   UNK N   1      20.707  20.110  -1.016  0.00  0.00     0.244 HD
ENDBRANCH   9  11
BRANCH   8  13
HETATM   13  O   UNK N   1      21.078  21.878   1.940  0.00  0.00    -0.348 OA
HETATM   14  H   UNK N   1      21.247  22.355   1.151  0.00  0.00     0.219 HD
ENDBRANCH   8  13
ENDBRANCH   7   8
ENDBRANCH   5   7
BRANCH   6  15
HETATM   15  O   UNK N   1      27.226  18.748   3.993  0.00  0.00    -0.351 OA
BRANCH  15  16
HETATM   16  C   UNK N   1      27.991  19.545   4.820  0.00  0.00     0.175 C 
BRANCH  16  17
HETATM   17  C   UNK N   1      27.872  19.153   6.271  0.00  0.00     0.026 C 
BRANCH  17  18
HETATM   18  C   UNK N   1      27.305  20.355   7.000  0.00  0.00    -0.002 C 
HETATM   19  C   UNK N   1      27.242  21.554   6.082  0.00  0.00     0.005 C 
ENDBRANCH  17  18
ENDBRANCH  16  17
ENDBRANCH  15  16
ENDBRANCH   6  15
TORSDOF 8
ENDMDL
MODEL 3
REMARK VINA RESULT:      -5.9     10.056     10.782
REMARK  8 active torsions:
REMARK  status: ('A' for Active; 'I' for Inactive)
REMARK    1  A    between atoms: C_3  and  C_2 
REMARK    2  A    between atoms: C_8  and  C_3 
REMARK    3  A    between atoms: O_17  and  C_8 
REMARK    4  A    between atoms: C_10  and  C_9 
REMARK    5  A    between atoms: C_12  and  C_9 
REMARK    6  A    between atoms: O_17  and  C_11 
REMARK    7  A    between atoms: O_15  and  C_12 
REMARK    8  A    between atoms: N_13  and  O_16 
ROOT
HETATM    1  C   UNK N   1      30.593  17.980   8.530  0.00  0.00     0.010 A 
HETATM    2  C   UNK N   1      31.025  16.780   6.478  0.00  0.00     0.010 A 
HETATM    3  C   UNK N   1      29.290  18.264   8.094  0.00  0.00     0.037 A 
HETATM    4  C   UNK N   1      29.735  17.060   6.043  0.00  0.00     0.037 A 
HETATM    5  C   UNK N   1      31.468  17.234   7.719  0.00  0.00    -0.050 A 
HETATM    6  C   UNK N   1      28.853  17.804   6.845  0.00  0.00     0.068 A 
ENDROOT
BRANCH   5   7
HETATM    7  C   UNK N   1      32.880  16.884   8.109  0.00  0.00     0.124 C 
BRANCH   7   8
HETATM    8  C   UNK N   1      34.005  17.833   7.797  0.00  0.00     0.139 C 
HETATM    9  N   UNK N   1      34.528  18.496   8.764  0.00  0.00    -0.251 N 
ATOM     10  HN  UNK N   1      34.175  18.367   9.712  1.00  0.00     0.196 HD
BRANCH   9  11
HETATM   11  O   UNK N   1      35.516  19.340   8.548  0.00  0.00    -0.288 OA
HETATM   12  H   UNK N   1      36.269  19.068   8.062  0.00  0.00     0.244 HD
ENDBRANCH   9  11
BRANCH   8  13
HETATM   13  O   UNK N   1      34.463  17.994   6.538  0.00  0.00    -0.348 OA
HETATM   14  H   UNK N   1      35.168  17.462   6.225  0.00  0.00     0.219 HD
ENDBRANCH   8  13
ENDBRANCH   7   8
ENDBRANCH   5   7
BRANCH   6  15
HETATM   15  O   UNK N   1      27.594  18.078   6.422  0.00  0.00    -0.351 OA
BRANCH  15  16
HETATM   16  C   UNK N   1      27.355  18.447   5.114  0.00  0.00     0.175 C 
BRANCH  16  17
HETATM   17  C   UNK N   1      27.860  19.833   4.805  0.00  0.00     0.026 C 
BRANCH  17  18
HETATM   18  C   UNK N   1      26.749  20.794   5.181  0.00  0.00    -0.002 C 
HETATM   19  C   UNK N   1      27.155  21.638   6.367  0.00  0.00     0.005 C 
ENDBRANCH  17  18
ENDBRANCH  16  17
ENDBRANCH  15  16
ENDBRANCH   6  15
TORSDOF 8
ENDMDL
MODEL 4
REMARK VINA RESULT:      -5.9      1.857      2.645
REMARK  8 active torsions:
REMARK  status: ('A' for Active; 'I' for Inactive)
REMARK    1  A    between atoms: C_3  and  C_2 
REMARK    2  A    between atoms: C_8  and  C_3 
REMARK    3  A    between atoms: O_17  and  C_8 
REMARK    4  A    between atoms: C_10  and  C_9 
REMARK    5  A    between atoms: C_12  and  C_9 
REMARK    6  A    between atoms: O_17  and  C_11 
REMARK    7  A    between atoms: O_15  and  C_12 
REMARK    8  A    between atoms: N_13  and  O_16 
ROOT
HETATM    1  C   UNK N   1      21.586  13.635  10.131  0.00  0.00     0.010 A 
HETATM    2  C   UNK N   1      22.001  12.144   8.276  0.00  0.00     0.010 A 
HETATM    3  C   UNK N   1      20.828  14.469   9.295  0.00  0.00     0.037 A 
HETATM    4  C   UNK N   1      21.250  12.968   7.445  0.00  0.00     0.037 A 
HETATM    5  C   UNK N   1      22.177  12.465   9.621  0.00  0.00    -0.050 A 
HETATM    6  C   UNK N   1      20.656  14.140   7.945  0.00  0.00     0.068 A 
ENDROOT
BRANCH   5   7
HETATM    7  C   UNK N   1      23.004  11.515  10.446  0.00  0.00     0.124 C 
BRANCH   7   8
HETATM    8  C   UNK N   1      23.791  12.027  11.622  0.00  0.00     0.139 C 
HETATM    9  N   UNK N   1      23.226  12.035  12.775  0.00  0.00    -0.251 N 
ATOM     10  HN  UNK N   1      22.268  11.699  12.868  1.00  0.00     0.196 HD
BRANCH   9  11
HETATM   11  O   UNK N   1      23.868  12.472  13.839  0.00  0.00    -0.288 OA
HETATM   12  H   UNK N   1      23.400  12.637  14.634  0.00  0.00     0.244 HD
ENDBRANCH   9  11
BRANCH   8  13
HETATM   13  O   UNK N   1      25.058  12.469  11.484  0.00  0.00    -0.348 OA
HETATM   14  H   UNK N   1      25.732  12.141  12.048  0.00  0.00     0.219 HD
ENDBRANCH   8  13
ENDBRANCH   7   8
ENDBRANCH   5   7
BRANCH   6  15
HETATM   15  O   UNK N   1      19.923  14.945   7.135  0.00  0.00    -0.351 OA
BRANCH  15  16
HETATM   16  C   UNK N   1      20.527  15.669   6.129  0.00  0.00     0.175 C 
BRANCH  16  17
HETATM   17  C   UNK N   1      21.753  16.407   6.605  0.00  0.00     0.026 C 
BRANCH  17  18
HETATM   18  C   UNK N   1      22.906  15.936   5.741  0.00  0.00    -0.002 C 
HETATM   19  C   UNK N   1      23.981  15.297   6.590  0.00  0.00     0.005 C 
ENDBRANCH  17  18
ENDBRANCH  16  17
ENDBRANCH  15  16
ENDBRANCH   6  15
TORSDOF 8
ENDMDL
MODEL 5
REMARK VINA RESULT:      -5.8      1.405      2.030
REMARK  8 active torsions:
REMARK  status: ('A' for Active; 'I' for Inactive)
REMARK    1  A    between atoms: C_3  and  C_2 
REMARK    2  A    between atoms: C_8  and  C_3 
REMARK    3  A    between atoms: O_17  and  C_8 
REMARK    4  A    between atoms: C_10  and  C_9 
REMARK    5  A    between atoms: C_12  and  C_9 
REMARK    6  A    between atoms: O_17  and  C_11 
REMARK    7  A    between atoms: O_15  and  C_12 
REMARK    8  A    between atoms: N_13  and  O_16 
ROOT
HETATM    1  C   UNK N   1      23.019  13.861   7.888  0.00  0.00     0.010 A 
HETATM    2  C   UNK N   1      21.813  13.140   9.853  0.00  0.00     0.010 A 
HETATM    3  C   UNK N   1      21.922  14.644   7.497  0.00  0.00     0.037 A 
HETATM    4  C   UNK N   1      20.724  13.915   9.468  0.00  0.00     0.037 A 
HETATM    5  C   UNK N   1      22.967  13.104   9.073  0.00  0.00    -0.050 A 
HETATM    6  C   UNK N   1      20.766  14.675   8.286  0.00  0.00     0.068 A 
ENDROOT
BRANCH   5   7
HETATM    7  C   UNK N   1      24.096  12.239   9.566  0.00  0.00     0.124 C 
BRANCH   7   8
HETATM    8  C   UNK N   1      24.990  12.725  10.674  0.00  0.00     0.139 C 
HETATM    9  N   UNK N   1      25.774  13.713  10.435  0.00  0.00    -0.251 N 
ATOM     10  HN  UNK N   1      25.774  14.142   9.510  1.00  0.00     0.196 HD
BRANCH   9  11
HETATM   11  O   UNK N   1      26.578  14.180  11.369  0.00  0.00    -0.288 OA
HETATM   12  H   UNK N   1      26.766  15.096  11.410  0.00  0.00     0.244 HD
ENDBRANCH   9  11
BRANCH   8  13
HETATM   13  O   UNK N   1      24.979  12.147  11.893  0.00  0.00    -0.348 OA
HETATM   14  H   UNK N   1      24.904  12.679  12.662  0.00  0.00     0.219 HD
ENDBRANCH   8  13
ENDBRANCH   7   8
ENDBRANCH   5   7
BRANCH   6  15
HETATM   15  O   UNK N   1      19.704  15.430   7.910  0.00  0.00    -0.351 OA
BRANCH  15  16
HETATM   16  C   UNK N   1      19.844  16.786   7.697  0.00  0.00     0.175 C 
BRANCH  16  17
HETATM   17  C   UNK N   1      19.520  17.599   8.925  0.00  0.00     0.026 C 
BRANCH  17  18
HETATM   18  C   UNK N   1      18.051  17.371   9.221  0.00  0.00    -0.002 C 
HETATM   19  C   UNK N   1      17.606  18.217  10.392  0.00  0.00     0.005 C 
ENDBRANCH  17  18
ENDBRANCH  16  17
ENDBRANCH  15  16
ENDBRANCH   6  15
TORSDOF 8
ENDMDL
MODEL 6
REMARK VINA RESULT:      -5.6     19.245     20.637
REMARK  8 active torsions:
REMARK  status: ('A' for Active; 'I' for Inactive)
REMARK    1  A    between atoms: C_3  and  C_2 
REMARK    2  A    between atoms: C_8  and  C_3 
REMARK    3  A    between atoms: O_17  and  C_8 
REMARK    4  A    between atoms: C_10  and  C_9 
REMARK    5  A    between atoms: C_12  and  C_9 
REMARK    6  A    between atoms: O_17  and  C_11 
REMARK    7  A    between atoms: O_15  and  C_12 
REMARK    8  A    between atoms: N_13  and  O_16 
ROOT
HETATM    1  C   UNK N   1      25.210  25.944  -5.717  0.00  0.00     0.010 A 
HETATM    2  C   UNK N   1      26.661  25.196  -3.937  0.00  0.00     0.010 A 
HETATM    3  C   UNK N   1      25.118  27.209  -5.117  0.00  0.00     0.037 A 
HETATM    4  C   UNK N   1      26.573  26.448  -3.339  0.00  0.00     0.037 A 
HETATM    5  C   UNK N   1      25.985  24.929  -5.126  0.00  0.00    -0.050 A 
HETATM    6  C   UNK N   1      25.801  27.468  -3.922  0.00  0.00     0.068 A 
ENDROOT
BRANCH   5   7
HETATM    7  C   UNK N   1      26.137  23.547  -5.703  0.00  0.00     0.124 C 
BRANCH   7   8
HETATM    8  C   UNK N   1      25.622  23.245  -7.084  0.00  0.00     0.139 C 
HETATM    9  N   UNK N   1      24.655  22.409  -7.204  0.00  0.00    -0.251 N 
ATOM     10  HN  UNK N   1      24.261  21.973  -6.370  1.00  0.00     0.196 HD
BRANCH   9  11
HETATM   11  O   UNK N   1      24.165  22.108  -8.389  0.00  0.00    -0.288 OA
HETATM   12  H   UNK N   1      24.087  22.770  -9.047  0.00  0.00     0.244 HD
ENDBRANCH   9  11
BRANCH   8  13
HETATM   13  O   UNK N   1      26.153  23.830  -8.177  0.00  0.00    -0.348 OA
HETATM   14  H   UNK N   1      25.899  23.541  -9.032  0.00  0.00     0.219 HD
ENDBRANCH   8  13
ENDBRANCH   7   8
ENDBRANCH   5   7
BRANCH   6  15
HETATM   15  O   UNK N   1      25.714  28.690  -3.339  0.00  0.00    -0.351 OA
BRANCH  15  16
HETATM   16  C   UNK N   1      26.817  29.516  -3.267  0.00  0.00     0.175 C 
BRANCH  16  17
HETATM   17  C   UNK N   1      26.928  30.434  -4.459  0.00  0.00     0.026 C 
BRANCH  17  18
HETATM   18  C   UNK N   1      28.217  30.070  -5.168  0.00  0.00    -0.002 C 
HETATM   19  C   UNK N   1      27.939  29.172  -6.351  0.00  0.00     0.005 C 
ENDBRANCH  17  18
ENDBRANCH  16  17
ENDBRANCH  15  16
ENDBRANCH   6  15
TORSDOF 8
ENDMDL
MODEL 7
REMARK VINA RESULT:      -5.6     10.074     10.897
REMARK  8 active torsions:
REMARK  status: ('A' for Active; 'I' for Inactive)
REMARK    1  A    between atoms: C_3  and  C_2 
REMARK    2  A    between atoms: C_8  and  C_3 
REMARK    3  A    between atoms: O_17  and  C_8 
REMARK    4  A    between atoms: C_10  and  C_9 
REMARK    5  A    between atoms: C_12  and  C_9 
REMARK    6  A    between atoms: O_17  and  C_11 
REMARK    7  A    between atoms: O_15  and  C_12 
REMARK    8  A    between atoms: N_13  and  O_16 
ROOT
HETATM    1  C   UNK N   1      31.565  16.706   6.026  0.00  0.00     0.010 A 
HETATM    2  C   UNK N   1      30.951  17.311   8.283  0.00  0.00     0.010 A 
HETATM    3  C   UNK N   1      30.311  17.137   5.566  0.00  0.00     0.037 A 
HETATM    4  C   UNK N   1      29.708  17.739   7.830  0.00  0.00     0.037 A 
HETATM    5  C   UNK N   1      31.890  16.792   7.392  0.00  0.00    -0.050 A 
HETATM    6  C   UNK N   1      29.375  17.657   6.467  0.00  0.00     0.068 A 
ENDROOT
BRANCH   5   7
HETATM    7  C   UNK N   1      33.209  16.353   7.970  0.00  0.00     0.124 C 
BRANCH   7   8
HETATM    8  C   UNK N   1      34.092  17.347   8.674  0.00  0.00     0.139 C 
HETATM    9  N   UNK N   1      34.527  18.354   8.007  0.00  0.00    -0.251 N 
ATOM     10  HN  UNK N   1      34.268  18.458   7.026  1.00  0.00     0.196 HD
BRANCH   9  11
HETATM   11  O   UNK N   1      35.304  19.256   8.573  0.00  0.00    -0.288 OA
HETATM   12  H   UNK N   1      34.925  19.973   9.041  0.00  0.00     0.244 HD
ENDBRANCH   9  11
BRANCH   8  13
HETATM   13  O   UNK N   1      34.426  17.198   9.972  0.00  0.00    -0.348 OA
HETATM   14  H   UNK N   1      34.737  17.934  10.463  0.00  0.00     0.219 HD
ENDBRANCH   8  13
ENDBRANCH   7   8
ENDBRANCH   5   7
BRANCH   6  15
HETATM   15  O   UNK N   1      28.162  18.074   6.025  0.00  0.00    -0.351 OA
BRANCH  15  16
HETATM   16  C   UNK N   1      27.985  18.460   4.712  0.00  0.00     0.175 C 
BRANCH  16  17
HETATM   17  C   UNK N   1      27.692  19.933   4.578  0.00  0.00     0.026 C 
BRANCH  17  18
HETATM   18  C   UNK N   1      26.782  20.301   5.733  0.00  0.00    -0.002 C 
HETATM   19  C   UNK N   1      27.228  21.596   6.371  0.00  0.00     0.005 C 
ENDBRANCH  17  18
ENDBRANCH  16  17
ENDBRANCH  15  16
ENDBRANCH   6  15
TORSDOF 8
ENDMDL
MODEL 8
REMARK VINA RESULT:      -5.5     15.540     17.065
REMARK  8 active torsions:
REMARK  status: ('A' for Active; 'I' for Inactive)
REMARK    1  A    between atoms: C_3  and  C_2 
REMARK    2  A    between atoms: C_8  and  C_3 
REMARK    3  A    between atoms: O_17  and  C_8 
REMARK    4  A    between atoms: C_10  and  C_9 
REMARK    5  A    between atoms: C_12  and  C_9 
REMARK    6  A    between atoms: O_17  and  C_11 
REMARK    7  A    between atoms: O_15  and  C_12 
REMARK    8  A    between atoms: N_13  and  O_16 
ROOT
HETATM    1  C   UNK N   1      35.118  13.324  18.172  0.00  0.00     0.010 A 
HETATM    2  C   UNK N   1      35.581  11.286  16.960  0.00  0.00     0.010 A 
HETATM    3  C   UNK N   1      35.263  12.639  19.388  0.00  0.00     0.037 A 
HETATM    4  C   UNK N   1      35.725  10.604  18.163  0.00  0.00     0.037 A 
HETATM    5  C   UNK N   1      35.277  12.647  16.949  0.00  0.00    -0.050 A 
HETATM    6  C   UNK N   1      35.568  11.272  19.389  0.00  0.00     0.068 A 
ENDROOT
BRANCH   5   7
HETATM    7  C   UNK N   1      35.140  13.304  15.602  0.00  0.00     0.124 C 
BRANCH   7   8
HETATM    8  C   UNK N   1      36.357  13.541  14.750  0.00  0.00     0.139 C 
HETATM    9  N   UNK N   1      36.266  13.335  13.487  0.00  0.00    -0.251 N 
ATOM     10  HN  UNK N   1      35.380  13.019  13.091  1.00  0.00     0.196 HD
BRANCH   9  11
HETATM   11  O   UNK N   1      37.300  13.526  12.693  0.00  0.00    -0.288 OA
HETATM   12  H   UNK N   1      38.103  13.859  13.042  0.00  0.00     0.244 HD
ENDBRANCH   9  11
BRANCH   8  13
HETATM   13  O   UNK N   1      37.523  13.958  15.287  0.00  0.00    -0.348 OA
HETATM   14  H   UNK N   1      37.792  14.850  15.185  0.00  0.00     0.219 HD
ENDBRANCH   8  13
ENDBRANCH   7   8
ENDBRANCH   5   7
BRANCH   6  15
HETATM   15  O   UNK N   1      35.708  10.607  20.564  0.00  0.00    -0.351 OA
BRANCH  15  16
HETATM   16  C   UNK N   1      35.022   9.433  20.795  0.00  0.00     0.175 C 
BRANCH  16  17
HETATM   17  C   UNK N   1      33.533   9.648  20.905  0.00  0.00     0.026 C 
BRANCH  17  18
HETATM   18  C   UNK N   1      32.891   8.791  19.832  0.00  0.00    -0.002 C 
HETATM   19  C   UNK N   1      31.423   8.581  20.127  0.00  0.00     0.005 C 
ENDBRANCH  17  18
ENDBRANCH  16  17
ENDBRANCH  15  16
ENDBRANCH   6  15
TORSDOF 8
ENDMDL
MODEL 9
REMARK VINA RESULT:      -5.4     17.646     19.123
REMARK  8 active torsions:
REMARK  status: ('A' for Active; 'I' for Inactive)
REMARK    1  A    between atoms: C_3  and  C_2 
REMARK    2  A    between atoms: C_8  and  C_3 
REMARK    3  A    between atoms: O_17  and  C_8 
REMARK    4  A    between atoms: C_10  and  C_9 
REMARK    5  A    between atoms: C_12  and  C_9 
REMARK    6  A    between atoms: O_17  and  C_11 
REMARK    7  A    between atoms: O_15  and  C_12 
REMARK    8  A    between atoms: N_13  and  O_16 
ROOT
HETATM    1  C   UNK N   1      29.375  24.783  -4.670  0.00  0.00     0.010 A 
HETATM    2  C   UNK N   1      27.860  23.539  -3.257  0.00  0.00     0.010 A 
HETATM    3  C   UNK N   1      28.488  25.871  -4.669  0.00  0.00     0.037 A 
HETATM    4  C   UNK N   1      26.979  24.615  -3.255  0.00  0.00     0.037 A 
HETATM    5  C   UNK N   1      29.062  23.609  -3.961  0.00  0.00    -0.050 A 
HETATM    6  C   UNK N   1      27.283  25.792  -3.960  0.00  0.00     0.068 A 
ENDROOT
BRANCH   5   7
HETATM    7  C   UNK N   1      29.954  22.398  -3.908  0.00  0.00     0.124 C 
BRANCH   7   8
HETATM    8  C   UNK N   1      30.914  22.217  -2.764  0.00  0.00     0.139 C 
HETATM    9  N   UNK N   1      31.883  21.388  -2.907  0.00  0.00    -0.251 N 
ATOM     10  HN  UNK N   1      31.981  20.875  -3.783  1.00  0.00     0.196 HD
BRANCH   9  11
HETATM   11  O   UNK N   1      32.753  21.191  -1.937  0.00  0.00    -0.288 OA
HETATM   12  H   UNK N   1      33.204  21.918  -1.556  0.00  0.00     0.244 HD
ENDBRANCH   9  11
BRANCH   8  13
HETATM   13  O   UNK N   1      30.773  22.903  -1.610  0.00  0.00    -0.348 OA
HETATM   14  H   UNK N   1      31.506  23.359  -1.244  0.00  0.00     0.219 HD
ENDBRANCH   8  13
ENDBRANCH   7   8
ENDBRANCH   5   7
BRANCH   6  15
HETATM   15  O   UNK N   1      26.424  26.842  -3.958  0.00  0.00    -0.351 OA
BRANCH  15  16
HETATM   16  C   UNK N   1      26.742  28.011  -3.299  0.00  0.00     0.175 C 
BRANCH  16  17
HETATM   17  C   UNK N   1      26.264  29.237  -4.036  0.00  0.00     0.026 C 
BRANCH  17  18
HETATM   18  C   UNK N   1      27.487  29.861  -4.680  0.00  0.00    -0.002 C 
HETATM   19  C   UNK N   1      27.760  29.230  -6.026  0.00  0.00     0.005 C 
ENDBRANCH  17  18
ENDBRANCH  16  17
ENDBRANCH  15  16
ENDBRANCH   6  15
TORSDOF 8
ENDMDL
