REMARK  0 active torsions:
REMARK  status: ('A' for Active; 'I' for Inactive)
ROOT
HETATM    1  I   UNK N   1       2.130   1.850   0.000  0.00  0.00    -0.062 I 
HETATM    2  C   UNK N   1       1.072   0.000   0.000  0.00  0.00     0.187 C 
HETATM    3  I   UNK N   1       2.130  -1.850   0.000  0.00  0.00    -0.062 I 
HETATM    4  I   UNK N   1      -1.061   0.000   0.000  0.00  0.00    -0.062 I 
ENDROOT
TORSDOF 0
