MODEL 1
REMARK VINA RESULT:      -6.2      0.000      0.000
REMARK  6 active torsions:
REMARK  status: ('A' for Active; 'I' for Inactive)
REMARK    1  A    between atoms: C_3  and  C_20 
REMARK    2  A    between atoms: C_7  and  O_8 
REMARK    3  A    between atoms: O_8  and  C_9 
REMARK    4  A    between atoms: C_11  and  C_9 
REMARK    5  A    between atoms: C_12  and  C_16 
REMARK    6  A    between atoms: C_20  and  C_21 
ROOT
HETATM    1  O   UNK N   1      30.263  22.036  -3.225  0.00  0.00    -0.311 OA
ENDROOT
BRANCH   1   2
HETATM    2  C   UNK N   1      29.981  23.256  -2.652  0.00  0.00     0.168 C 
HETATM    3  C   UNK N   1      28.595  23.139  -1.960  0.00  0.00     0.120 C 
HETATM    4  C   UNK N   1      27.708  23.887  -2.889  0.00  0.00     0.159 C 
HETATM    5  C   UNK N   1      28.468  24.535  -3.925  0.00  0.00    -0.004 C 
HETATM    6  O   UNK N   1      26.494  23.952  -2.775  0.00  0.00    -0.293 OA
HETATM    7  C   UNK N   1      29.744  24.221  -3.785  0.00  0.00    -0.044 C 
HETATM    8  C   UNK N   1      30.829  24.693  -4.697  0.00  0.00     0.047 C 
BRANCH   5   9
HETATM    9  C   UNK N   1      27.898  25.397  -5.012  0.00  0.00     0.069 C 
BRANCH   9  10
HETATM   10  C   UNK N   1      27.398  24.554  -6.134  0.00  0.00    -0.032 C 
HETATM   11  C   UNK N   1      26.096  24.319  -6.254  0.00  0.00     0.007 C 
ENDBRANCH   9  10
ENDBRANCH   5   9
ENDBRANCH   1   2
BRANCH   1  12
HETATM   12  C   UNK N   1      31.469  21.424  -3.166  0.00  0.00     0.265 C 
HETATM   13  O   UNK N   1      32.194  21.647  -2.211  0.00  0.00    -0.265 OA
BRANCH  12  14
HETATM   14  C   UNK N   1      31.941  20.481  -4.245  0.00  0.00     0.102 A 
HETATM   15  C   UNK N   1      31.543  21.122  -5.577  0.00  0.00     0.031 A 
HETATM   16  C   UNK N   1      33.014  21.025  -5.190  0.00  0.00    -0.027 A 
HETATM   17  C   UNK N   1      33.835  20.027  -5.991  0.00  0.00     0.016 C 
HETATM   18  C   UNK N   1      33.644  22.376  -4.884  0.00  0.00     0.016 C 
BRANCH  15  19
HETATM   19  C   UNK N   1      30.925  20.000  -6.364  0.00  0.00    -0.018 C 
HETATM   20  C   UNK N   1      29.794  20.113  -7.068  0.00  0.00    -0.091 C 
HETATM   21  C   UNK N   1      29.268  18.916  -7.780  0.00  0.00     0.042 C 
HETATM   22  C   UNK N   1      29.031  21.395  -7.135  0.00  0.00     0.042 C 
ENDBRANCH  15  19
ENDBRANCH  12  14
ENDBRANCH   1  12
TORSDOF 6
ENDMDL
MODEL 2
REMARK VINA RESULT:      -6.2      2.337      6.837
REMARK  6 active torsions:
REMARK  status: ('A' for Active; 'I' for Inactive)
REMARK    1  A    between atoms: C_3  and  C_20 
REMARK    2  A    between atoms: C_7  and  O_8 
REMARK    3  A    between atoms: O_8  and  C_9 
REMARK    4  A    between atoms: C_11  and  C_9 
REMARK    5  A    between atoms: C_12  and  C_16 
REMARK    6  A    between atoms: C_20  and  C_21 
ROOT
HETATM    1  O   UNK N   1      28.392  24.611  -3.621  0.00  0.00    -0.311 OA
ENDROOT
BRANCH   1   2
HETATM    2  C   UNK N   1      28.930  23.458  -4.144  0.00  0.00     0.168 C 
HETATM    3  C   UNK N   1      29.464  22.610  -2.956  0.00  0.00     0.120 C 
HETATM    4  C   UNK N   1      30.935  22.799  -3.063  0.00  0.00     0.159 C 
HETATM    5  C   UNK N   1      31.281  23.517  -4.260  0.00  0.00    -0.004 C 
HETATM    6  O   UNK N   1      31.740  22.382  -2.245  0.00  0.00    -0.293 OA
HETATM    7  C   UNK N   1      30.174  23.862  -4.893  0.00  0.00    -0.044 C 
HETATM    8  C   UNK N   1      30.144  24.644  -6.166  0.00  0.00     0.047 C 
BRANCH   5   9
HETATM    9  C   UNK N   1      32.676  23.856  -4.697  0.00  0.00     0.069 C 
BRANCH   9  10
HETATM   10  C   UNK N   1      33.286  22.707  -5.423  0.00  0.00    -0.032 C 
HETATM   11  C   UNK N   1      34.281  22.027  -4.864  0.00  0.00     0.007 C 
ENDBRANCH   9  10
ENDBRANCH   5   9
ENDBRANCH   1   2
BRANCH   1  12
HETATM   12  C   UNK N   1      27.067  24.821  -3.435  0.00  0.00     0.265 C 
HETATM   13  O   UNK N   1      26.408  23.954  -2.885  0.00  0.00    -0.265 OA
BRANCH  12  14
HETATM   14  C   UNK N   1      26.386  26.088  -3.889  0.00  0.00     0.102 A 
HETATM   15  C   UNK N   1      27.215  26.624  -5.059  0.00  0.00     0.031 A 
HETATM   16  C   UNK N   1      25.817  26.073  -5.309  0.00  0.00    -0.027 A 
HETATM   17  C   UNK N   1      24.763  27.108  -5.668  0.00  0.00     0.016 C 
HETATM   18  C   UNK N   1      25.818  24.764  -6.085  0.00  0.00     0.016 C 
BRANCH  15  19
HETATM   19  C   UNK N   1      27.376  28.090  -4.765  0.00  0.00    -0.018 C 
HETATM   20  C   UNK N   1      27.764  28.997  -5.667  0.00  0.00    -0.091 C 
HETATM   21  C   UNK N   1      27.915  30.415  -5.242  0.00  0.00     0.042 C 
HETATM   22  C   UNK N   1      28.078  28.621  -7.079  0.00  0.00     0.042 C 
ENDBRANCH  15  19
ENDBRANCH  12  14
ENDBRANCH   1  12
TORSDOF 6
ENDMDL
MODEL 3
REMARK VINA RESULT:      -6.1      2.246      6.902
REMARK  6 active torsions:
REMARK  status: ('A' for Active; 'I' for Inactive)
REMARK    1  A    between atoms: C_3  and  C_20 
REMARK    2  A    between atoms: C_7  and  O_8 
REMARK    3  A    between atoms: O_8  and  C_9 
REMARK    4  A    between atoms: C_11  and  C_9 
REMARK    5  A    between atoms: C_12  and  C_16 
REMARK    6  A    between atoms: C_20  and  C_21 
ROOT
HETATM    1  O   UNK N   1      28.327  24.535  -4.136  0.00  0.00    -0.311 OA
ENDROOT
BRANCH   1   2
HETATM    2  C   UNK N   1      29.496  24.881  -3.496  0.00  0.00     0.168 C 
HETATM    3  C   UNK N   1      30.528  25.277  -4.589  0.00  0.00     0.120 C 
HETATM    4  C   UNK N   1      31.432  24.098  -4.619  0.00  0.00     0.159 C 
HETATM    5  C   UNK N   1      31.115  23.172  -3.564  0.00  0.00    -0.004 C 
HETATM    6  O   UNK N   1      32.335  23.947  -5.427  0.00  0.00    -0.293 OA
HETATM    7  C   UNK N   1      30.058  23.613  -2.905  0.00  0.00    -0.044 C 
HETATM    8  C   UNK N   1      29.426  22.897  -1.757  0.00  0.00     0.047 C 
BRANCH   5   9
HETATM    9  C   UNK N   1      31.844  21.892  -3.283  0.00  0.00     0.069 C 
BRANCH   9  10
HETATM   10  C   UNK N   1      31.129  20.741  -3.901  0.00  0.00    -0.032 C 
HETATM   11  C   UNK N   1      31.297  20.476  -5.193  0.00  0.00     0.007 C 
ENDBRANCH   9  10
ENDBRANCH   5   9
ENDBRANCH   1   2
BRANCH   1  12
HETATM   12  C   UNK N   1      27.088  24.836  -3.679  0.00  0.00     0.265 C 
HETATM   13  O   UNK N   1      26.522  24.038  -2.951  0.00  0.00    -0.265 OA
BRANCH  12  14
HETATM   14  C   UNK N   1      26.391  26.122  -4.047  0.00  0.00     0.102 A 
HETATM   15  C   UNK N   1      27.125  26.671  -5.275  0.00  0.00     0.031 A 
HETATM   16  C   UNK N   1      25.701  26.145  -5.412  0.00  0.00    -0.027 A 
HETATM   17  C   UNK N   1      24.637  27.202  -5.658  0.00  0.00     0.016 C 
HETATM   18  C   UNK N   1      25.613  24.853  -6.212  0.00  0.00     0.016 C 
BRANCH  15  19
HETATM   19  C   UNK N   1      27.333  28.128  -4.967  0.00  0.00    -0.018 C 
HETATM   20  C   UNK N   1      27.820  29.015  -5.840  0.00  0.00    -0.091 C 
HETATM   21  C   UNK N   1      28.009  30.425  -5.402  0.00  0.00     0.042 C 
HETATM   22  C   UNK N   1      28.206  28.625  -7.230  0.00  0.00     0.042 C 
ENDBRANCH  15  19
ENDBRANCH  12  14
ENDBRANCH   1  12
TORSDOF 6
ENDMDL
MODEL 4
REMARK VINA RESULT:      -6.0     21.005     23.297
REMARK  6 active torsions:
REMARK  status: ('A' for Active; 'I' for Inactive)
REMARK    1  A    between atoms: C_3  and  C_20 
REMARK    2  A    between atoms: C_7  and  O_8 
REMARK    3  A    between atoms: O_8  and  C_9 
REMARK    4  A    between atoms: C_11  and  C_9 
REMARK    5  A    between atoms: C_12  and  C_16 
REMARK    6  A    between atoms: C_20  and  C_21 
ROOT
HETATM    1  O   UNK N   1      36.242  13.272  15.868  0.00  0.00    -0.311 OA
ENDROOT
BRANCH   1   2
HETATM    2  C   UNK N   1      35.067  13.002  16.533  0.00  0.00     0.168 C 
HETATM    3  C   UNK N   1      35.084  13.813  17.859  0.00  0.00     0.120 C 
HETATM    4  C   UNK N   1      35.364  12.765  18.874  0.00  0.00     0.159 C 
HETATM    5  C   UNK N   1      35.345  11.452  18.284  0.00  0.00    -0.004 C 
HETATM    6  O   UNK N   1      35.568  12.992  20.056  0.00  0.00    -0.293 OA
HETATM    7  C   UNK N   1      35.145  11.565  16.983  0.00  0.00    -0.044 C 
HETATM    8  C   UNK N   1      35.090  10.410  16.038  0.00  0.00     0.047 C 
BRANCH   5   9
HETATM    9  C   UNK N   1      35.558  10.164  19.023  0.00  0.00     0.069 C 
BRANCH   9  10
HETATM   10  C   UNK N   1      34.300   9.740  19.699  0.00  0.00    -0.032 C 
HETATM   11  C   UNK N   1      33.565   8.765  19.174  0.00  0.00     0.007 C 
ENDBRANCH   9  10
ENDBRANCH   5   9
ENDBRANCH   1   2
BRANCH   1  12
HETATM   12  C   UNK N   1      36.313  13.864  14.652  0.00  0.00     0.265 C 
HETATM   13  O   UNK N   1      36.837  14.962  14.564  0.00  0.00    -0.265 OA
BRANCH  12  14
HETATM   14  C   UNK N   1      35.761  13.209  13.410  0.00  0.00     0.102 A 
HETATM   15  C   UNK N   1      36.814  13.412  12.316  0.00  0.00     0.031 A 
HETATM   16  C   UNK N   1      36.553  12.016  12.871  0.00  0.00    -0.027 A 
HETATM   17  C   UNK N   1      35.849  11.059  11.924  0.00  0.00     0.016 C 
HETATM   18  C   UNK N   1      37.711  11.473  13.696  0.00  0.00     0.016 C 
BRANCH  15  19
HETATM   19  C   UNK N   1      36.029  13.875  11.120  0.00  0.00    -0.018 C 
HETATM   20  C   UNK N   1      36.575  14.193   9.943  0.00  0.00    -0.091 C 
HETATM   21  C   UNK N   1      35.690  14.669   8.844  0.00  0.00     0.042 C 
HETATM   22  C   UNK N   1      38.049  14.112   9.709  0.00  0.00     0.042 C 
ENDBRANCH  15  19
ENDBRANCH  12  14
ENDBRANCH   1  12
TORSDOF 6
ENDMDL
MODEL 5
REMARK VINA RESULT:      -5.9     19.173     21.463
REMARK  6 active torsions:
REMARK  status: ('A' for Active; 'I' for Inactive)
REMARK    1  A    between atoms: C_3  and  C_20 
REMARK    2  A    between atoms: C_7  and  O_8 
REMARK    3  A    between atoms: O_8  and  C_9 
REMARK    4  A    between atoms: C_11  and  C_9 
REMARK    5  A    between atoms: C_12  and  C_16 
REMARK    6  A    between atoms: C_20  and  C_21 
ROOT
HETATM    1  O   UNK N   1      34.821  13.448  13.036  0.00  0.00    -0.311 OA
ENDROOT
BRANCH   1   2
HETATM    2  C   UNK N   1      35.735  13.794  12.067  0.00  0.00     0.168 C 
HETATM    3  C   UNK N   1      36.022  15.314  12.216  0.00  0.00     0.120 C 
HETATM    4  C   UNK N   1      35.275  15.896  11.070  0.00  0.00     0.159 C 
HETATM    5  C   UNK N   1      34.744  14.866  10.218  0.00  0.00    -0.004 C 
HETATM    6  O   UNK N   1      35.146  17.094  10.874  0.00  0.00    -0.293 OA
HETATM    7  C   UNK N   1      35.023  13.686  10.742  0.00  0.00    -0.044 C 
HETATM    8  C   UNK N   1      34.606  12.382  10.144  0.00  0.00     0.047 C 
BRANCH   5   9
HETATM    9  C   UNK N   1      33.964  15.097   8.958  0.00  0.00     0.069 C 
BRANCH   9  10
HETATM   10  C   UNK N   1      32.525  15.322   9.272  0.00  0.00    -0.032 C 
HETATM   11  C   UNK N   1      31.774  16.041   8.445  0.00  0.00     0.007 C 
ENDBRANCH   9  10
ENDBRANCH   5   9
ENDBRANCH   1   2
BRANCH   1  12
HETATM   12  C   UNK N   1      34.960  12.395  13.876  0.00  0.00     0.265 C 
HETATM   13  O   UNK N   1      35.375  11.339  13.429  0.00  0.00    -0.265 OA
BRANCH  12  14
HETATM   14  C   UNK N   1      34.613  12.490  15.341  0.00  0.00     0.102 A 
HETATM   15  C   UNK N   1      35.683  11.687  16.087  0.00  0.00     0.031 A 
HETATM   16  C   UNK N   1      35.635  13.204  16.228  0.00  0.00    -0.027 A 
HETATM   17  C   UNK N   1      35.172  13.718  17.582  0.00  0.00     0.016 C 
HETATM   18  C   UNK N   1      36.814  13.906  15.570  0.00  0.00     0.016 C 
BRANCH  15  19
HETATM   19  C   UNK N   1      34.909  10.843  17.061  0.00  0.00    -0.018 C 
HETATM   20  C   UNK N   1      35.380   9.725  17.623  0.00  0.00    -0.091 C 
HETATM   21  C   UNK N   1      34.500   8.961  18.549  0.00  0.00     0.042 C 
HETATM   22  C   UNK N   1      36.750   9.209  17.325  0.00  0.00     0.042 C 
ENDBRANCH  15  19
ENDBRANCH  12  14
ENDBRANCH   1  12
TORSDOF 6
ENDMDL
MODEL 6
REMARK VINA RESULT:      -5.8      2.626      7.099
REMARK  6 active torsions:
REMARK  status: ('A' for Active; 'I' for Inactive)
REMARK    1  A    between atoms: C_3  and  C_20 
REMARK    2  A    between atoms: C_7  and  O_8 
REMARK    3  A    between atoms: O_8  and  C_9 
REMARK    4  A    between atoms: C_11  and  C_9 
REMARK    5  A    between atoms: C_12  and  C_16 
REMARK    6  A    between atoms: C_20  and  C_21 
ROOT
HETATM    1  O   UNK N   1      28.209  25.076  -4.173  0.00  0.00    -0.311 OA
ENDROOT
BRANCH   1   2
HETATM    2  C   UNK N   1      28.354  23.716  -4.013  0.00  0.00     0.168 C 
HETATM    3  C   UNK N   1      28.516  23.440  -2.492  0.00  0.00     0.120 C 
HETATM    4  C   UNK N   1      29.968  23.145  -2.372  0.00  0.00     0.159 C 
HETATM    5  C   UNK N   1      30.592  23.071  -3.666  0.00  0.00    -0.004 C 
HETATM    6  O   UNK N   1      30.547  22.975  -1.311  0.00  0.00    -0.293 OA
HETATM    7  C   UNK N   1      29.696  23.352  -4.595  0.00  0.00    -0.044 C 
HETATM    8  C   UNK N   1      29.989  23.396  -6.060  0.00  0.00     0.047 C 
BRANCH   5   9
HETATM    9  C   UNK N   1      32.038  22.762  -3.917  0.00  0.00     0.069 C 
BRANCH   9  10
HETATM   10  C   UNK N   1      32.319  21.326  -3.634  0.00  0.00    -0.032 C 
HETATM   11  C   UNK N   1      33.404  20.990  -2.945  0.00  0.00     0.007 C 
ENDBRANCH   9  10
ENDBRANCH   5   9
ENDBRANCH   1   2
BRANCH   1  12
HETATM   12  C   UNK N   1      27.108  25.776  -3.808  0.00  0.00     0.265 C 
HETATM   13  O   UNK N   1      26.028  25.209  -3.803  0.00  0.00    -0.265 OA
BRANCH  12  14
HETATM   14  C   UNK N   1      27.180  27.229  -3.412  0.00  0.00     0.102 A 
HETATM   15  C   UNK N   1      28.300  27.848  -4.254  0.00  0.00     0.031 A 
HETATM   16  C   UNK N   1      26.850  28.242  -4.510  0.00  0.00    -0.027 A 
HETATM   17  C   UNK N   1      26.475  29.654  -4.092  0.00  0.00     0.016 C 
HETATM   18  C   UNK N   1      26.315  27.732  -5.841  0.00  0.00     0.016 C 
BRANCH  15  19
HETATM   19  C   UNK N   1      29.108  28.651  -3.274  0.00  0.00    -0.018 C 
HETATM   20  C   UNK N   1      30.346  28.332  -2.884  0.00  0.00    -0.091 C 
HETATM   21  C   UNK N   1      31.029  29.195  -1.881  0.00  0.00     0.042 C 
HETATM   22  C   UNK N   1      31.050  27.121  -3.405  0.00  0.00     0.042 C 
ENDBRANCH  15  19
ENDBRANCH  12  14
ENDBRANCH   1  12
TORSDOF 6
ENDMDL
MODEL 7
REMARK VINA RESULT:      -5.8      2.884      7.175
REMARK  6 active torsions:
REMARK  status: ('A' for Active; 'I' for Inactive)
REMARK    1  A    between atoms: C_3  and  C_20 
REMARK    2  A    between atoms: C_7  and  O_8 
REMARK    3  A    between atoms: O_8  and  C_9 
REMARK    4  A    between atoms: C_11  and  C_9 
REMARK    5  A    between atoms: C_12  and  C_16 
REMARK    6  A    between atoms: C_20  and  C_21 
ROOT
HETATM    1  O   UNK N   1      29.298  24.831  -5.170  0.00  0.00    -0.311 OA
ENDROOT
BRANCH   1   2
HETATM    2  C   UNK N   1      28.664  23.821  -4.482  0.00  0.00     0.168 C 
HETATM    3  C   UNK N   1      28.860  24.095  -2.965  0.00  0.00     0.120 C 
HETATM    4  C   UNK N   1      29.884  23.086  -2.586  0.00  0.00     0.159 C 
HETATM    5  C   UNK N   1      30.156  22.188  -3.676  0.00  0.00    -0.004 C 
HETATM    6  O   UNK N   1      30.410  23.024  -1.486  0.00  0.00    -0.293 OA
HETATM    7  C   UNK N   1      29.456  22.563  -4.731  0.00  0.00    -0.044 C 
HETATM    8  C   UNK N   1      29.505  21.878  -6.058  0.00  0.00     0.047 C 
BRANCH   5   9
HETATM    9  C   UNK N   1      31.113  21.033  -3.632  0.00  0.00     0.069 C 
BRANCH   9  10
HETATM   10  C   UNK N   1      32.520  21.523  -3.683  0.00  0.00    -0.032 C 
HETATM   11  C   UNK N   1      33.442  20.964  -2.907  0.00  0.00     0.007 C 
ENDBRANCH   9  10
ENDBRANCH   5   9
ENDBRANCH   1   2
BRANCH   1  12
HETATM   12  C   UNK N   1      28.997  26.146  -5.047  0.00  0.00     0.265 C 
HETATM   13  O   UNK N   1      29.903  26.961  -5.084  0.00  0.00    -0.265 OA
BRANCH  12  14
HETATM   14  C   UNK N   1      27.579  26.628  -4.864  0.00  0.00     0.102 A 
HETATM   15  C   UNK N   1      27.437  27.879  -5.736  0.00  0.00     0.031 A 
HETATM   16  C   UNK N   1      26.694  26.602  -6.112  0.00  0.00    -0.027 A 
HETATM   17  C   UNK N   1      25.187  26.644  -5.920  0.00  0.00     0.016 C 
HETATM   18  C   UNK N   1      27.230  25.947  -7.377  0.00  0.00     0.016 C 
BRANCH  15  19
HETATM   19  C   UNK N   1      26.753  28.880  -4.847  0.00  0.00    -0.018 C 
HETATM   20  C   UNK N   1      27.164  30.142  -4.685  0.00  0.00    -0.091 C 
HETATM   21  C   UNK N   1      26.417  31.027  -3.750  0.00  0.00     0.042 C 
HETATM   22  C   UNK N   1      28.366  30.677  -5.393  0.00  0.00     0.042 C 
ENDBRANCH  15  19
ENDBRANCH  12  14
ENDBRANCH   1  12
TORSDOF 6
ENDMDL
MODEL 8
REMARK VINA RESULT:      -5.8      1.830      2.498
REMARK  6 active torsions:
REMARK  status: ('A' for Active; 'I' for Inactive)
REMARK    1  A    between atoms: C_3  and  C_20 
REMARK    2  A    between atoms: C_7  and  O_8 
REMARK    3  A    between atoms: O_8  and  C_9 
REMARK    4  A    between atoms: C_11  and  C_9 
REMARK    5  A    between atoms: C_12  and  C_16 
REMARK    6  A    between atoms: C_20  and  C_21 
ROOT
HETATM    1  O   UNK N   1      28.659  23.444  -4.047  0.00  0.00    -0.311 OA
ENDROOT
BRANCH   1   2
HETATM    2  C   UNK N   1      27.913  24.492  -3.558  0.00  0.00     0.168 C 
HETATM    3  C   UNK N   1      26.423  24.200  -3.886  0.00  0.00     0.120 C 
HETATM    4  C   UNK N   1      26.152  25.133  -5.011  0.00  0.00     0.159 C 
HETATM    5  C   UNK N   1      27.267  26.014  -5.235  0.00  0.00    -0.004 C 
HETATM    6  O   UNK N   1      25.112  25.154  -5.649  0.00  0.00    -0.293 OA
HETATM    7  C   UNK N   1      28.245  25.693  -4.407  0.00  0.00    -0.044 C 
HETATM    8  C   UNK N   1      29.572  26.378  -4.369  0.00  0.00     0.047 C 
BRANCH   5   9
HETATM    9  C   UNK N   1      27.324  27.099  -6.269  0.00  0.00     0.069 C 
BRANCH   9  10
HETATM   10  C   UNK N   1      26.801  28.377  -5.711  0.00  0.00    -0.032 C 
HETATM   11  C   UNK N   1      27.627  29.401  -5.520  0.00  0.00     0.007 C 
ENDBRANCH   9  10
ENDBRANCH   5   9
ENDBRANCH   1   2
BRANCH   1  12
HETATM   12  C   UNK N   1      29.555  22.737  -3.318  0.00  0.00     0.265 C 
HETATM   13  O   UNK N   1      29.647  22.964  -2.123  0.00  0.00    -0.265 OA
BRANCH  12  14
HETATM   14  C   UNK N   1      30.440  21.686  -3.939  0.00  0.00     0.102 A 
HETATM   15  C   UNK N   1      30.506  22.011  -5.434  0.00  0.00     0.031 A 
HETATM   16  C   UNK N   1      31.744  22.188  -4.562  0.00  0.00    -0.027 A 
HETATM   17  C   UNK N   1      32.857  21.181  -4.799  0.00  0.00     0.016 C 
HETATM   18  C   UNK N   1      32.136  23.645  -4.367  0.00  0.00     0.016 C 
BRANCH  15  19
HETATM   19  C   UNK N   1      30.282  20.689  -6.116  0.00  0.00    -0.018 C 
HETATM   20  C   UNK N   1      29.381  20.488  -7.082  0.00  0.00    -0.091 C 
HETATM   21  C   UNK N   1      29.234  19.123  -7.656  0.00  0.00     0.042 C 
HETATM   22  C   UNK N   1      28.499  21.587  -7.580  0.00  0.00     0.042 C 
ENDBRANCH  15  19
ENDBRANCH  12  14
ENDBRANCH   1  12
TORSDOF 6
ENDMDL
MODEL 9
REMARK VINA RESULT:      -5.8     10.285     12.804
REMARK  6 active torsions:
REMARK  status: ('A' for Active; 'I' for Inactive)
REMARK    1  A    between atoms: C_3  and  C_20 
REMARK    2  A    between atoms: C_7  and  O_8 
REMARK    3  A    between atoms: O_8  and  C_9 
REMARK    4  A    between atoms: C_11  and  C_9 
REMARK    5  A    between atoms: C_12  and  C_16 
REMARK    6  A    between atoms: C_20  and  C_21 
ROOT
HETATM    1  O   UNK N   1      21.482  18.276   2.550  0.00  0.00    -0.311 OA
ENDROOT
BRANCH   1   2
HETATM    2  C   UNK N   1      21.824  19.220   3.492  0.00  0.00     0.168 C 
HETATM    3  C   UNK N   1      22.308  20.485   2.730  0.00  0.00     0.120 C 
HETATM    4  C   UNK N   1      23.781  20.430   2.919  0.00  0.00     0.159 C 
HETATM    5  C   UNK N   1      24.150  19.376   3.825  0.00  0.00    -0.004 C 
HETATM    6  O   UNK N   1      24.569  21.193   2.383  0.00  0.00    -0.293 OA
HETATM    7  C   UNK N   1      23.065  18.712   4.182  0.00  0.00    -0.044 C 
HETATM    8  C   UNK N   1      23.065  17.532   5.097  0.00  0.00     0.047 C 
BRANCH   5   9
HETATM    9  C   UNK N   1      25.549  19.056   4.263  0.00  0.00     0.069 C 
BRANCH   9  10
HETATM   10  C   UNK N   1      25.992  20.006   5.321  0.00  0.00    -0.032 C 
HETATM   11  C   UNK N   1      27.189  20.577   5.237  0.00  0.00     0.007 C 
ENDBRANCH   9  10
ENDBRANCH   5   9
ENDBRANCH   1   2
BRANCH   1  12
HETATM   12  C   UNK N   1      20.265  17.688   2.464  0.00  0.00     0.265 C 
HETATM   13  O   UNK N   1      19.275  18.347   2.732  0.00  0.00    -0.265 OA
BRANCH  12  14
HETATM   14  C   UNK N   1      20.101  16.246   2.051  0.00  0.00     0.102 A 
HETATM   15  C   UNK N   1      21.317  15.500   2.607  0.00  0.00     0.031 A 
HETATM   16  C   UNK N   1      19.933  15.237   3.188  0.00  0.00    -0.027 A 
HETATM   17  C   UNK N   1      19.335  13.879   2.857  0.00  0.00     0.016 C 
HETATM   18  C   UNK N   1      19.772  15.754   4.610  0.00  0.00     0.016 C 
BRANCH  15  19
HETATM   19  C   UNK N   1      21.795  14.654   1.460  0.00  0.00    -0.018 C 
HETATM   20  C   UNK N   1      23.059  14.247   1.304  0.00  0.00    -0.091 C 
HETATM   21  C   UNK N   1      23.412  13.438   0.106  0.00  0.00     0.042 C 
HETATM   22  C   UNK N   1      24.130  14.606   2.283  0.00  0.00     0.042 C 
ENDBRANCH  15  19
ENDBRANCH  12  14
ENDBRANCH   1  12
TORSDOF 6
ENDMDL
