MODEL 1
REMARK VINA RESULT:      -6.3      0.000      0.000
REMARK  5 active torsions:
REMARK  status: ('A' for Active; 'I' for Inactive)
REMARK    1  A    between atoms: C_6  and  C_3 
REMARK    2  A    between atoms: S_21  and  C_6 
REMARK    3  A    between atoms: S_21  and  C_8 
REMARK       I    between atoms: N_16  and  C_11 
REMARK    4  A    between atoms: O_18  and  C_12 
REMARK    5  A    between atoms: O_20  and  C_12 
ROOT
HETATM    1  C   UNK N   1      32.744  15.320   8.619  0.00  0.00     0.023 A 
HETATM    2  C   UNK N   1      33.020  14.535   9.752  0.00  0.00     0.034 A 
HETATM    3  C   UNK N   1      34.765  16.649   9.004  0.00  0.00     0.053 A 
HETATM    4  C   UNK N   1      33.614  16.376   8.234  0.00  0.00     0.033 A 
HETATM    5  C   UNK N   1      34.159  14.846  10.481  0.00  0.00     0.076 A 
HETATM    6  C   UNK N   1      35.000  15.854  10.120  0.00  0.00     0.077 A 
HETATM    7  C   UNK N   1      35.704  14.995  11.927  0.00  0.00     0.686 A 
HETATM    8  C   UNK N   1      36.099  14.083  14.120  0.00  0.00     0.276 C 
HETATM    9  N   UNK N   1      34.584  14.289  11.622  0.00  0.00    -0.189 N 
ATOM     10  HN  UNK N   1      34.167  13.515  12.140  1.00  0.00     0.184 HD
HETATM   11  N   UNK N   1      35.989  15.962  11.019  0.00  0.00    -0.189 N 
HETATM   12  N   UNK N   1      36.453  14.835  13.126  0.00  0.00    -0.149 N 
ATOM     13  HN  UNK N   1      37.330  15.348  13.208  1.00  0.00     0.188 HD
HETATM   14  H   UNK N   1      36.744  16.594  11.018  0.00  0.00     0.184 HD
ENDROOT
BRANCH   8  15
HETATM   15  O   UNK N   1      34.952  13.375  14.081  0.00  0.00    -0.326 OA
HETATM   16  H   UNK N   1      34.133  13.813  13.960  0.00  0.00     0.221 HD
ENDBRANCH   8  15
BRANCH   8  17
HETATM   17  O   UNK N   1      36.865  14.018  15.237  0.00  0.00    -0.321 OA
HETATM   18  C   UNK N   1      37.315  15.138  15.899  0.00  0.00     0.213 C 
ENDBRANCH   8  17
BRANCH   4  19
HETATM   19  S   UNK N   1      33.189  17.452   6.848  0.00  0.00     0.050 S 
HETATM   20  O   UNK N   1      34.472  18.287   6.980  0.00  0.00    -0.253 OA
BRANCH  19  21
HETATM   21  C   UNK N   1      33.944  16.403   5.569  0.00  0.00     0.114 C 
BRANCH  21  22
HETATM   22  C   UNK N   1      33.010  16.307   4.380  0.00  0.00     0.008 C 
HETATM   23  C   UNK N   1      32.363  17.653   4.139  0.00  0.00     0.006 C 
ENDBRANCH  21  22
ENDBRANCH  19  21
ENDBRANCH   4  19
TORSDOF 5
ENDMDL
MODEL 2
REMARK VINA RESULT:      -6.2      3.716      7.937
REMARK  5 active torsions:
REMARK  status: ('A' for Active; 'I' for Inactive)
REMARK    1  A    between atoms: C_6  and  C_3 
REMARK    2  A    between atoms: S_21  and  C_6 
REMARK    3  A    between atoms: S_21  and  C_8 
REMARK       I    between atoms: N_16  and  C_11 
REMARK    4  A    between atoms: O_18  and  C_12 
REMARK    5  A    between atoms: O_20  and  C_12 
ROOT
HETATM    1  C   UNK N   1      36.865  13.144  15.138  0.00  0.00     0.023 A 
HETATM    2  C   UNK N   1      36.596  14.333  14.437  0.00  0.00     0.034 A 
HETATM    3  C   UNK N   1      36.851  11.868  13.047  0.00  0.00     0.053 A 
HETATM    4  C   UNK N   1      36.999  11.908  14.451  0.00  0.00     0.033 A 
HETATM    5  C   UNK N   1      36.451  14.242  13.060  0.00  0.00     0.076 A 
HETATM    6  C   UNK N   1      36.580  13.063  12.393  0.00  0.00     0.077 A 
HETATM    7  C   UNK N   1      36.070  14.581  11.000  0.00  0.00     0.686 A 
HETATM    8  C   UNK N   1      35.169  16.392   9.695  0.00  0.00     0.276 C 
HETATM    9  N   UNK N   1      36.129  15.217  12.200  0.00  0.00    -0.189 N 
ATOM     10  HN  UNK N   1      35.965  16.204  12.398  1.00  0.00     0.184 HD
HETATM   11  N   UNK N   1      36.349  13.255  11.086  0.00  0.00    -0.189 N 
HETATM   12  N   UNK N   1      35.652  15.193   9.787  0.00  0.00    -0.149 N 
ATOM     13  HN  UNK N   1      35.739  14.650   8.928  1.00  0.00     0.188 HD
HETATM   14  H   UNK N   1      36.376  12.591  10.360  0.00  0.00     0.184 HD
ENDROOT
BRANCH   8  15
HETATM   15  O   UNK N   1      35.025  17.168  10.788  0.00  0.00    -0.326 OA
HETATM   16  H   UNK N   1      34.294  17.749  10.859  0.00  0.00     0.221 HD
ENDBRANCH   8  15
BRANCH   8  17
HETATM   17  O   UNK N   1      34.767  16.879   8.495  0.00  0.00    -0.321 OA
HETATM   18  C   UNK N   1      34.280  18.156   8.333  0.00  0.00     0.213 C 
ENDBRANCH   8  17
BRANCH   4  19
HETATM   19  S   UNK N   1      37.227  10.371  15.370  0.00  0.00     0.050 S 
HETATM   20  O   UNK N   1      36.537  10.912  16.632  0.00  0.00    -0.253 OA
BRANCH  19  21
HETATM   21  C   UNK N   1      35.685   9.592  14.801  0.00  0.00     0.114 C 
BRANCH  21  22
HETATM   22  C   UNK N   1      34.514  10.176  15.566  0.00  0.00     0.008 C 
HETATM   23  C   UNK N   1      33.550  10.821  14.595  0.00  0.00     0.006 C 
ENDBRANCH  21  22
ENDBRANCH  19  21
ENDBRANCH   4  19
TORSDOF 5
ENDMDL
MODEL 3
REMARK VINA RESULT:      -6.1      3.675      8.593
REMARK  5 active torsions:
REMARK  status: ('A' for Active; 'I' for Inactive)
REMARK    1  A    between atoms: C_6  and  C_3 
REMARK    2  A    between atoms: S_21  and  C_6 
REMARK    3  A    between atoms: S_21  and  C_8 
REMARK       I    between atoms: N_16  and  C_11 
REMARK    4  A    between atoms: O_18  and  C_12 
REMARK    5  A    between atoms: O_20  and  C_12 
ROOT
HETATM    1  C   UNK N   1      36.369  13.372  15.081  0.00  0.00     0.023 A 
HETATM    2  C   UNK N   1      36.554  14.426  14.170  0.00  0.00     0.034 A 
HETATM    3  C   UNK N   1      34.871  12.233  13.512  0.00  0.00     0.053 A 
HETATM    4  C   UNK N   1      35.534  12.269  14.759  0.00  0.00     0.033 A 
HETATM    5  C   UNK N   1      35.877  14.350  12.961  0.00  0.00     0.076 A 
HETATM    6  C   UNK N   1      35.077  13.297  12.642  0.00  0.00     0.077 A 
HETATM    7  C   UNK N   1      35.002  14.711  11.062  0.00  0.00     0.686 A 
HETATM    8  C   UNK N   1      34.827  16.601   9.581  0.00  0.00     0.276 C 
HETATM    9  N   UNK N   1      35.846  15.257  11.977  0.00  0.00    -0.189 N 
ATOM     10  HN  UNK N   1      36.339  16.149  11.925  1.00  0.00     0.184 HD
HETATM   11  N   UNK N   1      34.517  13.501  11.441  0.00  0.00    -0.189 N 
HETATM   12  N   UNK N   1      34.567  15.367   9.878  0.00  0.00    -0.149 N 
ATOM     13  HN  UNK N   1      34.011  14.827   9.214  1.00  0.00     0.188 HD
HETATM   14  H   UNK N   1      33.900  12.912  10.949  0.00  0.00     0.184 HD
ENDROOT
BRANCH   8  15
HETATM   15  O   UNK N   1      35.557  17.375  10.411  0.00  0.00    -0.326 OA
HETATM   16  H   UNK N   1      35.290  18.256  10.588  0.00  0.00     0.221 HD
ENDBRANCH   8  15
BRANCH   8  17
HETATM   17  O   UNK N   1      34.341  17.150   8.441  0.00  0.00    -0.321 OA
HETATM   18  C   UNK N   1      34.484  18.484   8.135  0.00  0.00     0.213 C 
ENDBRANCH   8  17
BRANCH   4  19
HETATM   19  S   UNK N   1      35.209  10.980  15.981  0.00  0.00     0.050 S 
HETATM   20  O   UNK N   1      36.698  10.657  16.177  0.00  0.00    -0.253 OA
BRANCH  19  21
HETATM   21  C   UNK N   1      35.210  12.093  17.419  0.00  0.00     0.114 C 
BRANCH  21  22
HETATM   22  C   UNK N   1      35.363  11.278  18.687  0.00  0.00     0.008 C 
HETATM   23  C   UNK N   1      35.442  12.209  19.878  0.00  0.00     0.006 C 
ENDBRANCH  21  22
ENDBRANCH  19  21
ENDBRANCH   4  19
TORSDOF 5
ENDMDL
MODEL 4
REMARK VINA RESULT:      -6.0      4.213      5.298
REMARK  5 active torsions:
REMARK  status: ('A' for Active; 'I' for Inactive)
REMARK    1  A    between atoms: C_6  and  C_3 
REMARK    2  A    between atoms: S_21  and  C_6 
REMARK    3  A    between atoms: S_21  and  C_8 
REMARK       I    between atoms: N_16  and  C_11 
REMARK    4  A    between atoms: O_18  and  C_12 
REMARK    5  A    between atoms: O_20  and  C_12 
ROOT
HETATM    1  C   UNK N   1      29.479  18.185   7.756  0.00  0.00     0.023 A 
HETATM    2  C   UNK N   1      30.448  18.032   8.763  0.00  0.00     0.034 A 
HETATM    3  C   UNK N   1      30.746  16.711   6.265  0.00  0.00     0.053 A 
HETATM    4  C   UNK N   1      29.617  17.524   6.506  0.00  0.00     0.033 A 
HETATM    5  C   UNK N   1      31.543  17.229   8.477  0.00  0.00     0.076 A 
HETATM    6  C   UNK N   1      31.683  16.590   7.284  0.00  0.00     0.077 A 
HETATM    7  C   UNK N   1      33.395  16.192   8.473  0.00  0.00     0.686 A 
HETATM    8  C   UNK N   1      35.355  16.171   9.871  0.00  0.00     0.276 C 
HETATM    9  N   UNK N   1      32.614  16.992   9.246  0.00  0.00    -0.189 N 
ATOM     10  HN  UNK N   1      32.800  17.332  10.190  1.00  0.00     0.184 HD
HETATM   11  N   UNK N   1      32.846  15.922   7.262  0.00  0.00    -0.189 N 
HETATM   12  N   UNK N   1      34.703  15.764   8.827  0.00  0.00    -0.149 N 
ATOM     13  HN  UNK N   1      35.161  15.087   8.217  1.00  0.00     0.188 HD
HETATM   14  H   UNK N   1      33.214  15.367   6.537  0.00  0.00     0.184 HD
ENDROOT
BRANCH   8  15
HETATM   15  O   UNK N   1      34.813  17.065  10.722  0.00  0.00    -0.326 OA
HETATM   16  H   UNK N   1      34.224  16.779  11.392  0.00  0.00     0.221 HD
ENDBRANCH   8  15
BRANCH   8  17
HETATM   17  O   UNK N   1      36.614  15.728  10.109  0.00  0.00    -0.321 OA
HETATM   18  C   UNK N   1      36.935  14.391  10.169  0.00  0.00     0.213 C 
ENDBRANCH   8  17
BRANCH   4  19
HETATM   19  S   UNK N   1      28.429  17.821   5.179  0.00  0.00     0.050 S 
HETATM   20  O   UNK N   1      27.471  16.721   5.661  0.00  0.00    -0.253 OA
BRANCH  19  21
HETATM   21  C   UNK N   1      27.487  19.100   6.065  0.00  0.00     0.114 C 
BRANCH  21  22
HETATM   22  C   UNK N   1      27.650  20.429   5.356  0.00  0.00     0.008 C 
HETATM   23  C   UNK N   1      27.191  21.545   6.268  0.00  0.00     0.006 C 
ENDBRANCH  21  22
ENDBRANCH  19  21
ENDBRANCH   4  19
TORSDOF 5
ENDMDL
MODEL 5
REMARK VINA RESULT:      -5.8      2.753      3.581
REMARK  5 active torsions:
REMARK  status: ('A' for Active; 'I' for Inactive)
REMARK    1  A    between atoms: C_6  and  C_3 
REMARK    2  A    between atoms: S_21  and  C_6 
REMARK    3  A    between atoms: S_21  and  C_8 
REMARK       I    between atoms: N_16  and  C_11 
REMARK    4  A    between atoms: O_18  and  C_12 
REMARK    5  A    between atoms: O_20  and  C_12 
ROOT
HETATM    1  C   UNK N   1      32.903  17.785   7.389  0.00  0.00     0.023 A 
HETATM    2  C   UNK N   1      33.933  17.647   8.336  0.00  0.00     0.034 A 
HETATM    3  C   UNK N   1      31.712  15.873   8.353  0.00  0.00     0.053 A 
HETATM    4  C   UNK N   1      31.787  16.906   7.393  0.00  0.00     0.033 A 
HETATM    5  C   UNK N   1      33.819  16.613   9.255  0.00  0.00     0.076 A 
HETATM    6  C   UNK N   1      32.753  15.767   9.268  0.00  0.00     0.077 A 
HETATM    7  C   UNK N   1      34.122  15.159  10.771  0.00  0.00     0.686 A 
HETATM    8  C   UNK N   1      35.969  14.483  12.158  0.00  0.00     0.276 C 
HETATM    9  N   UNK N   1      34.698  16.248  10.196  0.00  0.00    -0.189 N 
ATOM     10  HN  UNK N   1      35.591  16.684  10.428  1.00  0.00     0.184 HD
HETATM   11  N   UNK N   1      32.921  14.842  10.224  0.00  0.00    -0.189 N 
HETATM   12  N   UNK N   1      34.743  14.351  11.763  0.00  0.00    -0.149 N 
ATOM     13  HN  UNK N   1      34.182  13.617  12.194  1.00  0.00     0.188 HD
HETATM   14  H   UNK N   1      32.314  14.107  10.472  0.00  0.00     0.184 HD
ENDROOT
BRANCH   8  15
HETATM   15  O   UNK N   1      36.770  15.432  11.632  0.00  0.00    -0.326 OA
HETATM   16  H   UNK N   1      36.436  16.025  10.988  0.00  0.00     0.221 HD
ENDBRANCH   8  15
BRANCH   8  17
HETATM   17  O   UNK N   1      36.483  13.643  13.090  0.00  0.00    -0.321 OA
HETATM   18  C   UNK N   1      37.075  12.443  12.767  0.00  0.00     0.213 C 
ENDBRANCH   8  17
BRANCH   4  19
HETATM   19  S   UNK N   1      30.531  17.017   6.101  0.00  0.00     0.050 S 
HETATM   20  O   UNK N   1      30.435  15.493   5.929  0.00  0.00    -0.253 OA
BRANCH  19  21
HETATM   21  C   UNK N   1      29.108  17.028   7.234  0.00  0.00     0.114 C 
BRANCH  21  22
HETATM   22  C   UNK N   1      28.938  18.417   7.816  0.00  0.00     0.008 C 
HETATM   23  C   UNK N   1      28.749  18.316   9.314  0.00  0.00     0.006 C 
ENDBRANCH  21  22
ENDBRANCH  19  21
ENDBRANCH   4  19
TORSDOF 5
ENDMDL
MODEL 6
REMARK VINA RESULT:      -5.8      2.990      7.927
REMARK  5 active torsions:
REMARK  status: ('A' for Active; 'I' for Inactive)
REMARK    1  A    between atoms: C_6  and  C_3 
REMARK    2  A    between atoms: S_21  and  C_6 
REMARK    3  A    between atoms: S_21  and  C_8 
REMARK       I    between atoms: N_16  and  C_11 
REMARK    4  A    between atoms: O_18  and  C_12 
REMARK    5  A    between atoms: O_20  and  C_12 
ROOT
HETATM    1  C   UNK N   1      35.569  12.410  12.547  0.00  0.00     0.023 A 
HETATM    2  C   UNK N   1      35.090  12.716  11.261  0.00  0.00     0.034 A 
HETATM    3  C   UNK N   1      35.882  14.790  13.035  0.00  0.00     0.053 A 
HETATM    4  C   UNK N   1      35.962  13.440  13.442  0.00  0.00     0.033 A 
HETATM    5  C   UNK N   1      35.035  14.057  10.904  0.00  0.00     0.076 A 
HETATM    6  C   UNK N   1      35.407  15.051  11.755  0.00  0.00     0.077 A 
HETATM    7  C   UNK N   1      34.856  15.916   9.899  0.00  0.00     0.686 A 
HETATM    8  C   UNK N   1      34.505  16.611   7.620  0.00  0.00     0.276 C 
HETATM    9  N   UNK N   1      34.683  14.580   9.723  0.00  0.00    -0.189 N 
ATOM     10  HN  UNK N   1      34.359  14.091   8.887  1.00  0.00     0.184 HD
HETATM   11  N   UNK N   1      35.297  16.238  11.141  0.00  0.00    -0.189 N 
HETATM   12  N   UNK N   1      34.709  16.887   8.870  0.00  0.00    -0.149 N 
ATOM     13  HN  UNK N   1      34.768  17.870   9.135  1.00  0.00     0.188 HD
HETATM   14  H   UNK N   1      35.488  17.131  11.507  0.00  0.00     0.184 HD
ENDROOT
BRANCH   8  15
HETATM   15  O   UNK N   1      34.416  15.334   7.197  0.00  0.00    -0.326 OA
HETATM   16  H   UNK N   1      35.142  14.752   7.304  0.00  0.00     0.221 HD
ENDBRANCH   8  15
BRANCH   8  17
HETATM   17  O   UNK N   1      34.409  17.607   6.705  0.00  0.00    -0.321 OA
HETATM   18  C   UNK N   1      33.581  17.535   5.608  0.00  0.00     0.213 C 
ENDBRANCH   8  17
BRANCH   4  19
HETATM   19  S   UNK N   1      36.687  13.031  15.045  0.00  0.00     0.050 S 
HETATM   20  O   UNK N   1      36.889  14.503  15.436  0.00  0.00    -0.253 OA
BRANCH  19  21
HETATM   21  C   UNK N   1      35.107  12.959  15.942  0.00  0.00     0.114 C 
BRANCH  21  22
HETATM   22  C   UNK N   1      35.287  13.545  17.328  0.00  0.00     0.008 C 
HETATM   23  C   UNK N   1      35.262  12.431  18.352  0.00  0.00     0.006 C 
ENDBRANCH  21  22
ENDBRANCH  19  21
ENDBRANCH   4  19
TORSDOF 5
ENDMDL
MODEL 7
REMARK VINA RESULT:      -5.8      4.061      5.316
REMARK  5 active torsions:
REMARK  status: ('A' for Active; 'I' for Inactive)
REMARK    1  A    between atoms: C_6  and  C_3 
REMARK    2  A    between atoms: S_21  and  C_6 
REMARK    3  A    between atoms: S_21  and  C_8 
REMARK       I    between atoms: N_16  and  C_11 
REMARK    4  A    between atoms: O_18  and  C_12 
REMARK    5  A    between atoms: O_20  and  C_12 
ROOT
HETATM    1  C   UNK N   1      29.974  16.242   5.537  0.00  0.00     0.023 A 
HETATM    2  C   UNK N   1      31.301  15.922   5.874  0.00  0.00     0.034 A 
HETATM    3  C   UNK N   1      29.809  17.742   7.467  0.00  0.00     0.053 A 
HETATM    4  C   UNK N   1      29.222  17.155   6.325  0.00  0.00     0.033 A 
HETATM    5  C   UNK N   1      31.832  16.519   7.009  0.00  0.00     0.076 A 
HETATM    6  C   UNK N   1      31.121  17.396   7.769  0.00  0.00     0.077 A 
HETATM    7  C   UNK N   1      33.019  17.101   8.669  0.00  0.00     0.686 A 
HETATM    8  C   UNK N   1      35.081  16.346   9.656  0.00  0.00     0.276 C 
HETATM    9  N   UNK N   1      33.036  16.317   7.559  0.00  0.00    -0.189 N 
ATOM     10  HN  UNK N   1      33.790  15.716   7.224  1.00  0.00     0.184 HD
HETATM   11  N   UNK N   1      31.856  17.782   8.822  0.00  0.00    -0.189 N 
HETATM   12  N   UNK N   1      34.054  17.136   9.644  0.00  0.00    -0.149 N 
ATOM     13  HN  UNK N   1      33.983  17.832  10.385  1.00  0.00     0.188 HD
HETATM   14  H   UNK N   1      31.609  18.413   9.537  0.00  0.00     0.184 HD
ENDROOT
BRANCH   8  15
HETATM   15  O   UNK N   1      35.242  15.401   8.706  0.00  0.00    -0.326 OA
HETATM   16  H   UNK N   1      36.102  15.155   8.429  0.00  0.00     0.221 HD
ENDBRANCH   8  15
BRANCH   8  17
HETATM   17  O   UNK N   1      36.002  16.434  10.647  0.00  0.00    -0.321 OA
HETATM   18  C   UNK N   1      35.982  15.622  11.758  0.00  0.00     0.213 C 
ENDBRANCH   8  17
BRANCH   4  19
HETATM   19  S   UNK N   1      27.484  17.467   5.952  0.00  0.00     0.050 S 
HETATM   20  O   UNK N   1      27.488  18.847   6.628  0.00  0.00    -0.253 OA
BRANCH  19  21
HETATM   21  C   UNK N   1      27.782  18.213   4.320  0.00  0.00     0.114 C 
BRANCH  21  22
HETATM   22  C   UNK N   1      27.740  19.722   4.440  0.00  0.00     0.008 C 
HETATM   23  C   UNK N   1      26.662  20.270   3.531  0.00  0.00     0.006 C 
ENDBRANCH  21  22
ENDBRANCH  19  21
ENDBRANCH   4  19
TORSDOF 5
ENDMDL
MODEL 8
REMARK VINA RESULT:      -5.7      1.731      2.601
REMARK  5 active torsions:
REMARK  status: ('A' for Active; 'I' for Inactive)
REMARK    1  A    between atoms: C_6  and  C_3 
REMARK    2  A    between atoms: S_21  and  C_6 
REMARK    3  A    between atoms: S_21  and  C_8 
REMARK       I    between atoms: N_16  and  C_11 
REMARK    4  A    between atoms: O_18  and  C_12 
REMARK    5  A    between atoms: O_20  and  C_12 
ROOT
HETATM    1  C   UNK N   1      33.700  17.873   7.471  0.00  0.00     0.023 A 
HETATM    2  C   UNK N   1      34.423  17.690   8.663  0.00  0.00     0.034 A 
HETATM    3  C   UNK N   1      32.486  15.778   7.845  0.00  0.00     0.053 A 
HETATM    4  C   UNK N   1      32.726  16.925   7.057  0.00  0.00     0.033 A 
HETATM    5  C   UNK N   1      34.157  16.544   9.400  0.00  0.00     0.076 A 
HETATM    6  C   UNK N   1      33.225  15.631   9.013  0.00  0.00     0.077 A 
HETATM    7  C   UNK N   1      34.159  14.938  10.787  0.00  0.00     0.686 A 
HETATM    8  C   UNK N   1      35.590  14.224  12.587  0.00  0.00     0.276 C 
HETATM    9  N   UNK N   1      34.762  16.127  10.520  0.00  0.00    -0.189 N 
ATOM     10  HN  UNK N   1      35.500  16.591  11.049  1.00  0.00     0.184 HD
HETATM   11  N   UNK N   1      33.205  14.608   9.880  0.00  0.00    -0.189 N 
HETATM   12  N   UNK N   1      34.549  14.058  11.834  0.00  0.00    -0.149 N 
ATOM     13  HN  UNK N   1      33.966  13.239  12.005  1.00  0.00     0.188 HD
HETATM   14  H   UNK N   1      32.632  13.808   9.862  0.00  0.00     0.184 HD
ENDROOT
BRANCH   8  15
HETATM   15  O   UNK N   1      36.406  15.285  12.419  0.00  0.00    -0.326 OA
HETATM   16  H   UNK N   1      36.147  15.993  11.864  0.00  0.00     0.221 HD
ENDBRANCH   8  15
BRANCH   8  17
HETATM   17  O   UNK N   1      35.898  13.312  13.542  0.00  0.00    -0.321 OA
HETATM   18  C   UNK N   1      34.966  12.457  14.084  0.00  0.00     0.213 C 
ENDBRANCH   8  17
BRANCH   4  19
HETATM   19  S   UNK N   1      31.890  17.109   5.467  0.00  0.00     0.050 S 
HETATM   20  O   UNK N   1      33.099  17.784   4.801  0.00  0.00    -0.253 OA
BRANCH  19  21
HETATM   21  C   UNK N   1      32.380  15.481   4.818  0.00  0.00     0.114 C 
BRANCH  21  22
HETATM   22  C   UNK N   1      33.817  15.541   4.342  0.00  0.00     0.008 C 
HETATM   23  C   UNK N   1      34.605  14.418   4.980  0.00  0.00     0.006 C 
ENDBRANCH  21  22
ENDBRANCH  19  21
ENDBRANCH   4  19
TORSDOF 5
ENDMDL
MODEL 9
REMARK VINA RESULT:      -5.7      1.839      2.558
REMARK  5 active torsions:
REMARK  status: ('A' for Active; 'I' for Inactive)
REMARK    1  A    between atoms: C_6  and  C_3 
REMARK    2  A    between atoms: S_21  and  C_6 
REMARK    3  A    between atoms: S_21  and  C_8 
REMARK       I    between atoms: N_16  and  C_11 
REMARK    4  A    between atoms: O_18  and  C_12 
REMARK    5  A    between atoms: O_20  and  C_12 
ROOT
HETATM    1  C   UNK N   1      34.545  16.799   8.926  0.00  0.00     0.023 A 
HETATM    2  C   UNK N   1      35.134  16.795  10.203  0.00  0.00     0.034 A 
HETATM    3  C   UNK N   1      33.731  14.513   9.256  0.00  0.00     0.053 A 
HETATM    4  C   UNK N   1      33.838  15.665   8.446  0.00  0.00     0.033 A 
HETATM    5  C   UNK N   1      35.008  15.638  10.959  0.00  0.00     0.076 A 
HETATM    6  C   UNK N   1      34.330  14.547  10.509  0.00  0.00     0.077 A 
HETATM    7  C   UNK N   1      35.151  14.100  12.414  0.00  0.00     0.686 A 
HETATM    8  C   UNK N   1      36.455  13.734  14.404  0.00  0.00     0.276 C 
HETATM    9  N   UNK N   1      35.536  15.379  12.162  0.00  0.00    -0.189 N 
ATOM     10  HN  UNK N   1      36.096  15.996  12.751  1.00  0.00     0.184 HD
HETATM   11  N   UNK N   1      34.403  13.563  11.417  0.00  0.00    -0.189 N 
HETATM   12  N   UNK N   1      35.570  13.343  13.542  0.00  0.00    -0.149 N 
ATOM     13  HN  UNK N   1      35.143  12.428  13.683  1.00  0.00     0.188 HD
HETATM   14  H   UNK N   1      34.005  12.663  11.372  0.00  0.00     0.184 HD
ENDROOT
BRANCH   8  15
HETATM   15  O   UNK N   1      37.061  14.933  14.282  0.00  0.00    -0.326 OA
HETATM   16  H   UNK N   1      37.993  14.983  14.206  0.00  0.00     0.221 HD
ENDBRANCH   8  15
BRANCH   8  17
HETATM   17  O   UNK N   1      36.813  12.927  15.433  0.00  0.00    -0.321 OA
HETATM   18  C   UNK N   1      35.930  12.074  16.054  0.00  0.00     0.213 C 
ENDBRANCH   8  17
BRANCH   4  19
HETATM   19  S   UNK N   1      33.189  15.637   6.761  0.00  0.00     0.050 S 
HETATM   20  O   UNK N   1      31.890  14.926   7.171  0.00  0.00    -0.253 OA
BRANCH  19  21
HETATM   21  C   UNK N   1      32.384  17.265   6.853  0.00  0.00     0.114 C 
BRANCH  21  22
HETATM   22  C   UNK N   1      31.036  17.123   7.529  0.00  0.00     0.008 C 
HETATM   23  C   UNK N   1      30.968  18.058   8.717  0.00  0.00     0.006 C 
ENDBRANCH  21  22
ENDBRANCH  19  21
ENDBRANCH   4  19
TORSDOF 5
ENDMDL
