MODEL 1
REMARK VINA RESULT:      -7.6      0.000      0.000
REMARK  6 active torsions:
REMARK  status: ('A' for Active; 'I' for Inactive)
REMARK    1  A    between atoms: C_13  and  C_6 
REMARK    2  A    between atoms: C_16  and  C_6 
REMARK    3  A    between atoms: C_24  and  C_13 
REMARK    4  A    between atoms: C_23  and  O_30 
REMARK    5  A    between atoms: O_30  and  C_24 
REMARK    6  A    between atoms: O_29  and  C_25 
ROOT
HETATM    1  C   UNK N   1      30.694  16.787   4.179  0.00  0.00     0.018 C 
HETATM    2  C   UNK N   1      31.627  17.628   8.679  0.00  0.00     0.010 C 
HETATM    3  C   UNK N   1      33.119  17.893   8.547  0.00  0.00     0.038 C 
HETATM    4  C   UNK N   1      34.488  14.670   7.164  0.00  0.00     0.017 C 
HETATM    5  C   UNK N   1      28.806  17.526   7.344  0.00  0.00     0.008 C 
HETATM    6  C   UNK N   1      35.461  14.158   8.244  0.00  0.00     0.086 C 
HETATM    7  C   UNK N   1      27.757  16.823   6.505  0.00  0.00     0.034 C 
HETATM    8  C   UNK N   1      31.552  14.659   6.117  0.00  0.00     0.006 C 
HETATM    9  C   UNK N   1      30.077  14.926   5.698  0.00  0.00     0.012 C 
HETATM   10  C   UNK N   1      33.322  15.388   7.836  0.00  0.00     0.022 C 
HETATM   11  C   UNK N   1      32.215  15.848   6.865  0.00  0.00    -0.002 C 
HETATM   12  C   UNK N   1      31.115  16.606   7.641  0.00  0.00    -0.005 C 
HETATM   13  C   UNK N   1      33.860  16.584   8.609  0.00  0.00    -0.038 C 
HETATM   14  C   UNK N   1      30.144  17.279   6.644  0.00  0.00     0.001 C 
HETATM   15  C   UNK N   1      35.749  15.198   9.306  0.00  0.00     0.182 C 
HETATM   16  C   UNK N   1      28.371  16.772   5.121  0.00  0.00     0.140 C 
HETATM   17  C   UNK N   1      34.971  16.459   9.357  0.00  0.00     0.114 C 
HETATM   18  C   UNK N   1      29.832  16.416   5.388  0.00  0.00    -0.013 C 
HETATM   19  O   UNK N   1      36.677  15.024  10.081  0.00  0.00    -0.290 OA
ENDROOT
BRANCH  16  20
HETATM   20  O   UNK N   1      27.710  15.867   4.310  0.00  0.00    -0.315 OA
BRANCH  20  21
HETATM   21  C   UNK N   1      26.427  16.064   3.899  0.00  0.00     0.259 C 
HETATM   22  O   UNK N   1      25.597  15.171   3.995  0.00  0.00    -0.265 OA
BRANCH  21  23
HETATM   23  C   UNK N   1      26.016  17.369   3.297  0.00  0.00     0.111 C 
BRANCH  23  24
HETATM   24  C   UNK N   1      25.394  18.346   4.292  0.00  0.00     0.014 C 
BRANCH  24  25
HETATM   25  C   UNK N   1      25.700  19.822   4.022  0.00  0.00    -0.014 C 
HETATM   26  C   UNK N   1      25.677  20.574   5.333  0.00  0.00     0.004 C 
HETATM   27  C   UNK N   1      27.075  20.428   5.909  0.00  0.00     0.000 C 
HETATM   28  C   UNK N   1      27.997  20.141   4.736  0.00  0.00     0.000 C 
HETATM   29  C   UNK N   1      27.113  20.034   3.509  0.00  0.00     0.004 C 
ENDBRANCH  24  25
ENDBRANCH  23  24
ENDBRANCH  21  23
ENDBRANCH  20  21
ENDBRANCH  16  20
BRANCH  17  30
HETATM   30  O   UNK N   1      35.405  17.487  10.116  0.00  0.00    -0.357 OA
HETATM   31  H   UNK N   1      36.281  17.821  10.123  0.00  0.00     0.218 HD
ENDBRANCH  17  30
TORSDOF 6
ENDMDL
MODEL 2
REMARK VINA RESULT:      -7.5     11.366     13.715
REMARK  6 active torsions:
REMARK  status: ('A' for Active; 'I' for Inactive)
REMARK    1  A    between atoms: C_13  and  C_6 
REMARK    2  A    between atoms: C_16  and  C_6 
REMARK    3  A    between atoms: C_24  and  C_13 
REMARK    4  A    between atoms: C_23  and  O_30 
REMARK    5  A    between atoms: O_30  and  C_24 
REMARK    6  A    between atoms: O_29  and  C_25 
ROOT
HETATM    1  C   UNK N   1      28.956  25.263  -6.188  0.00  0.00     0.018 C 
HETATM    2  C   UNK N   1      30.314  22.404  -2.753  0.00  0.00     0.010 C 
HETATM    3  C   UNK N   1      31.803  22.377  -3.067  0.00  0.00     0.038 C 
HETATM    4  C   UNK N   1      31.964  20.950  -6.547  0.00  0.00     0.017 C 
HETATM    5  C   UNK N   1      27.561  23.860  -2.992  0.00  0.00     0.008 C 
HETATM    6  C   UNK N   1      32.759  19.638  -6.400  0.00  0.00     0.086 C 
HETATM    7  C   UNK N   1      26.303  24.204  -3.764  0.00  0.00     0.034 C 
HETATM    8  C   UNK N   1      29.146  22.282  -6.495  0.00  0.00     0.006 C 
HETATM    9  C   UNK N   1      27.825  23.056  -6.212  0.00  0.00     0.012 C 
HETATM   10  C   UNK N   1      31.132  21.178  -5.288  0.00  0.00     0.022 C 
HETATM   11  C   UNK N   1      30.198  22.404  -5.359  0.00  0.00    -0.002 C 
HETATM   12  C   UNK N   1      29.447  22.572  -4.019  0.00  0.00    -0.005 C 
HETATM   13  C   UNK N   1      32.069  21.311  -4.097  0.00  0.00    -0.038 C 
HETATM   14  C   UNK N   1      28.710  23.930  -4.001  0.00  0.00     0.001 C 
HETATM   15  C   UNK N   1      33.423  19.510  -5.045  0.00  0.00     0.182 C 
HETATM   16  C   UNK N   1      26.803  25.042  -4.923  0.00  0.00     0.140 C 
HETATM   17  C   UNK N   1      33.109  20.469  -3.958  0.00  0.00     0.114 C 
HETATM   18  C   UNK N   1      28.075  24.320  -5.366  0.00  0.00    -0.013 C 
HETATM   19  O   UNK N   1      34.273  18.651  -4.871  0.00  0.00    -0.290 OA
ENDROOT
BRANCH  16  20
HETATM   20  O   UNK N   1      25.844  25.154  -5.914  0.00  0.00    -0.315 OA
BRANCH  20  21
HETATM   21  C   UNK N   1      25.471  26.357  -6.430  0.00  0.00     0.259 C 
HETATM   22  O   UNK N   1      25.779  26.668  -7.571  0.00  0.00    -0.265 OA
BRANCH  21  23
HETATM   23  C   UNK N   1      24.702  27.333  -5.599  0.00  0.00     0.111 C 
BRANCH  23  24
HETATM   24  C   UNK N   1      25.483  27.894  -4.413  0.00  0.00     0.014 C 
BRANCH  24  25
HETATM   25  C   UNK N   1      26.489  28.993  -4.767  0.00  0.00    -0.014 C 
HETATM   26  C   UNK N   1      26.494  30.026  -3.663  0.00  0.00     0.004 C 
HETATM   27  C   UNK N   1      27.479  29.509  -2.628  0.00  0.00     0.000 C 
HETATM   28  C   UNK N   1      28.421  28.569  -3.361  0.00  0.00     0.000 C 
HETATM   29  C   UNK N   1      27.918  28.482  -4.789  0.00  0.00     0.004 C 
ENDBRANCH  24  25
ENDBRANCH  23  24
ENDBRANCH  21  23
ENDBRANCH  20  21
ENDBRANCH  16  20
BRANCH  17  30
HETATM   30  O   UNK N   1      33.892  20.522  -2.861  0.00  0.00    -0.357 OA
HETATM   31  H   UNK N   1      33.597  20.396  -1.980  0.00  0.00     0.218 HD
ENDBRANCH  17  30
TORSDOF 6
ENDMDL
MODEL 3
REMARK VINA RESULT:      -7.3     11.157     13.332
REMARK  6 active torsions:
REMARK  status: ('A' for Active; 'I' for Inactive)
REMARK    1  A    between atoms: C_13  and  C_6 
REMARK    2  A    between atoms: C_16  and  C_6 
REMARK    3  A    between atoms: C_24  and  C_13 
REMARK    4  A    between atoms: C_23  and  O_30 
REMARK    5  A    between atoms: O_30  and  C_24 
REMARK    6  A    between atoms: O_29  and  C_25 
ROOT
HETATM    1  C   UNK N   1      30.938  24.368  -5.598  0.00  0.00     0.018 C 
HETATM    2  C   UNK N   1      33.109  21.104  -3.058  0.00  0.00     0.010 C 
HETATM    3  C   UNK N   1      34.401  21.028  -3.857  0.00  0.00     0.038 C 
HETATM    4  C   UNK N   1      33.276  19.956  -7.287  0.00  0.00     0.017 C 
HETATM    5  C   UNK N   1      30.568  22.724  -2.238  0.00  0.00     0.008 C 
HETATM    6  C   UNK N   1      33.960  18.595  -7.519  0.00  0.00     0.086 C 
HETATM    7  C   UNK N   1      29.160  23.213  -2.510  0.00  0.00     0.034 C 
HETATM    8  C   UNK N   1      30.760  21.427  -6.182  0.00  0.00     0.006 C 
HETATM    9  C   UNK N   1      29.679  22.240  -5.410  0.00  0.00     0.012 C 
HETATM   10  C   UNK N   1      32.932  20.100  -5.807  0.00  0.00     0.022 C 
HETATM   11  C   UNK N   1      32.136  21.376  -5.463  0.00  0.00    -0.002 C 
HETATM   12  C   UNK N   1      31.889  21.447  -3.939  0.00  0.00    -0.005 C 
HETATM   13  C   UNK N   1      34.219  20.060  -4.996  0.00  0.00    -0.038 C 
HETATM   14  C   UNK N   1      31.318  22.835  -3.568  0.00  0.00     0.001 C 
HETATM   15  C   UNK N   1      35.022  18.294  -6.483  0.00  0.00     0.182 C 
HETATM   16  C   UNK N   1      29.316  24.136  -3.700  0.00  0.00     0.140 C 
HETATM   17  C   UNK N   1      35.170  19.153  -5.283  0.00  0.00     0.114 C 
HETATM   18  C   UNK N   1      30.302  23.395  -4.602  0.00  0.00    -0.013 C 
HETATM   19  O   UNK N   1      35.806  17.377  -6.675  0.00  0.00    -0.290 OA
ENDROOT
BRANCH  16  20
HETATM   20  O   UNK N   1      28.095  24.400  -4.297  0.00  0.00    -0.315 OA
BRANCH  20  21
HETATM   21  C   UNK N   1      27.000  24.763  -3.575  0.00  0.00     0.259 C 
HETATM   22  O   UNK N   1      26.276  23.916  -3.073  0.00  0.00    -0.265 OA
BRANCH  21  23
HETATM   23  C   UNK N   1      26.647  26.206  -3.406  0.00  0.00     0.111 C 
BRANCH  23  24
HETATM   24  C   UNK N   1      27.441  27.151  -4.306  0.00  0.00     0.014 C 
BRANCH  24  25
HETATM   25  C   UNK N   1      26.590  28.013  -5.243  0.00  0.00    -0.014 C 
HETATM   26  C   UNK N   1      27.347  28.225  -6.534  0.00  0.00     0.004 C 
HETATM   27  C   UNK N   1      27.017  27.022  -7.401  0.00  0.00     0.000 C 
HETATM   28  C   UNK N   1      25.694  26.474  -6.891  0.00  0.00     0.000 C 
HETATM   29  C   UNK N   1      25.320  27.308  -5.682  0.00  0.00     0.004 C 
ENDBRANCH  24  25
ENDBRANCH  23  24
ENDBRANCH  21  23
ENDBRANCH  20  21
ENDBRANCH  16  20
BRANCH  17  30
HETATM   30  O   UNK N   1      36.274  19.051  -4.515  0.00  0.00    -0.357 OA
HETATM   31  H   UNK N   1      36.719  18.252  -4.311  0.00  0.00     0.218 HD
ENDBRANCH  17  30
TORSDOF 6
ENDMDL
MODEL 4
REMARK VINA RESULT:      -7.3      4.033     10.099
REMARK  6 active torsions:
REMARK  status: ('A' for Active; 'I' for Inactive)
REMARK    1  A    between atoms: C_13  and  C_6 
REMARK    2  A    between atoms: C_16  and  C_6 
REMARK    3  A    between atoms: C_24  and  C_13 
REMARK    4  A    between atoms: C_23  and  O_30 
REMARK    5  A    between atoms: O_30  and  C_24 
REMARK    6  A    between atoms: O_29  and  C_25 
ROOT
HETATM    1  C   UNK N   1      33.998  13.320   9.476  0.00  0.00     0.018 C 
HETATM    2  C   UNK N   1      33.268  17.596   7.743  0.00  0.00     0.010 C 
HETATM    3  C   UNK N   1      32.110  17.261   6.814  0.00  0.00     0.038 C 
HETATM    4  C   UNK N   1      33.575  14.751   4.420  0.00  0.00     0.017 C 
HETATM    5  C   UNK N   1      34.971  16.866  10.257  0.00  0.00     0.008 C 
HETATM    6  C   UNK N   1      33.479  15.422   3.036  0.00  0.00     0.086 C 
HETATM    7  C   UNK N   1      36.077  16.078  10.928  0.00  0.00     0.034 C 
HETATM    8  C   UNK N   1      35.313  14.339   6.975  0.00  0.00     0.006 C 
HETATM    9  C   UNK N   1      35.988  14.313   8.378  0.00  0.00     0.012 C 
HETATM   10  C   UNK N   1      33.831  15.819   5.480  0.00  0.00     0.022 C 
HETATM   11  C   UNK N   1      34.065  15.260   6.899  0.00  0.00    -0.002 C 
HETATM   12  C   UNK N   1      34.259  16.424   7.897  0.00  0.00    -0.005 C 
HETATM   13  C   UNK N   1      32.660  16.790   5.493  0.00  0.00    -0.038 C 
HETATM   14  C   UNK N   1      34.241  15.878   9.343  0.00  0.00     0.001 C 
HETATM   15  C   UNK N   1      32.616  16.666   3.052  0.00  0.00     0.182 C 
HETATM   16  C   UNK N   1      35.576  14.648  10.902  0.00  0.00     0.140 C 
HETATM   17  C   UNK N   1      32.141  17.237   4.336  0.00  0.00     0.114 C 
HETATM   18  C   UNK N   1      34.960  14.510   9.510  0.00  0.00    -0.013 C 
HETATM   19  O   UNK N   1      32.254  17.159   1.996  0.00  0.00    -0.290 OA
ENDROOT
BRANCH  16  20
HETATM   20  O   UNK N   1      36.597  13.751  11.158  0.00  0.00    -0.315 OA
BRANCH  20  21
HETATM   21  C   UNK N   1      36.562  12.896  12.216  0.00  0.00     0.259 C 
HETATM   22  O   UNK N   1      37.498  12.142  12.439  0.00  0.00    -0.265 OA
BRANCH  21  23
HETATM   23  C   UNK N   1      35.364  12.843  13.109  0.00  0.00     0.111 C 
BRANCH  23  24
HETATM   24  C   UNK N   1      35.675  13.084  14.584  0.00  0.00     0.014 C 
BRANCH  24  25
HETATM   25  C   UNK N   1      34.575  12.644  15.554  0.00  0.00    -0.014 C 
HETATM   26  C   UNK N   1      34.007  11.324  15.082  0.00  0.00     0.004 C 
HETATM   27  C   UNK N   1      34.909  10.258  15.678  0.00  0.00     0.000 C 
HETATM   28  C   UNK N   1      35.570  10.884  16.895  0.00  0.00     0.000 C 
HETATM   29  C   UNK N   1      35.115  12.329  16.937  0.00  0.00     0.004 C 
ENDBRANCH  24  25
ENDBRANCH  23  24
ENDBRANCH  21  23
ENDBRANCH  20  21
ENDBRANCH  16  20
BRANCH  17  30
HETATM   30  O   UNK N   1      31.162  18.165   4.337  0.00  0.00    -0.357 OA
HETATM   31  H   UNK N   1      30.255  17.993   4.500  0.00  0.00     0.218 HD
ENDBRANCH  17  30
TORSDOF 6
ENDMDL
MODEL 5
REMARK VINA RESULT:      -7.3      4.927      8.680
REMARK  6 active torsions:
REMARK  status: ('A' for Active; 'I' for Inactive)
REMARK    1  A    between atoms: C_13  and  C_6 
REMARK    2  A    between atoms: C_16  and  C_6 
REMARK    3  A    between atoms: C_24  and  C_13 
REMARK    4  A    between atoms: C_23  and  O_30 
REMARK    5  A    between atoms: O_30  and  C_24 
REMARK    6  A    between atoms: O_29  and  C_25 
ROOT
HETATM    1  C   UNK N   1      26.159  16.047   6.825  0.00  0.00     0.018 C 
HETATM    2  C   UNK N   1      21.660  14.809   6.595  0.00  0.00     0.010 C 
HETATM    3  C   UNK N   1      21.263  15.162   8.021  0.00  0.00     0.038 C 
HETATM    4  C   UNK N   1      23.463  12.960  10.139  0.00  0.00     0.017 C 
HETATM    5  C   UNK N   1      23.611  15.212   4.190  0.00  0.00     0.008 C 
HETATM    6  C   UNK N   1      22.486  12.054  10.914  0.00  0.00     0.086 C 
HETATM    7  C   UNK N   1      24.916  14.922   3.475  0.00  0.00     0.034 C 
HETATM    8  C   UNK N   1      25.158  13.309   7.546  0.00  0.00     0.006 C 
HETATM    9  C   UNK N   1      25.800  13.681   6.178  0.00  0.00     0.012 C 
HETATM   10  C   UNK N   1      22.888  13.254   8.756  0.00  0.00     0.022 C 
HETATM   11  C   UNK N   1      23.828  14.059   7.837  0.00  0.00    -0.002 C 
HETATM   12  C   UNK N   1      23.128  14.345   6.489  0.00  0.00    -0.005 C 
HETATM   13  C   UNK N   1      21.568  13.993   8.920  0.00  0.00    -0.038 C 
HETATM   14  C   UNK N   1      23.965  15.357   5.672  0.00  0.00     0.001 C 
HETATM   15  C   UNK N   1      21.049  12.515  10.797  0.00  0.00     0.182 C 
HETATM   16  C   UNK N   1      25.971  15.523   4.380  0.00  0.00     0.140 C 
HETATM   17  C   UNK N   1      20.677  13.588   9.843  0.00  0.00     0.114 C 
HETATM   18  C   UNK N   1      25.500  15.140   5.783  0.00  0.00    -0.013 C 
HETATM   19  O   UNK N   1      20.205  12.046  11.544  0.00  0.00    -0.290 OA
ENDROOT
BRANCH  16  20
HETATM   20  O   UNK N   1      27.234  15.054   4.063  0.00  0.00    -0.315 OA
BRANCH  20  21
HETATM   21  C   UNK N   1      28.286  15.892   3.852  0.00  0.00     0.259 C 
HETATM   22  O   UNK N   1      29.434  15.475   3.903  0.00  0.00    -0.265 OA
BRANCH  21  23
HETATM   23  C   UNK N   1      28.056  17.344   3.583  0.00  0.00     0.111 C 
BRANCH  23  24
HETATM   24  C   UNK N   1      28.329  18.252   4.780  0.00  0.00     0.014 C 
BRANCH  24  25
HETATM   25  C   UNK N   1      28.107  19.744   4.520  0.00  0.00    -0.014 C 
HETATM   26  C   UNK N   1      26.885  19.911   3.646  0.00  0.00     0.004 C 
HETATM   27  C   UNK N   1      25.704  19.940   4.601  0.00  0.00     0.000 C 
HETATM   28  C   UNK N   1      26.251  20.374   5.950  0.00  0.00     0.000 C 
HETATM   29  C   UNK N   1      27.753  20.505   5.784  0.00  0.00     0.004 C 
ENDBRANCH  24  25
ENDBRANCH  23  24
ENDBRANCH  21  23
ENDBRANCH  20  21
ENDBRANCH  16  20
BRANCH  17  30
HETATM   30  O   UNK N   1      19.469  14.180   9.935  0.00  0.00    -0.357 OA
HETATM   31  H   UNK N   1      19.284  15.070   9.704  0.00  0.00     0.218 HD
ENDBRANCH  17  30
TORSDOF 6
ENDMDL
MODEL 6
REMARK VINA RESULT:      -7.3      8.047     12.254
REMARK  6 active torsions:
REMARK  status: ('A' for Active; 'I' for Inactive)
REMARK    1  A    between atoms: C_13  and  C_6 
REMARK    2  A    between atoms: C_16  and  C_6 
REMARK    3  A    between atoms: C_24  and  C_13 
REMARK    4  A    between atoms: C_23  and  O_30 
REMARK    5  A    between atoms: O_30  and  C_24 
REMARK    6  A    between atoms: O_29  and  C_25 
ROOT
HETATM    1  C   UNK N   1      37.903  10.629  14.739  0.00  0.00     0.018 C 
HETATM    2  C   UNK N   1      35.171  12.452  18.061  0.00  0.00     0.010 C 
HETATM    3  C   UNK N   1      35.659  11.611  19.231  0.00  0.00     0.038 C 
HETATM    4  C   UNK N   1      34.853   8.081  18.201  0.00  0.00     0.017 C 
HETATM    5  C   UNK N   1      35.702  13.638  15.221  0.00  0.00     0.008 C 
HETATM    6  C   UNK N   1      33.852   7.579  19.260  0.00  0.00     0.086 C 
HETATM    7  C   UNK N   1      35.735  13.507  13.711  0.00  0.00     0.034 C 
HETATM    8  C   UNK N   1      35.207   9.518  15.457  0.00  0.00     0.006 C 
HETATM    9  C   UNK N   1      35.477  10.462  14.249  0.00  0.00     0.012 C 
HETATM   10  C   UNK N   1      34.630   9.572  17.965  0.00  0.00     0.022 C 
HETATM   11  C   UNK N   1      35.496  10.171  16.838  0.00  0.00    -0.002 C 
HETATM   12  C   UNK N   1      35.230  11.689  16.720  0.00  0.00    -0.005 C 
HETATM   13  C   UNK N   1      34.886  10.320  19.265  0.00  0.00    -0.038 C 
HETATM   14  C   UNK N   1      36.271  12.328  15.772  0.00  0.00     0.001 C 
HETATM   15  C   UNK N   1      33.754   8.507  20.452  0.00  0.00     0.182 C 
HETATM   16  C   UNK N   1      36.840  12.503  13.455  0.00  0.00     0.140 C 
HETATM   17  C   UNK N   1      34.404   9.839  20.426  0.00  0.00     0.114 C 
HETATM   18  C   UNK N   1      36.625  11.448  14.540  0.00  0.00    -0.013 C 
HETATM   19  O   UNK N   1      33.192   8.124  21.467  0.00  0.00    -0.290 OA
ENDROOT
BRANCH  16  20
HETATM   20  O   UNK N   1      36.779  12.005  12.166  0.00  0.00    -0.315 OA
BRANCH  20  21
HETATM   21  C   UNK N   1      37.282  12.688  11.101  0.00  0.00     0.259 C 
HETATM   22  O   UNK N   1      38.484  12.885  11.000  0.00  0.00    -0.265 OA
BRANCH  21  23
HETATM   23  C   UNK N   1      36.370  13.232  10.050  0.00  0.00     0.111 C 
BRANCH  23  24
HETATM   24  C   UNK N   1      36.447  14.748   9.880  0.00  0.00     0.014 C 
BRANCH  24  25
HETATM   25  C   UNK N   1      35.428  15.540  10.703  0.00  0.00    -0.014 C 
HETATM   26  C   UNK N   1      35.106  16.825   9.976  0.00  0.00     0.004 C 
HETATM   27  C   UNK N   1      33.992  16.474   9.004  0.00  0.00     0.000 C 
HETATM   28  C   UNK N   1      33.309  15.237   9.561  0.00  0.00     0.000 C 
HETATM   29  C   UNK N   1      34.088  14.834  10.798  0.00  0.00     0.004 C 
ENDBRANCH  24  25
ENDBRANCH  23  24
ENDBRANCH  21  23
ENDBRANCH  20  21
ENDBRANCH  16  20
BRANCH  17  30
HETATM   30  O   UNK N   1      34.549  10.540  21.570  0.00  0.00    -0.357 OA
HETATM   31  H   UNK N   1      33.858  10.745  22.169  0.00  0.00     0.218 HD
ENDBRANCH  17  30
TORSDOF 6
ENDMDL
MODEL 7
REMARK VINA RESULT:      -7.2      3.809     10.202
REMARK  6 active torsions:
REMARK  status: ('A' for Active; 'I' for Inactive)
REMARK    1  A    between atoms: C_13  and  C_6 
REMARK    2  A    between atoms: C_16  and  C_6 
REMARK    3  A    between atoms: C_24  and  C_13 
REMARK    4  A    between atoms: C_23  and  O_30 
REMARK    5  A    between atoms: O_30  and  C_24 
REMARK    6  A    between atoms: O_29  and  C_25 
ROOT
HETATM    1  C   UNK N   1      34.780  15.954  10.384  0.00  0.00     0.018 C 
HETATM    2  C   UNK N   1      34.277  15.763   5.743  0.00  0.00     0.010 C 
HETATM    3  C   UNK N   1      33.606  17.113   5.540  0.00  0.00     0.038 C 
HETATM    4  C   UNK N   1      30.430  16.851   7.545  0.00  0.00     0.017 C 
HETATM    5  C   UNK N   1      36.073  13.912   7.505  0.00  0.00     0.008 C 
HETATM    6  C   UNK N   1      29.297  17.002   6.512  0.00  0.00     0.086 C 
HETATM    7  C   UNK N   1      36.262  12.968   8.675  0.00  0.00     0.034 C 
HETATM    8  C   UNK N   1      32.328  14.872   9.029  0.00  0.00     0.006 C 
HETATM    9  C   UNK N   1      33.482  13.994   9.594  0.00  0.00     0.012 C 
HETATM   10  C   UNK N   1      31.607  16.125   6.900  0.00  0.00     0.022 C 
HETATM   11  C   UNK N   1      32.765  15.809   7.868  0.00  0.00    -0.002 C 
HETATM   12  C   UNK N   1      33.920  15.124   7.103  0.00  0.00    -0.005 C 
HETATM   13  C   UNK N   1      32.121  16.959   5.736  0.00  0.00    -0.038 C 
HETATM   14  C   UNK N   1      35.167  15.037   8.011  0.00  0.00     0.001 C 
HETATM   15  C   UNK N   1      29.800  17.468   5.162  0.00  0.00     0.182 C 
HETATM   16  C   UNK N   1      36.040  13.843   9.891  0.00  0.00     0.140 C 
HETATM   17  C   UNK N   1      31.254  17.530   4.880  0.00  0.00     0.114 C 
HETATM   18  C   UNK N   1      34.844  14.708   9.496  0.00  0.00    -0.013 C 
HETATM   19  O   UNK N   1      29.000  17.860   4.326  0.00  0.00    -0.290 OA
ENDROOT
BRANCH  16  20
HETATM   20  O   UNK N   1      35.833  13.081  11.028  0.00  0.00    -0.315 OA
BRANCH  20  21
HETATM   21  C   UNK N   1      36.622  13.197  12.131  0.00  0.00     0.259 C 
HETATM   22  O   UNK N   1      37.732  12.685  12.159  0.00  0.00    -0.265 OA
BRANCH  21  23
HETATM   23  C   UNK N   1      36.135  13.931  13.339  0.00  0.00     0.111 C 
BRANCH  23  24
HETATM   24  C   UNK N   1      36.255  13.140  14.639  0.00  0.00     0.014 C 
BRANCH  24  25
HETATM   25  C   UNK N   1      34.962  13.040  15.454  0.00  0.00    -0.014 C 
HETATM   26  C   UNK N   1      34.220  11.789  15.041  0.00  0.00     0.004 C 
HETATM   27  C   UNK N   1      34.799  10.674  15.895  0.00  0.00     0.000 C 
HETATM   28  C   UNK N   1      35.389  11.337  17.128  0.00  0.00     0.000 C 
HETATM   29  C   UNK N   1      35.226  12.832  16.934  0.00  0.00     0.004 C 
ENDBRANCH  24  25
ENDBRANCH  23  24
ENDBRANCH  21  23
ENDBRANCH  20  21
ENDBRANCH  16  20
BRANCH  17  30
HETATM   30  O   UNK N   1      31.701  18.197   3.795  0.00  0.00    -0.357 OA
HETATM   31  H   UNK N   1      31.394  18.070   2.919  0.00  0.00     0.218 HD
ENDBRANCH  17  30
TORSDOF 6
ENDMDL
MODEL 8
REMARK VINA RESULT:      -7.2      6.016     10.189
REMARK  6 active torsions:
REMARK  status: ('A' for Active; 'I' for Inactive)
REMARK    1  A    between atoms: C_13  and  C_6 
REMARK    2  A    between atoms: C_16  and  C_6 
REMARK    3  A    between atoms: C_24  and  C_13 
REMARK    4  A    between atoms: C_23  and  O_30 
REMARK    5  A    between atoms: O_30  and  C_24 
REMARK    6  A    between atoms: O_29  and  C_25 
ROOT
HETATM    1  C   UNK N   1      34.609  13.627  12.143  0.00  0.00     0.018 C 
HETATM    2  C   UNK N   1      36.616  10.226  14.639  0.00  0.00     0.010 C 
HETATM    3  C   UNK N   1      35.455   9.928  15.575  0.00  0.00     0.038 C 
HETATM    4  C   UNK N   1      34.902  13.182  17.387  0.00  0.00     0.017 C 
HETATM    5  C   UNK N   1      37.622  11.392  11.921  0.00  0.00     0.008 C 
HETATM    6  C   UNK N   1      35.171  12.859  18.870  0.00  0.00     0.086 C 
HETATM    7  C   UNK N   1      38.028  12.560  11.046  0.00  0.00     0.034 C 
HETATM    8  C   UNK N   1      36.136  14.119  14.682  0.00  0.00     0.006 C 
HETATM    9  C   UNK N   1      36.720  14.307  13.252  0.00  0.00     0.012 C 
HETATM   10  C   UNK N   1      35.825  12.337  16.513  0.00  0.00     0.022 C 
HETATM   11  C   UNK N   1      35.734  12.653  15.006  0.00  0.00    -0.002 C 
HETATM   12  C   UNK N   1      36.666  11.709  14.213  0.00  0.00    -0.005 C 
HETATM   13  C   UNK N   1      35.518  10.866  16.752  0.00  0.00    -0.038 C 
HETATM   14  C   UNK N   1      36.388  11.854  12.699  0.00  0.00     0.001 C 
HETATM   15  C   UNK N   1      35.276  11.371  19.131  0.00  0.00     0.182 C 
HETATM   16  C   UNK N   1      36.744  13.342  10.860  0.00  0.00     0.140 C 
HETATM   17  C   UNK N   1      35.331  10.410  18.003  0.00  0.00     0.114 C 
HETATM   18  C   UNK N   1      36.103  13.314  12.248  0.00  0.00    -0.013 C 
HETATM   19  O   UNK N   1      35.245  10.959  20.280  0.00  0.00    -0.290 OA
ENDROOT
BRANCH  16  20
HETATM   20  O   UNK N   1      36.994  14.615  10.380  0.00  0.00    -0.315 OA
BRANCH  20  21
HETATM   21  C   UNK N   1      36.029  15.367   9.784  0.00  0.00     0.259 C 
HETATM   22  O   UNK N   1      35.748  16.477  10.215  0.00  0.00    -0.265 OA
BRANCH  21  23
HETATM   23  C   UNK N   1      35.274  14.838   8.607  0.00  0.00     0.111 C 
BRANCH  23  24
HETATM   24  C   UNK N   1      33.777  15.135   8.641  0.00  0.00     0.014 C 
BRANCH  24  25
HETATM   25  C   UNK N   1      33.244  15.892   7.421  0.00  0.00    -0.014 C 
HETATM   26  C   UNK N   1      31.923  16.533   7.783  0.00  0.00     0.004 C 
HETATM   27  C   UNK N   1      32.279  17.870   8.411  0.00  0.00     0.000 C 
HETATM   28  C   UNK N   1      33.659  18.236   7.891  0.00  0.00     0.000 C 
HETATM   29  C   UNK N   1      34.123  17.069   7.042  0.00  0.00     0.004 C 
ENDBRANCH  24  25
ENDBRANCH  23  24
ENDBRANCH  21  23
ENDBRANCH  20  21
ENDBRANCH  16  20
BRANCH  17  30
HETATM   30  O   UNK N   1      35.147   9.094  18.232  0.00  0.00    -0.357 OA
HETATM   31  H   UNK N   1      34.454   8.574  17.874  0.00  0.00     0.218 HD
ENDBRANCH  17  30
TORSDOF 6
ENDMDL
MODEL 9
REMARK VINA RESULT:      -6.9      8.886     13.676
REMARK  6 active torsions:
REMARK  status: ('A' for Active; 'I' for Inactive)
REMARK    1  A    between atoms: C_13  and  C_6 
REMARK    2  A    between atoms: C_16  and  C_6 
REMARK    3  A    between atoms: C_24  and  C_13 
REMARK    4  A    between atoms: C_23  and  O_30 
REMARK    5  A    between atoms: O_30  and  C_24 
REMARK    6  A    between atoms: O_29  and  C_25 
ROOT
HETATM    1  C   UNK N   1      34.943   9.771  14.679  0.00  0.00     0.018 C 
HETATM    2  C   UNK N   1      35.552  14.142  13.150  0.00  0.00     0.010 C 
HETATM    3  C   UNK N   1      35.329  13.888  11.666  0.00  0.00     0.038 C 
HETATM    4  C   UNK N   1      38.041  11.440  10.755  0.00  0.00     0.017 C 
HETATM    5  C   UNK N   1      35.112  13.244  16.108  0.00  0.00     0.008 C 
HETATM    6  C   UNK N   1      38.902  12.175   9.709  0.00  0.00     0.086 C 
HETATM    7  C   UNK N   1      35.477  12.389  17.305  0.00  0.00     0.034 C 
HETATM    8  C   UNK N   1      37.597  10.856  13.785  0.00  0.00     0.006 C 
HETATM    9  C   UNK N   1      37.146  10.744  15.271  0.00  0.00     0.012 C 
HETATM   10  C   UNK N   1      37.507  12.450  11.768  0.00  0.00     0.022 C 
HETATM   11  C   UNK N   1      36.723  11.821  12.937  0.00  0.00    -0.002 C 
HETATM   12  C   UNK N   1      36.185  12.932  13.868  0.00  0.00    -0.005 C 
HETATM   13  C   UNK N   1      36.630  13.458  11.040  0.00  0.00    -0.038 C 
HETATM   14  C   UNK N   1      35.197  12.322  14.888  0.00  0.00     0.001 C 
HETATM   15  C   UNK N   1      38.248  13.445   9.208  0.00  0.00     0.182 C 
HETATM   16  C   UNK N   1      35.134  10.980  16.867  0.00  0.00     0.140 C 
HETATM   17  C   UNK N   1      37.027  13.974   9.863  0.00  0.00     0.114 C 
HETATM   18  C   UNK N   1      35.623  10.925  15.420  0.00  0.00    -0.013 C 
HETATM   19  O   UNK N   1      38.693  13.998   8.214  0.00  0.00    -0.290 OA
ENDROOT
BRANCH  16  20
HETATM   20  O   UNK N   1      35.719  10.039  17.696  0.00  0.00    -0.315 OA
BRANCH  20  21
HETATM   21  C   UNK N   1      35.014   9.001  18.225  0.00  0.00     0.259 C 
HETATM   22  O   UNK N   1      35.121   7.875  17.760  0.00  0.00    -0.265 OA
BRANCH  21  23
HETATM   23  C   UNK N   1      34.076   9.225  19.366  0.00  0.00     0.111 C 
BRANCH  23  24
HETATM   24  C   UNK N   1      32.916   8.234  19.424  0.00  0.00     0.014 C 
BRANCH  24  25
HETATM   25  C   UNK N   1      31.675   8.738  20.167  0.00  0.00    -0.014 C 
HETATM   26  C   UNK N   1      30.714   7.585  20.351  0.00  0.00     0.004 C 
HETATM   27  C   UNK N   1      31.153   6.892  21.630  0.00  0.00     0.000 C 
HETATM   28  C   UNK N   1      31.917   7.925  22.440  0.00  0.00     0.000 C 
HETATM   29  C   UNK N   1      31.990   9.176  21.586  0.00  0.00     0.004 C 
ENDBRANCH  24  25
ENDBRANCH  23  24
ENDBRANCH  21  23
ENDBRANCH  20  21
ENDBRANCH  16  20
BRANCH  17  30
HETATM   30  O   UNK N   1      36.299  14.933   9.255  0.00  0.00    -0.357 OA
HETATM   31  H   UNK N   1      36.397  15.202   8.362  0.00  0.00     0.218 HD
ENDBRANCH  17  30
TORSDOF 6
ENDMDL
