MODEL 1
REMARK VINA RESULT:      -6.2      0.000      0.000
REMARK  10 active torsions:
REMARK  status: ('A' for Active; 'I' for Inactive)
REMARK    1  A    between atoms: N_22  and  C_4 
REMARK    2  A    between atoms: N_22  and  C_5 
REMARK    3  A    between atoms: C_17  and  C_16 
REMARK    4  A    between atoms: N_22  and  C_16 
REMARK    5  A    between atoms: O_25  and  C_17 
REMARK    6  A    between atoms: C_21  and  C_18 
REMARK    7  A    between atoms: C_21  and  C_19 
REMARK    8  A    between atoms: C_21  and  C_20 
REMARK    9  A    between atoms: O_25  and  C_20 
REMARK   10  A    between atoms: O_24  and  C_21 
ROOT
HETATM    1  C   UNK N   1      33.836  17.220   7.332  0.00  0.00     0.201 C 
ENDROOT
BRANCH   1   2
HETATM    2  C   UNK N   1      32.325  17.387   7.403  0.00  0.00    -0.009 A 
HETATM    3  C   UNK N   1      31.545  17.060   6.278  0.00  0.00     0.011 A 
HETATM    4  C   UNK N   1      30.159  17.233   6.299  0.00  0.00     0.001 A 
HETATM    5  C   UNK N   1      29.534  17.736   7.441  0.00  0.00     0.000 A 
HETATM    6  C   UNK N   1      30.294  18.065   8.565  0.00  0.00     0.001 A 
HETATM    7  C   UNK N   1      31.680  17.895   8.547  0.00  0.00     0.011 A 
ENDBRANCH   1   2
BRANCH   1   8
HETATM    8  C   UNK N   1      34.172  15.746   7.156  0.00  0.00    -0.009 A 
HETATM    9  C   UNK N   1      33.367  14.753   7.741  0.00  0.00     0.011 A 
HETATM   10  C   UNK N   1      33.655  13.399   7.540  0.00  0.00     0.001 A 
HETATM   11  C   UNK N   1      34.739  13.025   6.740  0.00  0.00     0.000 A 
HETATM   12  C   UNK N   1      35.541  14.002   6.148  0.00  0.00     0.001 A 
HETATM   13  C   UNK N   1      35.261  15.354   6.357  0.00  0.00     0.011 A 
ENDBRANCH   1   8
BRANCH   1  14
HETATM   14  C   UNK N   1      34.531  17.803   8.559  0.00  0.00     0.303 C 
HETATM   15  O   UNK N   1      35.135  18.862   8.464  0.00  0.00    -0.261 OA
BRANCH  14  16
HETATM   16  O   UNK N   1      34.420  17.191   9.769  0.00  0.00    -0.317 OA
BRANCH  16  17
HETATM   17  C   UNK N   1      35.535  16.826  10.494  0.00  0.00     0.206 C 
BRANCH  17  18
HETATM   18  C   UNK N   1      36.096  15.455  10.093  0.00  0.00     0.263 C 
BRANCH  18  19
HETATM   19  N   UNK N   1      36.062  14.436  11.166  0.00  0.00    -0.070 N 
HETATM   20  C   UNK N   1      34.829  13.661  11.092  0.00  0.00     0.272 C 
BRANCH  19  21
HETATM   21  C   UNK N   1      37.129  13.441  10.981  0.00  0.00     0.232 C 
HETATM   22  C   UNK N   1      37.010  12.609   9.706  0.00  0.00     0.035 C 
ENDBRANCH  19  21
BRANCH  19  23
HETATM   23  C   UNK N   1      36.109  15.035  12.508  0.00  0.00     0.232 C 
HETATM   24  C   UNK N   1      35.877  14.038  13.640  0.00  0.00     0.035 C 
ENDBRANCH  19  23
ENDBRANCH  18  19
ENDBRANCH  17  18
ENDBRANCH  16  17
ENDBRANCH  14  16
ENDBRANCH   1  14
BRANCH   1  25
HETATM   25  O   UNK N   1      34.273  17.933   6.205  0.00  0.00    -0.371 OA
HETATM   26  H   UNK N   1      34.348  18.500   5.422  0.00  0.00     0.212 HD
ENDBRANCH   1  25
TORSDOF 10
ENDMDL
MODEL 2
REMARK VINA RESULT:      -6.1     13.654     16.943
REMARK  10 active torsions:
REMARK  status: ('A' for Active; 'I' for Inactive)
REMARK    1  A    between atoms: N_22  and  C_4 
REMARK    2  A    between atoms: N_22  and  C_5 
REMARK    3  A    between atoms: C_17  and  C_16 
REMARK    4  A    between atoms: N_22  and  C_16 
REMARK    5  A    between atoms: O_25  and  C_17 
REMARK    6  A    between atoms: C_21  and  C_18 
REMARK    7  A    between atoms: C_21  and  C_19 
REMARK    8  A    between atoms: C_21  and  C_20 
REMARK    9  A    between atoms: O_25  and  C_20 
REMARK   10  A    between atoms: O_24  and  C_21 
ROOT
HETATM    1  C   UNK N   1      27.269  24.519  -4.006  0.00  0.00     0.201 C 
ENDROOT
BRANCH   1   2
HETATM    2  C   UNK N   1      27.099  23.700  -5.279  0.00  0.00    -0.009 A 
HETATM    3  C   UNK N   1      28.241  23.215  -5.940  0.00  0.00     0.011 A 
HETATM    4  C   UNK N   1      28.122  22.489  -7.128  0.00  0.00     0.001 A 
HETATM    5  C   UNK N   1      26.861  22.240  -7.672  0.00  0.00     0.000 A 
HETATM    6  C   UNK N   1      25.717  22.716  -7.027  0.00  0.00     0.001 A 
HETATM    7  C   UNK N   1      25.834  23.444  -5.840  0.00  0.00     0.011 A 
ENDBRANCH   1   2
BRANCH   1   8
HETATM    8  C   UNK N   1      26.917  25.972  -4.292  0.00  0.00    -0.009 A 
HETATM    9  C   UNK N   1      26.305  26.768  -3.309  0.00  0.00     0.011 A 
HETATM   10  C   UNK N   1      26.024  28.114  -3.562  0.00  0.00     0.001 A 
HETATM   11  C   UNK N   1      26.366  28.682  -4.793  0.00  0.00     0.000 A 
HETATM   12  C   UNK N   1      26.981  27.903  -5.775  0.00  0.00     0.001 A 
HETATM   13  C   UNK N   1      27.252  26.555  -5.527  0.00  0.00     0.011 A 
ENDBRANCH   1   8
BRANCH   1  14
HETATM   14  C   UNK N   1      28.679  24.393  -3.435  0.00  0.00     0.303 C 
HETATM   15  O   UNK N   1      29.528  25.222  -3.735  0.00  0.00    -0.261 OA
BRANCH  14  16
HETATM   16  O   UNK N   1      28.975  23.412  -2.540  0.00  0.00    -0.317 OA
BRANCH  16  17
HETATM   17  C   UNK N   1      30.221  22.821  -2.509  0.00  0.00     0.206 C 
BRANCH  17  18
HETATM   18  C   UNK N   1      30.301  21.534  -3.340  0.00  0.00     0.263 C 
BRANCH  18  19
HETATM   19  N   UNK N   1      31.573  21.353  -4.075  0.00  0.00    -0.070 N 
HETATM   20  C   UNK N   1      31.760  22.428  -5.043  0.00  0.00     0.272 C 
BRANCH  19  21
HETATM   21  C   UNK N   1      32.726  21.476  -3.170  0.00  0.00     0.232 C 
HETATM   22  C   UNK N   1      33.864  20.499  -3.452  0.00  0.00     0.035 C 
ENDBRANCH  19  21
BRANCH  19  23
HETATM   23  C   UNK N   1      31.610  20.091  -4.828  0.00  0.00     0.232 C 
HETATM   24  C   UNK N   1      30.978  20.177  -6.214  0.00  0.00     0.035 C 
ENDBRANCH  19  23
ENDBRANCH  18  19
ENDBRANCH  17  18
ENDBRANCH  16  17
ENDBRANCH  14  16
ENDBRANCH   1  14
BRANCH   1  25
HETATM   25  O   UNK N   1      26.370  23.999  -3.064  0.00  0.00    -0.371 OA
HETATM   26  H   UNK N   1      25.589  23.677  -2.586  0.00  0.00     0.212 HD
ENDBRANCH   1  25
TORSDOF 10
ENDMDL
MODEL 3
REMARK VINA RESULT:      -5.9     13.756     17.059
REMARK  10 active torsions:
REMARK  status: ('A' for Active; 'I' for Inactive)
REMARK    1  A    between atoms: N_22  and  C_4 
REMARK    2  A    between atoms: N_22  and  C_5 
REMARK    3  A    between atoms: C_17  and  C_16 
REMARK    4  A    between atoms: N_22  and  C_16 
REMARK    5  A    between atoms: O_25  and  C_17 
REMARK    6  A    between atoms: C_21  and  C_18 
REMARK    7  A    between atoms: C_21  and  C_19 
REMARK    8  A    between atoms: C_21  and  C_20 
REMARK    9  A    between atoms: O_25  and  C_20 
REMARK   10  A    between atoms: O_24  and  C_21 
ROOT
HETATM    1  C   UNK N   1      27.403  24.525  -4.026  0.00  0.00     0.201 C 
ENDROOT
BRANCH   1   2
HETATM    2  C   UNK N   1      27.185  23.742  -5.313  0.00  0.00    -0.009 A 
HETATM    3  C   UNK N   1      25.871  23.479  -5.742  0.00  0.00     0.011 A 
HETATM    4  C   UNK N   1      25.636  22.735  -6.901  0.00  0.00     0.001 A 
HETATM    5  C   UNK N   1      26.709  22.241  -7.645  0.00  0.00     0.000 A 
HETATM    6  C   UNK N   1      28.019  22.494  -7.232  0.00  0.00     0.001 A 
HETATM    7  C   UNK N   1      28.257  23.236  -6.073  0.00  0.00     0.011 A 
ENDBRANCH   1   2
BRANCH   1   8
HETATM    8  C   UNK N   1      27.030  25.983  -4.255  0.00  0.00    -0.009 A 
HETATM    9  C   UNK N   1      27.327  26.616  -5.475  0.00  0.00     0.011 A 
HETATM   10  C   UNK N   1      26.943  27.943  -5.696  0.00  0.00     0.001 A 
HETATM   11  C   UNK N   1      26.245  28.643  -4.708  0.00  0.00     0.000 A 
HETATM   12  C   UNK N   1      25.938  28.023  -3.496  0.00  0.00     0.001 A 
HETATM   13  C   UNK N   1      26.331  26.702  -3.270  0.00  0.00     0.011 A 
ENDBRANCH   1   8
BRANCH   1  14
HETATM   14  C   UNK N   1      28.836  24.394  -3.517  0.00  0.00     0.303 C 
HETATM   15  O   UNK N   1      29.627  25.310  -3.699  0.00  0.00    -0.261 OA
BRANCH  14  16
HETATM   16  O   UNK N   1      29.216  23.302  -2.802  0.00  0.00    -0.317 OA
BRANCH  16  17
HETATM   17  C   UNK N   1      30.516  22.842  -2.829  0.00  0.00     0.206 C 
BRANCH  17  18
HETATM   18  C   UNK N   1      30.639  21.403  -3.347  0.00  0.00     0.263 C 
BRANCH  18  19
HETATM   19  N   UNK N   1      31.547  21.239  -4.504  0.00  0.00    -0.070 N 
HETATM   20  C   UNK N   1      30.833  20.655  -5.634  0.00  0.00     0.272 C 
BRANCH  19  21
HETATM   21  C   UNK N   1      32.007  22.545  -5.002  0.00  0.00     0.232 C 
HETATM   22  C   UNK N   1      31.990  22.690  -6.521  0.00  0.00     0.035 C 
ENDBRANCH  19  21
BRANCH  19  23
HETATM   23  C   UNK N   1      32.677  20.347  -4.207  0.00  0.00     0.232 C 
HETATM   24  C   UNK N   1      33.643  20.896  -3.161  0.00  0.00     0.035 C 
ENDBRANCH  19  23
ENDBRANCH  18  19
ENDBRANCH  17  18
ENDBRANCH  16  17
ENDBRANCH  14  16
ENDBRANCH   1  14
BRANCH   1  25
HETATM   25  O   UNK N   1      26.547  23.973  -3.062  0.00  0.00    -0.371 OA
HETATM   26  H   UNK N   1      25.798  23.597  -2.575  0.00  0.00     0.212 HD
ENDBRANCH   1  25
TORSDOF 10
ENDMDL
MODEL 4
REMARK VINA RESULT:      -5.8      1.624      4.019
REMARK  10 active torsions:
REMARK  status: ('A' for Active; 'I' for Inactive)
REMARK    1  A    between atoms: N_22  and  C_4 
REMARK    2  A    between atoms: N_22  and  C_5 
REMARK    3  A    between atoms: C_17  and  C_16 
REMARK    4  A    between atoms: N_22  and  C_16 
REMARK    5  A    between atoms: O_25  and  C_17 
REMARK    6  A    between atoms: C_21  and  C_18 
REMARK    7  A    between atoms: C_21  and  C_19 
REMARK    8  A    between atoms: C_21  and  C_20 
REMARK    9  A    between atoms: O_25  and  C_20 
REMARK   10  A    between atoms: O_24  and  C_21 
ROOT
HETATM    1  C   UNK N   1      32.715  16.604   7.321  0.00  0.00     0.201 C 
ENDROOT
BRANCH   1   2
HETATM    2  C   UNK N   1      32.846  16.509   5.807  0.00  0.00    -0.009 A 
HETATM    3  C   UNK N   1      33.482  15.388   5.243  0.00  0.00     0.011 A 
HETATM    4  C   UNK N   1      33.647  15.285   3.859  0.00  0.00     0.001 A 
HETATM    5  C   UNK N   1      33.182  16.300   3.022  0.00  0.00     0.000 A 
HETATM    6  C   UNK N   1      32.548  17.419   3.567  0.00  0.00     0.001 A 
HETATM    7  C   UNK N   1      32.383  17.526   4.950  0.00  0.00     0.011 A 
ENDBRANCH   1   2
BRANCH   1   8
HETATM    8  C   UNK N   1      31.360  17.200   7.673  0.00  0.00    -0.009 A 
HETATM    9  C   UNK N   1      30.185  16.708   7.078  0.00  0.00     0.011 A 
HETATM   10  C   UNK N   1      28.937  17.230   7.437  0.00  0.00     0.001 A 
HETATM   11  C   UNK N   1      28.851  18.234   8.406  0.00  0.00     0.000 A 
HETATM   12  C   UNK N   1      30.010  18.725   9.009  0.00  0.00     0.001 A 
HETATM   13  C   UNK N   1      31.257  18.213   8.643  0.00  0.00     0.011 A 
ENDBRANCH   1   8
BRANCH   1  14
HETATM   14  C   UNK N   1      33.852  17.414   7.939  0.00  0.00     0.303 C 
HETATM   15  O   UNK N   1      34.543  18.127   7.224  0.00  0.00    -0.261 OA
BRANCH  14  16
HETATM   16  O   UNK N   1      34.053  17.404   9.285  0.00  0.00    -0.317 OA
BRANCH  16  17
HETATM   17  C   UNK N   1      35.073  16.670   9.853  0.00  0.00     0.206 C 
BRANCH  17  18
HETATM   18  C   UNK N   1      34.578  15.625  10.862  0.00  0.00     0.263 C 
BRANCH  18  19
HETATM   19  N   UNK N   1      35.582  14.604  11.236  0.00  0.00    -0.070 N 
HETATM   20  C   UNK N   1      36.767  14.724  10.394  0.00  0.00     0.272 C 
BRANCH  19  21
HETATM   21  C   UNK N   1      36.082  14.832  12.600  0.00  0.00     0.232 C 
HETATM   22  C   UNK N   1      35.792  13.700  13.582  0.00  0.00     0.035 C 
ENDBRANCH  19  21
BRANCH  19  23
HETATM   23  C   UNK N   1      35.077  13.234  11.068  0.00  0.00     0.232 C 
HETATM   24  C   UNK N   1      34.627  12.909   9.646  0.00  0.00     0.035 C 
ENDBRANCH  19  23
ENDBRANCH  18  19
ENDBRANCH  17  18
ENDBRANCH  16  17
ENDBRANCH  14  16
ENDBRANCH   1  14
BRANCH   1  25
HETATM   25  O   UNK N   1      32.792  15.295   7.821  0.00  0.00    -0.371 OA
HETATM   26  H   UNK N   1      32.661  14.463   8.300  0.00  0.00     0.212 HD
ENDBRANCH   1  25
TORSDOF 10
ENDMDL
MODEL 5
REMARK VINA RESULT:      -5.7      3.706      8.423
REMARK  10 active torsions:
REMARK  status: ('A' for Active; 'I' for Inactive)
REMARK    1  A    between atoms: N_22  and  C_4 
REMARK    2  A    between atoms: N_22  and  C_5 
REMARK    3  A    between atoms: C_17  and  C_16 
REMARK    4  A    between atoms: N_22  and  C_16 
REMARK    5  A    between atoms: O_25  and  C_17 
REMARK    6  A    between atoms: C_21  and  C_18 
REMARK    7  A    between atoms: C_21  and  C_19 
REMARK    8  A    between atoms: C_21  and  C_20 
REMARK    9  A    between atoms: O_25  and  C_20 
REMARK   10  A    between atoms: O_24  and  C_21 
ROOT
HETATM    1  C   UNK N   1      35.219  12.321  14.738  0.00  0.00     0.201 C 
ENDROOT
BRANCH   1   2
HETATM    2  C   UNK N   1      35.760  13.360  15.712  0.00  0.00    -0.009 A 
HETATM    3  C   UNK N   1      35.198  13.452  16.998  0.00  0.00     0.011 A 
HETATM    4  C   UNK N   1      35.648  14.415  17.904  0.00  0.00     0.001 A 
HETATM    5  C   UNK N   1      36.662  15.301  17.536  0.00  0.00     0.000 A 
HETATM    6  C   UNK N   1      37.230  15.223  16.263  0.00  0.00     0.001 A 
HETATM    7  C   UNK N   1      36.780  14.261  15.354  0.00  0.00     0.011 A 
ENDBRANCH   1   2
BRANCH   1   8
HETATM    8  C   UNK N   1      35.851  10.970  15.043  0.00  0.00    -0.009 A 
HETATM    9  C   UNK N   1      35.060   9.811  15.123  0.00  0.00     0.011 A 
HETATM   10  C   UNK N   1      35.652   8.566  15.360  0.00  0.00     0.001 A 
HETATM   11  C   UNK N   1      37.039   8.465  15.502  0.00  0.00     0.000 A 
HETATM   12  C   UNK N   1      37.835   9.608  15.417  0.00  0.00     0.001 A 
HETATM   13  C   UNK N   1      37.244  10.854  15.191  0.00  0.00     0.011 A 
ENDBRANCH   1   8
BRANCH   1  14
HETATM   14  C   UNK N   1      35.454  12.727  13.286  0.00  0.00     0.303 C 
HETATM   15  O   UNK N   1      36.260  12.104  12.608  0.00  0.00    -0.261 OA
BRANCH  14  16
HETATM   16  O   UNK N   1      34.722  13.725  12.722  0.00  0.00    -0.317 OA
BRANCH  16  17
HETATM   17  C   UNK N   1      35.317  14.716  11.970  0.00  0.00     0.206 C 
BRANCH  17  18
HETATM   18  C   UNK N   1      34.455  15.183  10.790  0.00  0.00     0.263 C 
BRANCH  18  19
HETATM   19  N   UNK N   1      34.948  14.759   9.461  0.00  0.00    -0.070 N 
HETATM   20  C   UNK N   1      34.150  13.651   8.950  0.00  0.00     0.272 C 
BRANCH  19  21
HETATM   21  C   UNK N   1      34.765  15.827   8.466  0.00  0.00     0.232 C 
HETATM   22  C   UNK N   1      34.444  17.198   9.055  0.00  0.00     0.035 C 
ENDBRANCH  19  21
BRANCH  19  23
HETATM   23  C   UNK N   1      36.343  14.295   9.503  0.00  0.00     0.232 C 
HETATM   24  C   UNK N   1      36.873  13.801   8.160  0.00  0.00     0.035 C 
ENDBRANCH  19  23
ENDBRANCH  18  19
ENDBRANCH  17  18
ENDBRANCH  16  17
ENDBRANCH  14  16
ENDBRANCH   1  14
BRANCH   1  25
HETATM   25  O   UNK N   1      33.834  12.245  14.950  0.00  0.00    -0.371 OA
HETATM   26  H   UNK N   1      32.884  12.060  14.899  0.00  0.00     0.212 HD
ENDBRANCH   1  25
TORSDOF 10
ENDMDL
MODEL 6
REMARK VINA RESULT:      -5.7      1.571      3.747
REMARK  10 active torsions:
REMARK  status: ('A' for Active; 'I' for Inactive)
REMARK    1  A    between atoms: N_22  and  C_4 
REMARK    2  A    between atoms: N_22  and  C_5 
REMARK    3  A    between atoms: C_17  and  C_16 
REMARK    4  A    between atoms: N_22  and  C_16 
REMARK    5  A    between atoms: O_25  and  C_17 
REMARK    6  A    between atoms: C_21  and  C_18 
REMARK    7  A    between atoms: C_21  and  C_19 
REMARK    8  A    between atoms: C_21  and  C_20 
REMARK    9  A    between atoms: O_25  and  C_20 
REMARK   10  A    between atoms: O_24  and  C_21 
ROOT
HETATM    1  C   UNK N   1      32.820  16.582   7.377  0.00  0.00     0.201 C 
ENDROOT
BRANCH   1   2
HETATM    2  C   UNK N   1      32.959  16.508   5.863  0.00  0.00    -0.009 A 
HETATM    3  C   UNK N   1      32.392  17.525   5.072  0.00  0.00     0.011 A 
HETATM    4  C   UNK N   1      32.472  17.471   3.679  0.00  0.00     0.001 A 
HETATM    5  C   UNK N   1      33.116  16.401   3.056  0.00  0.00     0.000 A 
HETATM    6  C   UNK N   1      33.684  15.384   3.827  0.00  0.00     0.001 A 
HETATM    7  C   UNK N   1      33.604  15.434   5.221  0.00  0.00     0.011 A 
ENDBRANCH   1   2
BRANCH   1   8
HETATM    8  C   UNK N   1      31.444  17.125   7.731  0.00  0.00    -0.009 A 
HETATM    9  C   UNK N   1      31.304  18.184   8.644  0.00  0.00     0.011 A 
HETATM   10  C   UNK N   1      30.039  18.708   8.932  0.00  0.00     0.001 A 
HETATM   11  C   UNK N   1      28.905  18.190   8.299  0.00  0.00     0.000 A 
HETATM   12  C   UNK N   1      29.033  17.143   7.384  0.00  0.00     0.001 A 
HETATM   13  C   UNK N   1      30.294  16.612   7.104  0.00  0.00     0.011 A 
ENDBRANCH   1   8
BRANCH   1  14
HETATM   14  C   UNK N   1      33.926  17.423   8.009  0.00  0.00     0.303 C 
HETATM   15  O   UNK N   1      34.538  18.230   7.321  0.00  0.00    -0.261 OA
BRANCH  14  16
HETATM   16  O   UNK N   1      34.184  17.335   9.341  0.00  0.00    -0.317 OA
BRANCH  16  17
HETATM   17  C   UNK N   1      35.383  16.839   9.810  0.00  0.00     0.206 C 
BRANCH  17  18
HETATM   18  C   UNK N   1      35.301  16.316  11.250  0.00  0.00     0.263 C 
BRANCH  18  19
HETATM   19  N   UNK N   1      35.685  14.897  11.413  0.00  0.00    -0.070 N 
HETATM   20  C   UNK N   1      34.588  14.023  11.014  0.00  0.00     0.272 C 
BRANCH  19  21
HETATM   21  C   UNK N   1      36.783  14.540  10.501  0.00  0.00     0.232 C 
HETATM   22  C   UNK N   1      36.546  13.273   9.683  0.00  0.00     0.035 C 
ENDBRANCH  19  21
BRANCH  19  23
HETATM   23  C   UNK N   1      36.012  14.561  12.807  0.00  0.00     0.232 C 
HETATM   24  C   UNK N   1      35.408  13.243  13.285  0.00  0.00     0.035 C 
ENDBRANCH  19  23
ENDBRANCH  18  19
ENDBRANCH  17  18
ENDBRANCH  16  17
ENDBRANCH  14  16
ENDBRANCH   1  14
BRANCH   1  25
HETATM   25  O   UNK N   1      32.941  15.270   7.862  0.00  0.00    -0.371 OA
HETATM   26  H   UNK N   1      32.788  14.382   8.219  0.00  0.00     0.212 HD
ENDBRANCH   1  25
TORSDOF 10
ENDMDL
MODEL 7
REMARK VINA RESULT:      -5.7      2.696      6.343
REMARK  10 active torsions:
REMARK  status: ('A' for Active; 'I' for Inactive)
REMARK    1  A    between atoms: N_22  and  C_4 
REMARK    2  A    between atoms: N_22  and  C_5 
REMARK    3  A    between atoms: C_17  and  C_16 
REMARK    4  A    between atoms: N_22  and  C_16 
REMARK    5  A    between atoms: O_25  and  C_17 
REMARK    6  A    between atoms: C_21  and  C_18 
REMARK    7  A    between atoms: C_21  and  C_19 
REMARK    8  A    between atoms: C_21  and  C_20 
REMARK    9  A    between atoms: O_25  and  C_20 
REMARK   10  A    between atoms: O_24  and  C_21 
ROOT
HETATM    1  C   UNK N   1      33.430  17.553   7.984  0.00  0.00     0.201 C 
ENDROOT
BRANCH   1   2
HETATM    2  C   UNK N   1      33.865  16.636   9.119  0.00  0.00    -0.009 A 
HETATM    3  C   UNK N   1      34.981  16.992   9.898  0.00  0.00     0.011 A 
HETATM    4  C   UNK N   1      35.428  16.157  10.925  0.00  0.00     0.001 A 
HETATM    5  C   UNK N   1      34.768  14.956  11.186  0.00  0.00     0.000 A 
HETATM    6  C   UNK N   1      33.658  14.588  10.421  0.00  0.00     0.001 A 
HETATM    7  C   UNK N   1      33.211  15.420   9.392  0.00  0.00     0.011 A 
ENDBRANCH   1   2
BRANCH   1   8
HETATM    8  C   UNK N   1      31.909  17.597   7.929  0.00  0.00    -0.009 A 
HETATM    9  C   UNK N   1      31.203  16.820   6.995  0.00  0.00     0.011 A 
HETATM   10  C   UNK N   1      29.804  16.831   6.978  0.00  0.00     0.001 A 
HETATM   11  C   UNK N   1      29.099  17.606   7.904  0.00  0.00     0.000 A 
HETATM   12  C   UNK N   1      29.789  18.377   8.841  0.00  0.00     0.001 A 
HETATM   13  C   UNK N   1      31.186  18.374   8.851  0.00  0.00     0.011 A 
ENDBRANCH   1   8
BRANCH   1  14
HETATM   14  C   UNK N   1      34.019  17.120   6.645  0.00  0.00     0.303 C 
HETATM   15  O   UNK N   1      34.070  17.920   5.720  0.00  0.00    -0.261 OA
BRANCH  14  16
HETATM   16  O   UNK N   1      34.553  15.877   6.496  0.00  0.00    -0.317 OA
BRANCH  16  17
HETATM   17  C   UNK N   1      34.559  15.239   5.273  0.00  0.00     0.206 C 
BRANCH  17  18
HETATM   18  C   UNK N   1      33.240  14.519   4.959  0.00  0.00     0.263 C 
BRANCH  18  19
HETATM   19  N   UNK N   1      32.717  14.757   3.596  0.00  0.00    -0.070 N 
HETATM   20  C   UNK N   1      33.507  15.779   2.919  0.00  0.00     0.272 C 
BRANCH  19  21
HETATM   21  C   UNK N   1      32.876  13.561   2.755  0.00  0.00     0.232 C 
HETATM   22  C   UNK N   1      31.566  12.886   2.353  0.00  0.00     0.035 C 
ENDBRANCH  19  21
BRANCH  19  23
HETATM   23  C   UNK N   1      31.325  15.230   3.605  0.00  0.00     0.232 C 
HETATM   24  C   UNK N   1      31.173  16.715   3.284  0.00  0.00     0.035 C 
ENDBRANCH  19  23
ENDBRANCH  18  19
ENDBRANCH  17  18
ENDBRANCH  16  17
ENDBRANCH  14  16
ENDBRANCH   1  14
BRANCH   1  25
HETATM   25  O   UNK N   1      33.921  18.833   8.282  0.00  0.00    -0.371 OA
HETATM   26  H   UNK N   1      34.423  19.594   8.611  0.00  0.00     0.212 HD
ENDBRANCH   1  25
TORSDOF 10
ENDMDL
MODEL 8
REMARK VINA RESULT:      -5.6      1.649      2.518
REMARK  10 active torsions:
REMARK  status: ('A' for Active; 'I' for Inactive)
REMARK    1  A    between atoms: N_22  and  C_4 
REMARK    2  A    between atoms: N_22  and  C_5 
REMARK    3  A    between atoms: C_17  and  C_16 
REMARK    4  A    between atoms: N_22  and  C_16 
REMARK    5  A    between atoms: O_25  and  C_17 
REMARK    6  A    between atoms: C_21  and  C_18 
REMARK    7  A    between atoms: C_21  and  C_19 
REMARK    8  A    between atoms: C_21  and  C_20 
REMARK    9  A    between atoms: O_25  and  C_20 
REMARK   10  A    between atoms: O_24  and  C_21 
ROOT
HETATM    1  C   UNK N   1      32.506  17.147   7.666  0.00  0.00     0.201 C 
ENDROOT
BRANCH   1   2
HETATM    2  C   UNK N   1      31.041  17.472   7.930  0.00  0.00    -0.009 A 
HETATM    3  C   UNK N   1      30.711  18.345   8.982  0.00  0.00     0.011 A 
HETATM    4  C   UNK N   1      29.377  18.638   9.272  0.00  0.00     0.001 A 
HETATM    5  C   UNK N   1      28.354  18.061   8.517  0.00  0.00     0.000 A 
HETATM    6  C   UNK N   1      28.666  17.192   7.469  0.00  0.00     0.001 A 
HETATM    7  C   UNK N   1      30.000  16.896   7.178  0.00  0.00     0.011 A 
ENDBRANCH   1   2
BRANCH   1   8
HETATM    8  C   UNK N   1      32.666  16.680   6.227  0.00  0.00    -0.009 A 
HETATM    9  C   UNK N   1      32.652  15.310   5.912  0.00  0.00     0.011 A 
HETATM   10  C   UNK N   1      32.756  14.889   4.582  0.00  0.00     0.001 A 
HETATM   11  C   UNK N   1      32.857  15.831   3.554  0.00  0.00     0.000 A 
HETATM   12  C   UNK N   1      32.865  17.195   3.854  0.00  0.00     0.001 A 
HETATM   13  C   UNK N   1      32.772  17.616   5.183  0.00  0.00     0.011 A 
ENDBRANCH   1   8
BRANCH   1  14
HETATM   14  C   UNK N   1      33.043  16.109   8.648  0.00  0.00     0.303 C 
HETATM   15  O   UNK N   1      32.267  15.337   9.195  0.00  0.00    -0.261 OA
BRANCH  14  16
HETATM   16  O   UNK N   1      34.381  15.989   8.860  0.00  0.00    -0.317 OA
BRANCH  16  17
HETATM   17  C   UNK N   1      34.985  14.753   8.957  0.00  0.00     0.206 C 
BRANCH  17  18
HETATM   18  C   UNK N   1      36.244  14.761   9.835  0.00  0.00     0.263 C 
BRANCH  18  19
HETATM   19  N   UNK N   1      36.111  14.023  11.111  0.00  0.00    -0.070 N 
HETATM   20  C   UNK N   1      35.037  13.041  11.022  0.00  0.00     0.272 C 
BRANCH  19  21
HETATM   21  C   UNK N   1      37.314  13.221  11.383  0.00  0.00     0.232 C 
HETATM   22  C   UNK N   1      38.340  13.208  10.253  0.00  0.00     0.035 C 
ENDBRANCH  19  21
BRANCH  19  23
HETATM   23  C   UNK N   1      35.787  14.909  12.238  0.00  0.00     0.232 C 
HETATM   24  C   UNK N   1      36.245  14.379  13.595  0.00  0.00     0.035 C 
ENDBRANCH  19  23
ENDBRANCH  18  19
ENDBRANCH  17  18
ENDBRANCH  16  17
ENDBRANCH  14  16
ENDBRANCH   1  14
BRANCH   1  25
HETATM   25  O   UNK N   1      33.227  18.336   7.852  0.00  0.00    -0.371 OA
HETATM   26  H   UNK N   1      33.515  19.238   8.058  0.00  0.00     0.212 HD
ENDBRANCH   1  25
TORSDOF 10
ENDMDL
MODEL 9
REMARK VINA RESULT:      -5.6      4.110      7.019
REMARK  10 active torsions:
REMARK  status: ('A' for Active; 'I' for Inactive)
REMARK    1  A    between atoms: N_22  and  C_4 
REMARK    2  A    between atoms: N_22  and  C_5 
REMARK    3  A    between atoms: C_17  and  C_16 
REMARK    4  A    between atoms: N_22  and  C_16 
REMARK    5  A    between atoms: O_25  and  C_17 
REMARK    6  A    between atoms: C_21  and  C_18 
REMARK    7  A    between atoms: C_21  and  C_19 
REMARK    8  A    between atoms: C_21  and  C_20 
REMARK    9  A    between atoms: O_25  and  C_20 
REMARK   10  A    between atoms: O_24  and  C_21 
ROOT
HETATM    1  C   UNK N   1      28.245  17.146   4.156  0.00  0.00     0.201 C 
ENDROOT
BRANCH   1   2
HETATM    2  C   UNK N   1      27.864  18.442   4.860  0.00  0.00    -0.009 A 
HETATM    3  C   UNK N   1      27.389  19.523   4.096  0.00  0.00     0.011 A 
HETATM    4  C   UNK N   1      27.062  20.737   4.706  0.00  0.00     0.001 A 
HETATM    5  C   UNK N   1      27.207  20.887   6.086  0.00  0.00     0.000 A 
HETATM    6  C   UNK N   1      27.677  19.823   6.858  0.00  0.00     0.001 A 
HETATM    7  C   UNK N   1      28.007  18.608   6.250  0.00  0.00     0.011 A 
ENDBRANCH   1   2
BRANCH   1   8
HETATM    8  C   UNK N   1      26.983  16.448   3.671  0.00  0.00    -0.009 A 
HETATM    9  C   UNK N   1      25.771  16.588   4.370  0.00  0.00     0.011 A 
HETATM   10  C   UNK N   1      24.605  15.979   3.895  0.00  0.00     0.001 A 
HETATM   11  C   UNK N   1      24.634  15.240   2.709  0.00  0.00     0.000 A 
HETATM   12  C   UNK N   1      25.830  15.100   2.002  0.00  0.00     0.001 A 
HETATM   13  C   UNK N   1      26.997  15.698   2.481  0.00  0.00     0.011 A 
ENDBRANCH   1   8
BRANCH   1  14
HETATM   14  C   UNK N   1      29.071  16.232   5.057  0.00  0.00     0.303 C 
HETATM   15  O   UNK N   1      28.503  15.492   5.849  0.00  0.00    -0.261 OA
BRANCH  14  16
HETATM   16  O   UNK N   1      30.425  16.183   4.933  0.00  0.00    -0.317 OA
BRANCH  16  17
HETATM   17  C   UNK N   1      31.246  16.983   5.699  0.00  0.00     0.206 C 
BRANCH  17  18
HETATM   18  C   UNK N   1      32.055  16.199   6.741  0.00  0.00     0.263 C 
BRANCH  18  19
HETATM   19  N   UNK N   1      32.045  16.787   8.100  0.00  0.00    -0.070 N 
HETATM   20  C   UNK N   1      32.694  15.890   9.048  0.00  0.00     0.272 C 
BRANCH  19  21
HETATM   21  C   UNK N   1      32.854  18.014   8.148  0.00  0.00     0.232 C 
HETATM   22  C   UNK N   1      34.320  17.826   7.768  0.00  0.00     0.035 C 
ENDBRANCH  19  21
BRANCH  19  23
HETATM   23  C   UNK N   1      30.681  17.020   8.599  0.00  0.00     0.232 C 
HETATM   24  C   UNK N   1      30.429  18.450   9.069  0.00  0.00     0.035 C 
ENDBRANCH  19  23
ENDBRANCH  18  19
ENDBRANCH  17  18
ENDBRANCH  16  17
ENDBRANCH  14  16
ENDBRANCH   1  14
BRANCH   1  25
HETATM   25  O   UNK N   1      29.035  17.499   3.052  0.00  0.00    -0.371 OA
HETATM   26  H   UNK N   1      29.755  17.647   2.420  0.00  0.00     0.212 HD
ENDBRANCH   1  25
TORSDOF 10
ENDMDL
