MODEL 1
REMARK VINA RESULT:      -4.9      0.000      0.000
REMARK  2 active torsions:
REMARK  status: ('A' for Active; 'I' for Inactive)
REMARK    1  A    between atoms: C_9  and  C_7 
REMARK    2  A    between atoms: O_11  and  C_8 
ROOT
HETATM    1  C   UNK N   1      35.417  13.418  16.898  0.00  0.00     0.015 A 
HETATM    2  C   UNK N   1      36.079  11.117  16.555  0.00  0.00     0.015 A 
HETATM    3  C   UNK N   1      35.121  13.131  18.236  0.00  0.00     0.037 A 
HETATM    4  C   UNK N   1      35.784  10.829  17.886  0.00  0.00     0.037 A 
HETATM    5  C   UNK N   1      35.898  12.410  16.051  0.00  0.00    -0.018 A 
HETATM    6  C   UNK N   1      35.302  11.837  18.737  0.00  0.00     0.068 A 
ENDROOT
BRANCH   5   7
HETATM    7  C   UNK N   1      36.216  12.694  14.641  0.00  0.00     0.024 A 
HETATM    8  C   UNK N   1      35.774  13.860  13.930  0.00  0.00     0.051 A 
HETATM    9  C   UNK N   1      36.173  13.982  12.561  0.00  0.00     0.080 A 
HETATM   10  S   UNK N   1      35.809  15.087  11.729  0.00  0.00    -0.072 SA
HETATM   11  S   UNK N   1      37.116  12.691  12.024  0.00  0.00    -0.041 SA
HETATM   12  S   UNK N   1      37.154  11.667  13.666  0.00  0.00    -0.051 SA
ENDBRANCH   5   7
BRANCH   6  13
HETATM   13  O   UNK N   1      35.009  11.580  20.034  0.00  0.00    -0.356 OA
HETATM   14  C   UNK N   1      34.921  10.304  20.545  0.00  0.00     0.210 C 
ENDBRANCH   6  13
TORSDOF 2
ENDMDL
MODEL 2
REMARK VINA RESULT:      -4.9     13.906     16.617
REMARK  2 active torsions:
REMARK  status: ('A' for Active; 'I' for Inactive)
REMARK    1  A    between atoms: C_9  and  C_7 
REMARK    2  A    between atoms: O_11  and  C_8 
ROOT
HETATM    1  C   UNK N   1      25.460  18.677   4.941  0.00  0.00     0.015 A 
HETATM    2  C   UNK N   1      27.105  20.096   3.877  0.00  0.00     0.015 A 
HETATM    3  C   UNK N   1      24.462  19.228   4.129  0.00  0.00     0.037 A 
HETATM    4  C   UNK N   1      26.113  20.645   3.068  0.00  0.00     0.037 A 
HETATM    5  C   UNK N   1      26.788  19.110   4.818  0.00  0.00    -0.018 A 
HETATM    6  C   UNK N   1      24.782  20.214   3.188  0.00  0.00     0.068 A 
ENDROOT
BRANCH   5   7
HETATM    7  C   UNK N   1      27.851  18.541   5.665  0.00  0.00     0.024 A 
HETATM    8  C   UNK N   1      28.015  18.828   7.062  0.00  0.00     0.051 A 
HETATM    9  C   UNK N   1      29.103  18.189   7.738  0.00  0.00     0.080 A 
HETATM   10  S   UNK N   1      29.390  18.379   9.125  0.00  0.00    -0.072 SA
HETATM   11  S   UNK N   1      30.016  17.188   6.733  0.00  0.00    -0.041 SA
HETATM   12  S   UNK N   1      29.029  17.461   5.090  0.00  0.00    -0.051 SA
ENDBRANCH   5   7
BRANCH   6  13
HETATM   13  O   UNK N   1      23.802  20.735   2.412  0.00  0.00    -0.356 OA
HETATM   14  C   UNK N   1      22.463  20.508   2.642  0.00  0.00     0.210 C 
ENDBRANCH   6  13
TORSDOF 2
ENDMDL
MODEL 3
REMARK VINA RESULT:      -4.9     11.378     13.530
REMARK  2 active torsions:
REMARK  status: ('A' for Active; 'I' for Inactive)
REMARK    1  A    between atoms: C_9  and  C_7 
REMARK    2  A    between atoms: O_11  and  C_8 
ROOT
HETATM    1  C   UNK N   1      30.968  17.031   6.345  0.00  0.00     0.015 A 
HETATM    2  C   UNK N   1      31.996  17.368   4.181  0.00  0.00     0.015 A 
HETATM    3  C   UNK N   1      32.190  17.311   6.967  0.00  0.00     0.037 A 
HETATM    4  C   UNK N   1      33.213  17.647   4.799  0.00  0.00     0.037 A 
HETATM    5  C   UNK N   1      30.866  17.058   4.946  0.00  0.00    -0.018 A 
HETATM    6  C   UNK N   1      33.319  17.621   6.199  0.00  0.00     0.068 A 
ENDROOT
BRANCH   5   7
HETATM    7  C   UNK N   1      29.588  16.766   4.275  0.00  0.00     0.024 A 
HETATM    8  C   UNK N   1      28.403  17.565   4.404  0.00  0.00     0.051 A 
HETATM    9  C   UNK N   1      27.243  17.139   3.682  0.00  0.00     0.080 A 
HETATM   10  S   UNK N   1      25.994  17.834   3.714  0.00  0.00    -0.072 SA
HETATM   11  S   UNK N   1      27.496  15.732   2.787  0.00  0.00    -0.041 SA
HETATM   12  S   UNK N   1      29.351  15.430   3.252  0.00  0.00    -0.051 SA
ENDBRANCH   5   7
BRANCH   6  13
HETATM   13  O   UNK N   1      34.492  17.889   6.820  0.00  0.00    -0.356 OA
HETATM   14  C   UNK N   1      34.567  18.322   8.124  0.00  0.00     0.210 C 
ENDBRANCH   6  13
TORSDOF 2
ENDMDL
MODEL 4
REMARK VINA RESULT:      -4.9      8.279     10.734
REMARK  2 active torsions:
REMARK  status: ('A' for Active; 'I' for Inactive)
REMARK    1  A    between atoms: C_9  and  C_7 
REMARK    2  A    between atoms: O_11  and  C_8 
ROOT
HETATM    1  C   UNK N   1      32.647  16.057   8.472  0.00  0.00     0.015 A 
HETATM    2  C   UNK N   1      33.463  18.080   7.426  0.00  0.00     0.015 A 
HETATM    3  C   UNK N   1      33.698  16.113   9.396  0.00  0.00     0.037 A 
HETATM    4  C   UNK N   1      34.509  18.137   8.344  0.00  0.00     0.037 A 
HETATM    5  C   UNK N   1      32.525  17.042   7.482  0.00  0.00    -0.018 A 
HETATM    6  C   UNK N   1      34.634  17.152   9.337  0.00  0.00     0.068 A 
ENDROOT
BRANCH   5   7
HETATM    7  C   UNK N   1      31.426  16.999   6.502  0.00  0.00     0.024 A 
HETATM    8  C   UNK N   1      30.033  16.980   6.847  0.00  0.00     0.051 A 
HETATM    9  C   UNK N   1      29.092  16.938   5.770  0.00  0.00     0.080 A 
HETATM   10  S   UNK N   1      27.675  16.915   5.961  0.00  0.00    -0.072 SA
HETATM   11  S   UNK N   1      29.821  16.917   4.249  0.00  0.00    -0.041 SA
HETATM   12  S   UNK N   1      31.670  16.965   4.822  0.00  0.00    -0.051 SA
ENDBRANCH   5   7
BRANCH   6  13
HETATM   13  O   UNK N   1      35.643  17.188  10.240  0.00  0.00    -0.356 OA
HETATM   14  C   UNK N   1      36.037  16.088  10.968  0.00  0.00     0.210 C 
ENDBRANCH   6  13
TORSDOF 2
ENDMDL
MODEL 5
REMARK VINA RESULT:      -4.8     15.045     15.869
REMARK  2 active torsions:
REMARK  status: ('A' for Active; 'I' for Inactive)
REMARK    1  A    between atoms: C_9  and  C_7 
REMARK    2  A    between atoms: O_11  and  C_8 
ROOT
HETATM    1  C   UNK N   1      21.317  12.585   9.934  0.00  0.00     0.015 A 
HETATM    2  C   UNK N   1      23.396  12.445   8.705  0.00  0.00     0.015 A 
HETATM    3  C   UNK N   1      22.009  12.347  11.128  0.00  0.00     0.037 A 
HETATM    4  C   UNK N   1      24.086  12.208   9.892  0.00  0.00     0.037 A 
HETATM    5  C   UNK N   1      22.009  12.635   8.715  0.00  0.00    -0.018 A 
HETATM    6  C   UNK N   1      23.396  12.158  11.114  0.00  0.00     0.068 A 
ENDROOT
BRANCH   5   7
HETATM    7  C   UNK N   1      21.297  12.884   7.450  0.00  0.00     0.024 A 
HETATM    8  C   UNK N   1      20.715  14.143   7.082  0.00  0.00     0.051 A 
HETATM    9  C   UNK N   1      20.057  14.214   5.813  0.00  0.00     0.080 A 
HETATM   10  S   UNK N   1      19.432  15.399   5.314  0.00  0.00    -0.072 SA
HETATM   11  S   UNK N   1      20.092  12.758   4.962  0.00  0.00    -0.041 SA
HETATM   12  S   UNK N   1      21.073  11.700   6.253  0.00  0.00    -0.051 SA
ENDBRANCH   5   7
BRANCH   6  13
HETATM   13  O   UNK N   1      24.046  11.929  12.279  0.00  0.00    -0.356 OA
HETATM   14  C   UNK N   1      23.444  12.052  13.511  0.00  0.00     0.210 C 
ENDBRANCH   6  13
TORSDOF 2
ENDMDL
MODEL 6
REMARK VINA RESULT:      -4.7     15.022     17.589
REMARK  2 active torsions:
REMARK  status: ('A' for Active; 'I' for Inactive)
REMARK    1  A    between atoms: C_9  and  C_7 
REMARK    2  A    between atoms: O_11  and  C_8 
ROOT
HETATM    1  C   UNK N   1      25.889  19.907   3.290  0.00  0.00     0.015 A 
HETATM    2  C   UNK N   1      24.292  18.376   4.269  0.00  0.00     0.015 A 
HETATM    3  C   UNK N   1      24.837  20.703   2.823  0.00  0.00     0.037 A 
HETATM    4  C   UNK N   1      23.244  19.167   3.805  0.00  0.00     0.037 A 
HETATM    5  C   UNK N   1      25.620  18.738   4.017  0.00  0.00    -0.018 A 
HETATM    6  C   UNK N   1      23.509  20.339   3.077  0.00  0.00     0.068 A 
ENDROOT
BRANCH   5   7
HETATM    7  C   UNK N   1      26.715  17.888   4.516  0.00  0.00     0.024 A 
HETATM    8  C   UNK N   1      28.109  18.148   4.293  0.00  0.00     0.051 A 
HETATM    9  C   UNK N   1      29.046  17.220   4.849  0.00  0.00     0.080 A 
HETATM   10  S   UNK N   1      30.463  17.350   4.709  0.00  0.00    -0.072 SA
HETATM   11  S   UNK N   1      28.311  15.955   5.688  0.00  0.00    -0.041 SA
HETATM   12  S   UNK N   1      26.465  16.477   5.428  0.00  0.00    -0.051 SA
ENDBRANCH   5   7
BRANCH   6  13
HETATM   13  O   UNK N   1      22.506  21.122   2.616  0.00  0.00    -0.356 OA
HETATM   14  C   UNK N   1      21.193  20.710   2.572  0.00  0.00     0.210 C 
ENDBRANCH   6  13
TORSDOF 2
ENDMDL
MODEL 7
REMARK VINA RESULT:      -4.7      4.314      6.811
REMARK  2 active torsions:
REMARK  status: ('A' for Active; 'I' for Inactive)
REMARK    1  A    between atoms: C_9  and  C_7 
REMARK    2  A    between atoms: O_11  and  C_8 
ROOT
HETATM    1  C   UNK N   1      35.421  10.666  17.295  0.00  0.00     0.015 A 
HETATM    2  C   UNK N   1      35.160  12.739  18.515  0.00  0.00     0.015 A 
HETATM    3  C   UNK N   1      35.227  11.353  16.091  0.00  0.00     0.037 A 
HETATM    4  C   UNK N   1      34.967  13.424  17.317  0.00  0.00     0.037 A 
HETATM    5  C   UNK N   1      35.388  11.358  18.515  0.00  0.00    -0.018 A 
HETATM    6  C   UNK N   1      35.000  12.734  16.094  0.00  0.00     0.068 A 
ENDROOT
BRANCH   5   7
HETATM    7  C   UNK N   1      35.589  10.651  19.791  0.00  0.00     0.024 A 
HETATM    8  C   UNK N   1      34.546  10.372  20.737  0.00  0.00     0.051 A 
HETATM    9  C   UNK N   1      34.914   9.674  21.931  0.00  0.00     0.080 A 
HETATM   10  S   UNK N   1      33.984   9.328  22.961  0.00  0.00    -0.072 SA
HETATM   11  S   UNK N   1      36.557   9.300  22.004  0.00  0.00    -0.041 SA
HETATM   12  S   UNK N   1      37.098  10.070  20.312  0.00  0.00    -0.051 SA
ENDBRANCH   5   7
BRANCH   6  13
HETATM   13  O   UNK N   1      34.815  13.380  14.919  0.00  0.00    -0.356 OA
HETATM   14  C   UNK N   1      35.824  13.569  14.001  0.00  0.00     0.210 C 
ENDBRANCH   6  13
TORSDOF 2
ENDMDL
MODEL 8
REMARK VINA RESULT:      -4.6      4.496      6.527
REMARK  2 active torsions:
REMARK  status: ('A' for Active; 'I' for Inactive)
REMARK    1  A    between atoms: C_9  and  C_7 
REMARK    2  A    between atoms: O_11  and  C_8 
ROOT
HETATM    1  C   UNK N   1      35.203  12.599  17.979  0.00  0.00     0.015 A 
HETATM    2  C   UNK N   1      34.945  10.467  16.866  0.00  0.00     0.015 A 
HETATM    3  C   UNK N   1      34.994  13.258  16.762  0.00  0.00     0.037 A 
HETATM    4  C   UNK N   1      34.736  11.120  15.654  0.00  0.00     0.037 A 
HETATM    5  C   UNK N   1      35.180  11.198  18.036  0.00  0.00    -0.018 A 
HETATM    6  C   UNK N   1      34.759  12.523  15.593  0.00  0.00     0.068 A 
ENDROOT
BRANCH   5   7
HETATM    7  C   UNK N   1      35.398  10.488  19.308  0.00  0.00     0.024 A 
HETATM    8  C   UNK N   1      36.543  10.675  20.154  0.00  0.00     0.051 A 
HETATM    9  C   UNK N   1      36.599   9.904  21.359  0.00  0.00     0.080 A 
HETATM   10  S   UNK N   1      37.675   9.984  22.297  0.00  0.00    -0.072 SA
HETATM   11  S   UNK N   1      35.268   8.889  21.563  0.00  0.00    -0.041 SA
HETATM   12  S   UNK N   1      34.313   9.346  19.943  0.00  0.00    -0.051 SA
ENDBRANCH   5   7
BRANCH   6  13
HETATM   13  O   UNK N   1      34.559  13.180  14.426  0.00  0.00    -0.356 OA
HETATM   14  C   UNK N   1      35.550  13.360  13.487  0.00  0.00     0.210 C 
ENDBRANCH   6  13
TORSDOF 2
ENDMDL
MODEL 9
REMARK VINA RESULT:      -4.6      4.280      6.555
REMARK  2 active torsions:
REMARK  status: ('A' for Active; 'I' for Inactive)
REMARK    1  A    between atoms: C_9  and  C_7 
REMARK    2  A    between atoms: O_11  and  C_8 
ROOT
HETATM    1  C   UNK N   1      35.212  12.407  17.637  0.00  0.00     0.015 A 
HETATM    2  C   UNK N   1      34.745  10.341  16.468  0.00  0.00     0.015 A 
HETATM    3  C   UNK N   1      35.060  13.117  16.440  0.00  0.00     0.037 A 
HETATM    4  C   UNK N   1      34.593  11.046  15.276  0.00  0.00     0.037 A 
HETATM    5  C   UNK N   1      35.055  11.013  17.656  0.00  0.00    -0.018 A 
HETATM    6  C   UNK N   1      34.750  12.441  15.254  0.00  0.00     0.068 A 
ENDROOT
BRANCH   5   7
HETATM    7  C   UNK N   1      35.212  10.250  18.906  0.00  0.00     0.024 A 
HETATM    8  C   UNK N   1      34.490   9.051  19.220  0.00  0.00     0.051 A 
HETATM    9  C   UNK N   1      34.763   8.433  20.481  0.00  0.00     0.080 A 
HETATM   10  S   UNK N   1      34.121   7.236  20.929  0.00  0.00    -0.072 SA
HETATM   11  S   UNK N   1      35.919   9.258  21.391  0.00  0.00    -0.041 SA
HETATM   12  S   UNK N   1      36.280  10.698  20.149  0.00  0.00    -0.051 SA
ENDBRANCH   5   7
BRANCH   6  13
HETATM   13  O   UNK N   1      34.606  13.146  14.107  0.00  0.00    -0.356 OA
HETATM   14  C   UNK N   1      35.675  13.617  13.378  0.00  0.00     0.210 C 
ENDBRANCH   6  13
TORSDOF 2
ENDMDL
