REMARK  8 active torsions:
REMARK  status: ('A' for Active; 'I' for Inactive)
REMARK    1  A    between atoms: C_3  and  C_2 
REMARK    2  A    between atoms: C_8  and  C_3 
REMARK    3  A    between atoms: O_17  and  C_8 
REMARK    4  A    between atoms: C_10  and  C_9 
REMARK    5  A    between atoms: C_12  and  C_9 
REMARK    6  A    between atoms: O_17  and  C_11 
REMARK    7  A    between atoms: O_15  and  C_12 
REMARK    8  A    between atoms: N_13  and  O_16 
ROOT
HETATM    1  C   UNK N   1       7.605  -0.540  -0.000  0.00  0.00     0.010 A 
HETATM    2  C   UNK N   1       6.421  -2.646   0.000  0.00  0.00     0.010 A 
HETATM    3  C   UNK N   1       6.384   0.151  -0.000  0.00  0.00     0.037 A 
HETATM    4  C   UNK N   1       5.209  -1.964   0.000  0.00  0.00     0.037 A 
HETATM    5  C   UNK N   1       7.627  -1.947  -0.000  0.00  0.00    -0.050 A 
HETATM    6  C   UNK N   1       5.177  -0.559   0.000  0.00  0.00     0.068 A 
ENDROOT
BRANCH   5   7
HETATM    7  C   UNK N   1       8.890  -2.766  -0.000  0.00  0.00     0.124 C 
BRANCH   7   8
HETATM    8  C   UNK N   1      10.231  -2.084  -0.000  0.00  0.00     0.139 C 
HETATM    9  N   UNK N   1      11.286  -2.815  -0.000  0.00  0.00    -0.251 N 
ATOM     10  HN  UNK N   1      11.194  -3.831  -0.000  1.00  0.00     0.196 HD
BRANCH   9  11
HETATM   11  O   UNK N   1      12.486  -2.271   0.000  0.00  0.00    -0.288 OA
HETATM   12  H   UNK N   1      13.248  -2.816   0.000  0.00  0.00     0.244 HD
ENDBRANCH   9  11
BRANCH   8  13
HETATM   13  O   UNK N   1      10.338  -0.739  -0.000  0.00  0.00    -0.348 OA
HETATM   14  H   UNK N   1      11.185  -0.337   0.000  0.00  0.00     0.219 HD
ENDBRANCH   8  13
ENDBRANCH   7   8
ENDBRANCH   5   7
BRANCH   6  15
HETATM   15  O   UNK N   1       3.995   0.107   0.000  0.00  0.00    -0.351 OA
BRANCH  15  16
HETATM   16  C   UNK N   1       2.799  -0.580   0.000  0.00  0.00     0.175 C 
BRANCH  16  17
HETATM   17  C   UNK N   1       1.605   0.341  -0.000  0.00  0.00     0.026 C 
BRANCH  17  18
HETATM   18  C   UNK N   1       0.374  -0.544  -0.000  0.00  0.00    -0.002 C 
HETATM   19  C   UNK N   1      -0.884   0.294  -0.000  0.00  0.00     0.005 C 
ENDBRANCH  17  18
ENDBRANCH  16  17
ENDBRANCH  15  16
ENDBRANCH   6  15
TORSDOF 8
