REMARK  2 active torsions:
REMARK  status: ('A' for Active; 'I' for Inactive)
REMARK    1  A    between atoms: C_9  and  C_7 
REMARK    2  A    between atoms: O_11  and  C_8 
ROOT
HETATM    1  C   UNK N   1      -0.173   3.840  -0.000  0.00  0.00     0.015 A 
HETATM    2  C   UNK N   1      -2.592   3.826   0.000  0.00  0.00     0.015 A 
HETATM    3  C   UNK N   1      -0.183   5.240  -0.000  0.00  0.00     0.037 A 
HETATM    4  C   UNK N   1      -2.604   5.219  -0.000  0.00  0.00     0.037 A 
HETATM    5  C   UNK N   1      -1.380   3.126   0.000  0.00  0.00    -0.018 A 
HETATM    6  C   UNK N   1      -1.397   5.937  -0.000  0.00  0.00     0.068 A 
ENDROOT
BRANCH   5   7
HETATM    7  C   UNK N   1      -1.388   1.653   0.000  0.00  0.00     0.024 A 
HETATM    8  C   UNK N   1      -0.208   0.836   0.000  0.00  0.00     0.051 A 
HETATM    9  C   UNK N   1      -0.394  -0.583   0.000  0.00  0.00     0.080 A 
HETATM   10  S   UNK N   1       0.686  -1.520  -0.000  0.00  0.00    -0.072 SA
HETATM   11  S   UNK N   1      -2.017  -1.042   0.000  0.00  0.00    -0.041 SA
HETATM   12  S   UNK N   1      -2.810   0.724   0.000  0.00  0.00    -0.051 SA
ENDBRANCH   5   7
BRANCH   6  13
HETATM   13  O   UNK N   1      -1.385   7.291  -0.000  0.00  0.00    -0.356 OA
HETATM   14  C   UNK N   1      -2.533   8.051  -0.000  0.00  0.00     0.210 C 
ENDBRANCH   6  13
TORSDOF 2
