MODEL 1
REMARK VINA RESULT:      -5.9      0.000      0.000
REMARK  8 active torsions:
REMARK  status: ('A' for Active; 'I' for Inactive)
REMARK    1  A    between atoms: C_2  and  O_3 
REMARK    2  A    between atoms: C_6  and  N_7 
REMARK    3  A    between atoms: N_7  and  C_8 
REMARK    4  A    between atoms: C_8  and  C_9 
REMARK    5  A    between atoms: C_16  and  N_17 
REMARK    6  A    between atoms: N_19  and  C_33 
REMARK    7  A    between atoms: C_33  and  C_34 
REMARK    8  A    between atoms: C_34  and  O_36 
ROOT
HETATM    1  C   UNK N   1      30.610  17.216   6.781  0.00  0.00    -0.012 A 
HETATM    2  C   UNK N   1      30.878  17.011   5.424  0.00  0.00     0.030 A 
HETATM    3  C   UNK N   1      32.174  17.122   4.922  0.00  0.00     0.013 A 
HETATM    4 Br   UNK N   1      32.509  16.849   3.067  0.00  0.00    -0.051 Br
HETATM    5  C   UNK N   1      33.228  17.433   5.775  0.00  0.00     0.040 A 
HETATM    6  C   UNK N   1      32.995  17.642   7.131  0.00  0.00     0.039 A 
HETATM    7 Br   UNK N   1      34.490  18.064   8.243  0.00  0.00    -0.049 Br
HETATM    8  C   UNK N   1      31.689  17.541   7.650  0.00  0.00     0.051 A 
ENDROOT
BRANCH   1   9
HETATM    9  C   UNK N   1      29.166  17.065   7.210  0.00  0.00     0.155 C 
BRANCH   9  10
HETATM   10  N   UNK N   1      28.503  18.312   7.564  0.00  0.00    -0.413 N 
HETATM   11  H   UNK N   1      28.388  18.676   8.511  0.00  0.00     0.153 HD
BRANCH  10  12
HETATM   12  C   UNK N   1      28.031  18.955   6.347  0.00  0.00     0.077 C 
HETATM   13  C   UNK N   1      27.311  20.264   6.692  0.00  0.00     0.027 C 
HETATM   14  C   UNK N   1      26.689  20.893   5.445  0.00  0.00     0.034 C 
HETATM   15  C   UNK N   1      25.714  19.911   4.802  0.00  0.00     0.118 C 
HETATM   16  C   UNK N   1      26.461  18.649   4.405  0.00  0.00     0.034 C 
HETATM   17  C   UNK N   1      27.064  18.003   5.648  0.00  0.00     0.027 C 
BRANCH  15  18
HETATM   18  O   UNK N   1      25.134  20.485   3.673  0.00  0.00    -0.396 OA
HETATM   19  H   UNK N   1      24.547  20.082   3.013  0.00  0.00     0.210 HD
ENDBRANCH  15  18
ENDBRANCH  10  12
ENDBRANCH   9  10
ENDBRANCH   1   9
BRANCH   8  20
HETATM   20  N   UNK N   1      31.477  17.760   9.025  0.00  0.00    -0.398 N 
HETATM   21  H   UNK N   1      31.844  17.181   9.733  0.00  0.00     0.156 HD
HETATM   22  H   UNK N   1      30.932  18.534   9.295  0.00  0.00     0.156 HD
ENDBRANCH   8  20
TORSDOF 8
ENDMDL
MODEL 2
REMARK VINA RESULT:      -5.9     12.007     13.428
REMARK  8 active torsions:
REMARK  status: ('A' for Active; 'I' for Inactive)
REMARK    1  A    between atoms: C_2  and  O_3 
REMARK    2  A    between atoms: C_6  and  N_7 
REMARK    3  A    between atoms: N_7  and  C_8 
REMARK    4  A    between atoms: C_8  and  C_9 
REMARK    5  A    between atoms: C_16  and  N_17 
REMARK    6  A    between atoms: N_19  and  C_33 
REMARK    7  A    between atoms: C_33  and  C_34 
REMARK    8  A    between atoms: C_34  and  O_36 
ROOT
HETATM    1  C   UNK N   1      28.536  22.925  -5.958  0.00  0.00    -0.012 A 
HETATM    2  C   UNK N   1      29.356  22.952  -4.825  0.00  0.00     0.030 A 
HETATM    3  C   UNK N   1      30.297  21.948  -4.594  0.00  0.00     0.013 A 
HETATM    4 Br   UNK N   1      31.391  22.002  -3.037  0.00  0.00    -0.051 Br
HETATM    5  C   UNK N   1      30.438  20.903  -5.501  0.00  0.00     0.040 A 
HETATM    6  C   UNK N   1      29.637  20.848  -6.639  0.00  0.00     0.039 A 
HETATM    7 Br   UNK N   1      29.888  19.385  -7.842  0.00  0.00    -0.049 Br
HETATM    8  C   UNK N   1      28.678  21.852  -6.880  0.00  0.00     0.051 A 
ENDROOT
BRANCH   1   9
HETATM    9  C   UNK N   1      27.557  24.070  -6.103  0.00  0.00     0.155 C 
BRANCH   9  10
HETATM   10  N   UNK N   1      26.209  23.780  -5.635  0.00  0.00    -0.413 N 
HETATM   11  H   UNK N   1      25.722  22.890  -5.739  0.00  0.00     0.153 HD
BRANCH  10  12
HETATM   12  C   UNK N   1      25.669  24.971  -4.993  0.00  0.00     0.077 C 
HETATM   13  C   UNK N   1      25.389  26.050  -6.045  0.00  0.00     0.027 C 
HETATM   14  C   UNK N   1      24.948  27.357  -5.386  0.00  0.00     0.034 C 
HETATM   15  C   UNK N   1      26.023  27.835  -4.414  0.00  0.00     0.118 C 
HETATM   16  C   UNK N   1      26.235  26.780  -3.341  0.00  0.00     0.034 C 
HETATM   17  C   UNK N   1      26.699  25.481  -3.990  0.00  0.00     0.027 C 
BRANCH  15  18
HETATM   18  O   UNK N   1      25.631  29.034  -3.820  0.00  0.00    -0.396 OA
HETATM   19  H   UNK N   1      25.013  29.706  -4.148  0.00  0.00     0.210 HD
ENDBRANCH  15  18
ENDBRANCH  10  12
ENDBRANCH   9  10
ENDBRANCH   1   9
BRANCH   8  20
HETATM   20  N   UNK N   1      27.878  21.774  -8.037  0.00  0.00    -0.398 N 
HETATM   21  H   UNK N   1      27.100  22.355  -8.203  0.00  0.00     0.156 HD
HETATM   22  H   UNK N   1      28.110  21.101  -8.718  0.00  0.00     0.156 HD
ENDBRANCH   8  20
TORSDOF 8
ENDMDL
MODEL 3
REMARK VINA RESULT:      -5.9     11.578     12.833
REMARK  8 active torsions:
REMARK  status: ('A' for Active; 'I' for Inactive)
REMARK    1  A    between atoms: C_2  and  O_3 
REMARK    2  A    between atoms: C_6  and  N_7 
REMARK    3  A    between atoms: N_7  and  C_8 
REMARK    4  A    between atoms: C_8  and  C_9 
REMARK    5  A    between atoms: C_16  and  N_17 
REMARK    6  A    between atoms: N_19  and  C_33 
REMARK    7  A    between atoms: C_33  and  C_34 
REMARK    8  A    between atoms: C_34  and  O_36 
ROOT
HETATM    1  C   UNK N   1      28.876  23.019  -5.562  0.00  0.00    -0.012 A 
HETATM    2  C   UNK N   1      28.828  21.990  -6.508  0.00  0.00     0.030 A 
HETATM    3  C   UNK N   1      29.704  20.907  -6.438  0.00  0.00     0.013 A 
HETATM    4 Br   UNK N   1      29.625  19.527  -7.747  0.00  0.00    -0.051 Br
HETATM    5  C   UNK N   1      30.640  20.833  -5.412  0.00  0.00     0.040 A 
HETATM    6  C   UNK N   1      30.713  21.840  -4.454  0.00  0.00     0.039 A 
HETATM    7 Br   UNK N   1      32.021  21.670  -3.072  0.00  0.00    -0.049 Br
HETATM    8  C   UNK N   1      29.838  22.943  -4.517  0.00  0.00     0.051 A 
ENDROOT
BRANCH   1   9
HETATM    9  C   UNK N   1      27.873  24.139  -5.738  0.00  0.00     0.155 C 
BRANCH   9  10
HETATM   10  N   UNK N   1      26.511  23.803  -5.348  0.00  0.00    -0.413 N 
HETATM   11  H   UNK N   1      26.077  22.884  -5.437  0.00  0.00     0.153 HD
BRANCH  10  12
HETATM   12  C   UNK N   1      25.870  24.994  -4.809  0.00  0.00     0.077 C 
HETATM   13  C   UNK N   1      25.599  25.997  -5.936  0.00  0.00     0.027 C 
HETATM   14  C   UNK N   1      25.049  27.311  -5.379  0.00  0.00     0.034 C 
HETATM   15  C   UNK N   1      26.034  27.900  -4.375  0.00  0.00     0.118 C 
HETATM   16  C   UNK N   1      26.236  26.919  -3.233  0.00  0.00     0.034 C 
HETATM   17  C   UNK N   1      26.807  25.615  -3.778  0.00  0.00     0.027 C 
BRANCH  15  18
HETATM   18  O   UNK N   1      25.543  29.106  -3.876  0.00  0.00    -0.396 OA
HETATM   19  H   UNK N   1      26.022  29.924  -3.671  0.00  0.00     0.210 HD
ENDBRANCH  15  18
ENDBRANCH  10  12
ENDBRANCH   9  10
ENDBRANCH   1   9
BRANCH   8  20
HETATM   20  N   UNK N   1      29.933  23.951  -3.538  0.00  0.00    -0.398 N 
HETATM   21  H   UNK N   1      29.669  23.825  -2.597  0.00  0.00     0.156 HD
HETATM   22  H   UNK N   1      30.282  24.831  -3.808  0.00  0.00     0.156 HD
ENDBRANCH   8  20
TORSDOF 8
ENDMDL
MODEL 4
REMARK VINA RESULT:      -5.8      6.822      8.996
REMARK  8 active torsions:
REMARK  status: ('A' for Active; 'I' for Inactive)
REMARK    1  A    between atoms: C_2  and  O_3 
REMARK    2  A    between atoms: C_6  and  N_7 
REMARK    3  A    between atoms: N_7  and  C_8 
REMARK    4  A    between atoms: C_8  and  C_9 
REMARK    5  A    between atoms: C_16  and  N_17 
REMARK    6  A    between atoms: N_19  and  C_33 
REMARK    7  A    between atoms: C_33  and  C_34 
REMARK    8  A    between atoms: C_34  and  O_36 
ROOT
HETATM    1  C   UNK N   1      22.801  18.511   4.666  0.00  0.00    -0.012 A 
HETATM    2  C   UNK N   1      21.844  19.093   3.828  0.00  0.00     0.030 A 
HETATM    3  C   UNK N   1      22.205  20.052   2.882  0.00  0.00     0.013 A 
HETATM    4 Br   UNK N   1      20.882  20.838   1.762  0.00  0.00    -0.051 Br
HETATM    5  C   UNK N   1      23.536  20.439   2.755  0.00  0.00     0.040 A 
HETATM    6  C   UNK N   1      24.512  19.878   3.574  0.00  0.00     0.039 A 
HETATM    7 Br   UNK N   1      26.318  20.455   3.341  0.00  0.00    -0.049 Br
HETATM    8  C   UNK N   1      24.159  18.913   4.538  0.00  0.00     0.051 A 
ENDROOT
BRANCH   1   9
HETATM    9  C   UNK N   1      22.290  17.479   5.650  0.00  0.00     0.155 C 
BRANCH   9  10
HETATM   10  N   UNK N   1      21.316  17.982   6.608  0.00  0.00    -0.413 N 
HETATM   11  H   UNK N   1      21.192  18.959   6.873  0.00  0.00     0.153 HD
BRANCH  10  12
HETATM   12  C   UNK N   1      20.544  16.860   7.125  0.00  0.00     0.077 C 
HETATM   13  C   UNK N   1      19.885  17.248   8.453  0.00  0.00     0.027 C 
HETATM   14  C   UNK N   1      19.179  16.048   9.085  0.00  0.00     0.034 C 
HETATM   15  C   UNK N   1      20.178  14.916   9.304  0.00  0.00     0.118 C 
HETATM   16  C   UNK N   1      20.768  14.501   7.967  0.00  0.00     0.034 C 
HETATM   17  C   UNK N   1      21.495  15.687   7.343  0.00  0.00     0.027 C 
BRANCH  15  18
HETATM   18  O   UNK N   1      19.541  13.825   9.893  0.00  0.00    -0.396 OA
HETATM   19  H   UNK N   1      19.200  13.018   9.478  0.00  0.00     0.210 HD
ENDBRANCH  15  18
ENDBRANCH  10  12
ENDBRANCH   9  10
ENDBRANCH   1   9
BRANCH   8  20
HETATM   20  N   UNK N   1      25.163  18.361   5.357  0.00  0.00    -0.398 N 
HETATM   21  H   UNK N   1      25.702  18.888   5.991  0.00  0.00     0.156 HD
HETATM   22  H   UNK N   1      25.337  17.394   5.292  0.00  0.00     0.156 HD
ENDBRANCH   8  20
TORSDOF 8
ENDMDL
MODEL 5
REMARK VINA RESULT:      -5.8      6.811      9.228
REMARK  8 active torsions:
REMARK  status: ('A' for Active; 'I' for Inactive)
REMARK    1  A    between atoms: C_2  and  O_3 
REMARK    2  A    between atoms: C_6  and  N_7 
REMARK    3  A    between atoms: N_7  and  C_8 
REMARK    4  A    between atoms: C_8  and  C_9 
REMARK    5  A    between atoms: C_16  and  N_17 
REMARK    6  A    between atoms: N_19  and  C_33 
REMARK    7  A    between atoms: C_33  and  C_34 
REMARK    8  A    between atoms: C_34  and  O_36 
ROOT
HETATM    1  C   UNK N   1      35.682  13.670  12.294  0.00  0.00    -0.012 A 
HETATM    2  C   UNK N   1      36.353  14.462  13.233  0.00  0.00     0.030 A 
HETATM    3  C   UNK N   1      36.326  14.144  14.591  0.00  0.00     0.013 A 
HETATM    4 Br   UNK N   1      37.237  15.245  15.849  0.00  0.00    -0.051 Br
HETATM    5  C   UNK N   1      35.633  13.021  15.031  0.00  0.00     0.040 A 
HETATM    6  C   UNK N   1      34.956  12.212  14.121  0.00  0.00     0.039 A 
HETATM    7 Br   UNK N   1      34.028  10.685  14.797  0.00  0.00    -0.049 Br
HETATM    8  C   UNK N   1      34.969  12.527  12.748  0.00  0.00     0.051 A 
ENDROOT
BRANCH   1   9
HETATM    9  C   UNK N   1      35.786  14.112  10.850  0.00  0.00     0.155 C 
BRANCH   9  10
HETATM   10  N   UNK N   1      34.560  14.667  10.294  0.00  0.00    -0.413 N 
HETATM   11  H   UNK N   1      33.616  14.478  10.631  0.00  0.00     0.153 HD
BRANCH  10  12
HETATM   12  C   UNK N   1      34.903  15.540   9.180  0.00  0.00     0.077 C 
HETATM   13  C   UNK N   1      34.286  16.927   9.393  0.00  0.00     0.027 C 
HETATM   14  C   UNK N   1      34.517  17.823   8.176  0.00  0.00     0.034 C 
HETATM   15  C   UNK N   1      33.923  17.169   6.932  0.00  0.00     0.118 C 
HETATM   16  C   UNK N   1      34.596  15.826   6.700  0.00  0.00     0.034 C 
HETATM   17  C   UNK N   1      34.349  14.920   7.900  0.00  0.00     0.027 C 
BRANCH  15  18
HETATM   18  O   UNK N   1      34.119  17.988   5.822  0.00  0.00    -0.396 OA
HETATM   19  H   UNK N   1      33.465  18.480   5.301  0.00  0.00     0.210 HD
ENDBRANCH  15  18
ENDBRANCH  10  12
ENDBRANCH   9  10
ENDBRANCH   1   9
BRANCH   8  20
HETATM   20  N   UNK N   1      34.275  11.695  11.847  0.00  0.00    -0.398 N 
HETATM   21  H   UNK N   1      34.021  11.970  10.935  0.00  0.00     0.156 HD
HETATM   22  H   UNK N   1      34.031  10.789  12.144  0.00  0.00     0.156 HD
ENDBRANCH   8  20
TORSDOF 8
ENDMDL
MODEL 6
REMARK VINA RESULT:      -5.8      4.098      6.902
REMARK  8 active torsions:
REMARK  status: ('A' for Active; 'I' for Inactive)
REMARK    1  A    between atoms: C_2  and  O_3 
REMARK    2  A    between atoms: C_6  and  N_7 
REMARK    3  A    between atoms: N_7  and  C_8 
REMARK    4  A    between atoms: C_8  and  C_9 
REMARK    5  A    between atoms: C_16  and  N_17 
REMARK    6  A    between atoms: N_19  and  C_33 
REMARK    7  A    between atoms: C_33  and  C_34 
REMARK    8  A    between atoms: C_34  and  O_36 
ROOT
HETATM    1  C   UNK N   1      30.555  16.761   5.945  0.00  0.00    -0.012 A 
HETATM    2  C   UNK N   1      30.217  16.934   7.292  0.00  0.00     0.030 A 
HETATM    3  C   UNK N   1      29.114  17.702   7.663  0.00  0.00     0.013 A 
HETATM    4 Br   UNK N   1      28.683  17.932   9.503  0.00  0.00    -0.051 Br
HETATM    5  C   UNK N   1      28.324  18.304   6.689  0.00  0.00     0.040 A 
HETATM    6  C   UNK N   1      28.633  18.149   5.340  0.00  0.00     0.039 A 
HETATM    7 Br   UNK N   1      27.503  19.002   4.058  0.00  0.00    -0.049 Br
HETATM    8  C   UNK N   1      29.750  17.383   4.952  0.00  0.00     0.051 A 
ENDROOT
BRANCH   1   9
HETATM    9  C   UNK N   1      31.771  15.903   5.665  0.00  0.00     0.155 C 
BRANCH   9  10
HETATM   10  N   UNK N   1      32.960  16.644   5.270  0.00  0.00    -0.413 N 
HETATM   11  H   UNK N   1      33.124  17.059   4.352  0.00  0.00     0.153 HD
BRANCH  10  12
HETATM   12  C   UNK N   1      33.877  16.698   6.400  0.00  0.00     0.077 C 
HETATM   13  C   UNK N   1      33.590  15.540   7.361  0.00  0.00     0.027 C 
HETATM   14  C   UNK N   1      34.448  15.648   8.622  0.00  0.00     0.034 C 
HETATM   15  C   UNK N   1      34.185  16.983   9.313  0.00  0.00     0.118 C 
HETATM   16  C   UNK N   1      34.541  18.117   8.367  0.00  0.00     0.034 C 
HETATM   17  C   UNK N   1      33.671  18.029   7.118  0.00  0.00     0.027 C 
BRANCH  15  18
HETATM   18  O   UNK N   1      34.954  17.081  10.471  0.00  0.00    -0.396 OA
HETATM   19  H   UNK N   1      35.885  17.335  10.568  0.00  0.00     0.210 HD
ENDBRANCH  15  18
ENDBRANCH  10  12
ENDBRANCH   9  10
ENDBRANCH   1   9
BRANCH   8  20
HETATM   20  N   UNK N   1      30.044  17.243   3.581  0.00  0.00    -0.398 N 
HETATM   21  H   UNK N   1      29.552  16.642   2.976  0.00  0.00     0.156 HD
HETATM   22  H   UNK N   1      30.783  17.776   3.208  0.00  0.00     0.156 HD
ENDBRANCH   8  20
TORSDOF 8
ENDMDL
MODEL 7
REMARK VINA RESULT:      -5.7      8.425      9.626
REMARK  8 active torsions:
REMARK  status: ('A' for Active; 'I' for Inactive)
REMARK    1  A    between atoms: C_2  and  O_3 
REMARK    2  A    between atoms: C_6  and  N_7 
REMARK    3  A    between atoms: N_7  and  C_8 
REMARK    4  A    between atoms: C_8  and  C_9 
REMARK    5  A    between atoms: C_16  and  N_17 
REMARK    6  A    between atoms: N_19  and  C_33 
REMARK    7  A    between atoms: C_33  and  C_34 
REMARK    8  A    between atoms: C_34  and  O_36 
ROOT
HETATM    1  C   UNK N   1      21.555  16.145   6.852  0.00  0.00    -0.012 A 
HETATM    2  C   UNK N   1      20.413  16.790   7.340  0.00  0.00     0.030 A 
HETATM    3  C   UNK N   1      19.763  16.330   8.484  0.00  0.00     0.013 A 
HETATM    4 Br   UNK N   1      18.203  17.217   9.120  0.00  0.00    -0.051 Br
HETATM    5  C   UNK N   1      20.251  15.220   9.166  0.00  0.00     0.040 A 
HETATM    6  C   UNK N   1      21.387  14.558   8.706  0.00  0.00     0.039 A 
HETATM    7 Br   UNK N   1      22.002  13.043   9.694  0.00  0.00    -0.049 Br
HETATM    8  C   UNK N   1      22.049  15.007   7.547  0.00  0.00     0.051 A 
ENDROOT
BRANCH   1   9
HETATM    9  C   UNK N   1      22.177  16.737   5.605  0.00  0.00     0.155 C 
BRANCH   9  10
HETATM   10  N   UNK N   1      21.490  16.403   4.365  0.00  0.00    -0.413 N 
HETATM   11  H   UNK N   1      21.007  15.526   4.171  0.00  0.00     0.153 HD
BRANCH  10  12
HETATM   12  C   UNK N   1      21.604  17.528   3.448  0.00  0.00     0.077 C 
HETATM   13  C   UNK N   1      22.472  18.626   4.072  0.00  0.00     0.027 C 
HETATM   14  C   UNK N   1      22.499  19.874   3.188  0.00  0.00     0.034 C 
HETATM   15  C   UNK N   1      21.078  20.385   2.973  0.00  0.00     0.118 C 
HETATM   16  C   UNK N   1      20.253  19.307   2.290  0.00  0.00     0.034 C 
HETATM   17  C   UNK N   1      20.202  18.069   3.179  0.00  0.00     0.027 C 
BRANCH  15  18
HETATM   18  O   UNK N   1      21.099  21.531   2.178  0.00  0.00    -0.396 OA
HETATM   19  H   UNK N   1      21.825  22.155   2.022  0.00  0.00     0.210 HD
ENDBRANCH  15  18
ENDBRANCH  10  12
ENDBRANCH   9  10
ENDBRANCH   1   9
BRANCH   8  20
HETATM   20  N   UNK N   1      23.194  14.319   7.100  0.00  0.00    -0.398 N 
HETATM   21  H   UNK N   1      23.179  13.393   6.765  0.00  0.00     0.156 HD
HETATM   22  H   UNK N   1      24.058  14.791   7.123  0.00  0.00     0.156 HD
ENDBRANCH   8  20
TORSDOF 8
ENDMDL
MODEL 8
REMARK VINA RESULT:      -5.7      1.931      3.290
REMARK  8 active torsions:
REMARK  status: ('A' for Active; 'I' for Inactive)
REMARK    1  A    between atoms: C_2  and  O_3 
REMARK    2  A    between atoms: C_6  and  N_7 
REMARK    3  A    between atoms: N_7  and  C_8 
REMARK    4  A    between atoms: C_8  and  C_9 
REMARK    5  A    between atoms: C_16  and  N_17 
REMARK    6  A    between atoms: N_19  and  C_33 
REMARK    7  A    between atoms: C_33  and  C_34 
REMARK    8  A    between atoms: C_34  and  O_36 
ROOT
HETATM    1  C   UNK N   1      29.346  17.117   5.202  0.00  0.00    -0.012 A 
HETATM    2  C   UNK N   1      29.849  17.288   6.496  0.00  0.00     0.030 A 
HETATM    3  C   UNK N   1      31.219  17.226   6.748  0.00  0.00     0.013 A 
HETATM    4 Br   UNK N   1      31.878  17.449   8.521  0.00  0.00    -0.051 Br
HETATM    5  C   UNK N   1      32.111  17.001   5.704  0.00  0.00     0.040 A 
HETATM    6  C   UNK N   1      31.641  16.829   4.405  0.00  0.00     0.039 A 
HETATM    7 Br   UNK N   1      32.924  16.527   3.021  0.00  0.00    -0.049 Br
HETATM    8  C   UNK N   1      30.259  16.881   4.138  0.00  0.00     0.051 A 
ENDROOT
BRANCH   1   9
HETATM    9  C   UNK N   1      27.842  17.209   5.051  0.00  0.00     0.155 C 
BRANCH   9  10
HETATM   10  N   UNK N   1      27.182  18.054   6.036  0.00  0.00    -0.413 N 
HETATM   11  H   UNK N   1      27.248  17.949   7.049  0.00  0.00     0.153 HD
BRANCH  10  12
HETATM   12  C   UNK N   1      26.413  19.075   5.339  0.00  0.00     0.077 C 
HETATM   13  C   UNK N   1      25.116  18.468   4.790  0.00  0.00     0.027 C 
HETATM   14  C   UNK N   1      24.352  19.483   3.939  0.00  0.00     0.034 C 
HETATM   15  C   UNK N   1      25.235  19.964   2.791  0.00  0.00     0.118 C 
HETATM   16  C   UNK N   1      26.482  20.623   3.357  0.00  0.00     0.034 C 
HETATM   17  C   UNK N   1      27.260  19.608   4.187  0.00  0.00     0.027 C 
BRANCH  15  18
HETATM   18  O   UNK N   1      24.538  20.879   2.004  0.00  0.00    -0.396 OA
HETATM   19  H   UNK N   1      24.030  20.727   1.193  0.00  0.00     0.210 HD
ENDBRANCH  15  18
ENDBRANCH  10  12
ENDBRANCH   9  10
ENDBRANCH   1   9
BRANCH   8  20
HETATM   20  N   UNK N   1      29.807  16.702   2.816  0.00  0.00    -0.398 N 
HETATM   21  H   UNK N   1      30.367  16.864   2.021  0.00  0.00     0.156 HD
HETATM   22  H   UNK N   1      28.882  16.396   2.678  0.00  0.00     0.156 HD
ENDBRANCH   8  20
TORSDOF 8
ENDMDL
MODEL 9
REMARK VINA RESULT:      -5.6      6.704      8.937
REMARK  8 active torsions:
REMARK  status: ('A' for Active; 'I' for Inactive)
REMARK    1  A    between atoms: C_2  and  O_3 
REMARK    2  A    between atoms: C_6  and  N_7 
REMARK    3  A    between atoms: N_7  and  C_8 
REMARK    4  A    between atoms: C_8  and  C_9 
REMARK    5  A    between atoms: C_16  and  N_17 
REMARK    6  A    between atoms: N_19  and  C_33 
REMARK    7  A    between atoms: C_33  and  C_34 
REMARK    8  A    between atoms: C_34  and  O_36 
ROOT
HETATM    1  C   UNK N   1      35.237  13.557  12.098  0.00  0.00    -0.012 A 
HETATM    2  C   UNK N   1      34.743  12.336  12.570  0.00  0.00     0.030 A 
HETATM    3  C   UNK N   1      34.966  11.931  13.886  0.00  0.00     0.013 A 
HETATM    4 Br   UNK N   1      34.294  10.259  14.500  0.00  0.00    -0.051 Br
HETATM    5  C   UNK N   1      35.682  12.748  14.755  0.00  0.00     0.040 A 
HETATM    6  C   UNK N   1      36.186  13.969  14.315  0.00  0.00     0.039 A 
HETATM    7 Br   UNK N   1      37.158  15.040  15.564  0.00  0.00    -0.049 Br
HETATM    8  C   UNK N   1      35.974  14.387  12.987  0.00  0.00     0.051 A 
ENDROOT
BRANCH   1   9
HETATM    9  C   UNK N   1      34.928  13.891  10.654  0.00  0.00     0.155 C 
BRANCH   9  10
HETATM   10  N   UNK N   1      33.511  14.034  10.352  0.00  0.00    -0.413 N 
HETATM   11  H   UNK N   1      32.769  13.413  10.675  0.00  0.00     0.153 HD
BRANCH  10  12
HETATM   12  C   UNK N   1      33.326  15.210   9.514  0.00  0.00     0.077 C 
HETATM   13  C   UNK N   1      33.156  14.787   8.050  0.00  0.00     0.027 C 
HETATM   14  C   UNK N   1      33.093  16.008   7.131  0.00  0.00     0.034 C 
HETATM   15  C   UNK N   1      34.360  16.842   7.293  0.00  0.00     0.118 C 
HETATM   16  C   UNK N   1      34.474  17.308   8.735  0.00  0.00     0.034 C 
HETATM   17  C   UNK N   1      34.561  16.096   9.655  0.00  0.00     0.027 C 
BRANCH  15  18
HETATM   18  O   UNK N   1      34.314  17.949   6.446  0.00  0.00    -0.396 OA
HETATM   19  H   UNK N   1      34.115  17.986   5.498  0.00  0.00     0.210 HD
ENDBRANCH  15  18
ENDBRANCH  10  12
ENDBRANCH   9  10
ENDBRANCH   1   9
BRANCH   8  20
HETATM   20  N   UNK N   1      36.496  15.625  12.564  0.00  0.00    -0.398 N 
HETATM   21  H   UNK N   1      35.950  16.437  12.447  0.00  0.00     0.156 HD
HETATM   22  H   UNK N   1      37.461  15.684  12.376  0.00  0.00     0.156 HD
ENDBRANCH   8  20
TORSDOF 8
ENDMDL
