REMARK  23 active torsions:
REMARK  status: ('A' for Active; 'I' for Inactive)
REMARK    1  A    between atoms: C_11  and  C_3 
REMARK    2  A    between atoms: C_12  and  C_4 
REMARK    3  A    between atoms: C_13  and  C_8 
REMARK    4  A    between atoms: N_19  and  C_8 
REMARK    5  A    between atoms: C_14  and  C_9 
REMARK    6  A    between atoms: N_19  and  C_9 
REMARK    7  A    between atoms: C_15  and  C_10 
REMARK    8  A    between atoms: N_19  and  C_10 
REMARK    9  A    between atoms: O_20  and  C_13 
REMARK   10  A    between atoms: N_17  and  C_16 
REMARK   11  A    between atoms: C_36  and  C_28 
REMARK   12  A    between atoms: C_37  and  C_29 
REMARK   13  A    between atoms: C_38  and  C_33 
REMARK   14  A    between atoms: N_44  and  C_33 
REMARK   15  A    between atoms: C_39  and  C_34 
REMARK   16  A    between atoms: N_44  and  C_34 
REMARK   17  A    between atoms: C_40  and  C_35 
REMARK   18  A    between atoms: N_44  and  C_35 
REMARK   19  A    between atoms: O_45  and  C_38 
REMARK   20  A    between atoms: O_47  and  C_39 
REMARK   21  A    between atoms: O_49  and  C_40 
REMARK   22  A    between atoms: N_42  and  C_41 
REMARK   23  A    between atoms: Tc_50  and  Tc_50 
ROOT
HETATM    1 Tc   UNK N   1      -3.131  -6.096  -0.909  0.00  0.00     0.000 Tc
ENDROOT
TORSDOF 23
