MODEL 1
REMARK VINA RESULT:      -7.8      0.000      0.000
REMARK  5 active torsions:
REMARK  status: ('A' for Active; 'I' for Inactive)
REMARK    1  A    between atoms: O_1  and  Hg_2 
REMARK    2  A    between atoms: Hg_2  and  C_3 
REMARK    3  A    between atoms: C_11  and  C_12 
REMARK    4  A    between atoms: C_17  and  C_18 
REMARK    5  A    between atoms: C_18  and  O_20 
ROOT
HETATM    1  C   UNK N   1      29.458  16.141   5.803  0.00  0.00     0.025 A 
HETATM    2  C   UNK N   1      28.965  17.143   6.633  0.00  0.00     0.132 A 
HETATM    3  O   UNK N   1      27.741  17.650   6.384  0.00  0.00    -0.190 OA
HETATM    4 Na   UNK N   1      26.713  18.981   7.499  0.00  0.00     0.000 Na
HETATM    5  C   UNK N   1      29.742  17.590   7.708  0.00  0.00     0.048 A 
HETATM    6 Br   UNK N   1      29.138  18.964   8.888  0.00  0.00    -0.048 Br
HETATM    7  C   UNK N   1      30.986  17.007   7.949  0.00  0.00     0.037 A 
HETATM    8  C   UNK N   1      31.496  15.962   7.158  0.00  0.00     0.012 A 
HETATM    9  C   UNK N   1      32.752  15.295   7.459  0.00  0.00     0.001 A 
HETATM   10  C   UNK N   1      33.086  14.209   6.595  0.00  0.00     0.011 A 
HETATM   11  C   UNK N   1      34.160  13.342   6.804  0.00  0.00     0.038 A 
HETATM   12  C   UNK N   1      34.462  12.314   5.905  0.00  0.00     0.061 A 
HETATM   13 Br   UNK N   1      35.998  11.224   6.238  0.00  0.00    -0.047 Br
HETATM   14  C   UNK N   1      33.667  12.100   4.770  0.00  0.00     0.192 A 
HETATM   15  O   UNK N   1      33.944  11.216   3.981  0.00  0.00    -0.287 OA
HETATM   16  C   UNK N   1      32.540  12.888   4.547  0.00  0.00     0.094 A 
HETATM   17  C   UNK N   1      32.212  13.914   5.427  0.00  0.00     0.091 A 
HETATM   18  O   UNK N   1      31.095  14.584   5.239  0.00  0.00    -0.308 OA
HETATM   19  C   UNK N   1      30.703  15.547   6.045  0.00  0.00     0.095 A 
ENDROOT
BRANCH   9  20
HETATM   20  C   UNK N   1      33.582  15.693   8.717  0.00  0.00    -0.008 A 
HETATM   21  C   UNK N   1      33.522  14.782   9.795  0.00  0.00     0.013 A 
HETATM   22  C   UNK N   1      34.242  14.928  10.973  0.00  0.00     0.001 A 
HETATM   23  C   UNK N   1      35.106  15.992  11.119  0.00  0.00     0.001 A 
HETATM   24  C   UNK N   1      35.211  16.927  10.102  0.00  0.00     0.018 A 
HETATM   25  C   UNK N   1      34.462  16.840   8.911  0.00  0.00     0.053 A 
BRANCH  25  26
HETATM   26  C   UNK N   1      34.640  18.023   8.024  0.00  0.00     0.323 C 
HETATM   27  O   UNK N   1      34.653  17.865   6.811  0.00  0.00    -0.257 OA
BRANCH  26  28
HETATM   28  O   UNK N   1      34.929  19.243   8.516  0.00  0.00    -0.144 OA
HETATM   29 Na   UNK N   1      36.304  19.613   9.919  0.00  0.00     0.000 Na
ENDBRANCH  26  28
ENDBRANCH  25  26
ENDBRANCH   9  20
BRANCH   1  30
HETATM   30 Hg   UNK N   1      28.278  15.491   4.236  0.00  0.00     0.243 Hg
BRANCH  30  31
HETATM   31  O   UNK N   1      27.202  14.945   2.659  0.00  0.00    -0.406 OA
HETATM   32  H   UNK N   1      27.452  15.247   1.773  0.00  0.00     0.206 HD
ENDBRANCH  30  31
ENDBRANCH   1  30
TORSDOF 5
ENDMDL
MODEL 2
REMARK VINA RESULT:      -7.7      2.243      2.496
REMARK  5 active torsions:
REMARK  status: ('A' for Active; 'I' for Inactive)
REMARK    1  A    between atoms: O_1  and  Hg_2 
REMARK    2  A    between atoms: Hg_2  and  C_3 
REMARK    3  A    between atoms: C_11  and  C_12 
REMARK    4  A    between atoms: C_17  and  C_18 
REMARK    5  A    between atoms: C_18  and  O_20 
ROOT
HETATM    1  C   UNK N   1      29.726  17.700   6.368  0.00  0.00     0.025 A 
HETATM    2  C   UNK N   1      29.188  17.842   7.643  0.00  0.00     0.132 A 
HETATM    3  O   UNK N   1      28.023  18.504   7.787  0.00  0.00    -0.190 OA
HETATM    4 Na   UNK N   1      26.936  18.724   9.473  0.00  0.00     0.000 Na
HETATM    5  C   UNK N   1      29.858  17.285   8.738  0.00  0.00     0.048 A 
HETATM    6 Br   UNK N   1      29.187  17.440  10.519  0.00  0.00    -0.048 Br
HETATM    7  C   UNK N   1      31.041  16.573   8.534  0.00  0.00     0.037 A 
HETATM    8  C   UNK N   1      31.589  16.373   7.254  0.00  0.00     0.012 A 
HETATM    9  C   UNK N   1      32.774  15.560   7.031  0.00  0.00     0.001 A 
HETATM   10  C   UNK N   1      33.154  15.403   5.663  0.00  0.00     0.011 A 
HETATM   11  C   UNK N   1      34.159  14.541   5.222  0.00  0.00     0.038 A 
HETATM   12  C   UNK N   1      34.514  14.453   3.873  0.00  0.00     0.061 A 
HETATM   13 Br   UNK N   1      35.953  13.296   3.375  0.00  0.00    -0.047 Br
HETATM   14  C   UNK N   1      33.842  15.213   2.905  0.00  0.00     0.192 A 
HETATM   15  O   UNK N   1      34.167  15.148   1.734  0.00  0.00    -0.287 OA
HETATM   16  C   UNK N   1      32.783  16.038   3.277  0.00  0.00     0.094 A 
HETATM   17  C   UNK N   1      32.404  16.142   4.611  0.00  0.00     0.091 A 
HETATM   18  O   UNK N   1      31.345  16.861   4.921  0.00  0.00    -0.308 OA
HETATM   19  C   UNK N   1      30.909  16.980   6.156  0.00  0.00     0.095 A 
ENDROOT
BRANCH   9  20
HETATM   20  C   UNK N   1      33.474  14.832   8.217  0.00  0.00    -0.008 A 
HETATM   21  C   UNK N   1      33.183  13.456   8.340  0.00  0.00     0.013 A 
HETATM   22  C   UNK N   1      33.759  12.624   9.291  0.00  0.00     0.001 A 
HETATM   23  C   UNK N   1      34.704  13.129  10.158  0.00  0.00     0.001 A 
HETATM   24  C   UNK N   1      35.035  14.473  10.096  0.00  0.00     0.018 A 
HETATM   25  C   UNK N   1      34.438  15.359   9.176  0.00  0.00     0.053 A 
BRANCH  25  26
HETATM   26  C   UNK N   1      34.851  16.775   9.383  0.00  0.00     0.323 C 
HETATM   27  O   UNK N   1      34.651  17.593   8.494  0.00  0.00    -0.257 OA
BRANCH  26  28
HETATM   28  O   UNK N   1      35.565  17.158  10.459  0.00  0.00    -0.144 OA
HETATM   29 Na   UNK N   1      37.196  16.224  11.139  0.00  0.00     0.000 Na
ENDBRANCH  26  28
ENDBRANCH  25  26
ENDBRANCH   9  20
BRANCH   1  30
HETATM   30 Hg   UNK N   1      28.700  18.518   4.770  0.00  0.00     0.243 Hg
BRANCH  30  31
HETATM   31  O   UNK N   1      27.620  19.317   3.309  0.00  0.00    -0.406 OA
HETATM   32  H   UNK N   1      27.311  20.233   3.378  0.00  0.00     0.206 HD
ENDBRANCH  30  31
ENDBRANCH   1  30
TORSDOF 5
ENDMDL
MODEL 3
REMARK VINA RESULT:      -7.6      3.322      6.766
REMARK  5 active torsions:
REMARK  status: ('A' for Active; 'I' for Inactive)
REMARK    1  A    between atoms: O_1  and  Hg_2 
REMARK    2  A    between atoms: Hg_2  and  C_3 
REMARK    3  A    between atoms: C_11  and  C_12 
REMARK    4  A    between atoms: C_17  and  C_18 
REMARK    5  A    between atoms: C_18  and  O_20 
ROOT
HETATM    1  C   UNK N   1      31.893  14.526   6.118  0.00  0.00     0.025 A 
HETATM    2  C   UNK N   1      32.849  15.405   6.615  0.00  0.00     0.132 A 
HETATM    3  O   UNK N   1      34.122  14.981   6.738  0.00  0.00    -0.190 OA
HETATM    4 Na   UNK N   1      35.735  16.070   7.272  0.00  0.00     0.000 Na
HETATM    5  C   UNK N   1      32.472  16.708   6.961  0.00  0.00     0.048 A 
HETATM    6 Br   UNK N   1      33.724  17.972   7.654  0.00  0.00    -0.048 Br
HETATM    7  C   UNK N   1      31.150  17.115   6.778  0.00  0.00     0.037 A 
HETATM    8  C   UNK N   1      30.167  16.266   6.237  0.00  0.00     0.012 A 
HETATM    9  C   UNK N   1      28.811  16.714   5.966  0.00  0.00     0.001 A 
HETATM   10  C   UNK N   1      27.963  15.745   5.350  0.00  0.00     0.011 A 
HETATM   11  C   UNK N   1      26.683  16.018   4.866  0.00  0.00     0.038 A 
HETATM   12  C   UNK N   1      25.880  15.021   4.302  0.00  0.00     0.061 A 
HETATM   13 Br   UNK N   1      24.112  15.477   3.733  0.00  0.00    -0.047 Br
HETATM   14  C   UNK N   1      26.354  13.707   4.176  0.00  0.00     0.192 A 
HETATM   15  O   UNK N   1      25.646  12.839   3.702  0.00  0.00    -0.287 OA
HETATM   16  C   UNK N   1      27.650  13.391   4.576  0.00  0.00     0.094 A 
HETATM   17  C   UNK N   1      28.473  14.363   5.135  0.00  0.00     0.091 A 
HETATM   18  O   UNK N   1      29.721  14.057   5.423  0.00  0.00    -0.308 OA
HETATM   19  C   UNK N   1      30.566  14.931   5.925  0.00  0.00     0.095 A 
ENDROOT
BRANCH   9  20
HETATM   20  C   UNK N   1      28.394  18.192   6.233  0.00  0.00    -0.008 A 
HETATM   21  C   UNK N   1      28.183  18.980   5.080  0.00  0.00     0.013 A 
HETATM   22  C   UNK N   1      27.745  20.296   5.110  0.00  0.00     0.001 A 
HETATM   23  C   UNK N   1      27.451  20.891   6.318  0.00  0.00     0.001 A 
HETATM   24  C   UNK N   1      27.639  20.178   7.491  0.00  0.00     0.018 A 
HETATM   25  C   UNK N   1      28.127  18.854   7.504  0.00  0.00     0.053 A 
BRANCH  25  26
HETATM   26  C   UNK N   1      28.372  18.339   8.879  0.00  0.00     0.323 C 
HETATM   27  O   UNK N   1      27.563  17.573   9.385  0.00  0.00    -0.257 OA
BRANCH  26  28
HETATM   28  O   UNK N   1      29.384  18.799   9.641  0.00  0.00    -0.144 OA
HETATM   29 Na   UNK N   1      31.195  17.961   9.762  0.00  0.00     0.000 Na
ENDBRANCH  26  28
ENDBRANCH  25  26
ENDBRANCH   9  20
BRANCH   1  30
HETATM   30 Hg   UNK N   1      32.488  12.616   5.598  0.00  0.00     0.243 Hg
BRANCH  30  31
HETATM   31  O   UNK N   1      32.987  10.739   5.186  0.00  0.00    -0.406 OA
HETATM   32  H   UNK N   1      32.981  10.425   4.269  0.00  0.00     0.206 HD
ENDBRANCH  30  31
ENDBRANCH   1  30
TORSDOF 5
ENDMDL
MODEL 4
REMARK VINA RESULT:      -7.6      3.383      6.000
REMARK  5 active torsions:
REMARK  status: ('A' for Active; 'I' for Inactive)
REMARK    1  A    between atoms: O_1  and  Hg_2 
REMARK    2  A    between atoms: Hg_2  and  C_3 
REMARK    3  A    between atoms: C_11  and  C_12 
REMARK    4  A    between atoms: C_17  and  C_18 
REMARK    5  A    between atoms: C_18  and  O_20 
ROOT
HETATM    1  C   UNK N   1      28.095  13.277   4.752  0.00  0.00     0.025 A 
HETATM    2  C   UNK N   1      26.758  13.497   4.439  0.00  0.00     0.132 A 
HETATM    3  O   UNK N   1      25.997  12.449   4.065  0.00  0.00    -0.190 OA
HETATM    4 Na   UNK N   1      24.010  12.437   3.710  0.00  0.00     0.000 Na
HETATM    5  C   UNK N   1      26.232  14.791   4.533  0.00  0.00     0.048 A 
HETATM    6 Br   UNK N   1      24.409  15.173   4.115  0.00  0.00    -0.048 Br
HETATM    7  C   UNK N   1      27.049  15.837   4.963  0.00  0.00     0.037 A 
HETATM    8  C   UNK N   1      28.393  15.643   5.330  0.00  0.00     0.012 A 
HETATM    9  C   UNK N   1      29.220  16.714   5.861  0.00  0.00     0.001 A 
HETATM   10  C   UNK N   1      30.538  16.329   6.249  0.00  0.00     0.011 A 
HETATM   11  C   UNK N   1      31.433  17.162   6.923  0.00  0.00     0.038 A 
HETATM   12  C   UNK N   1      32.727  16.743   7.248  0.00  0.00     0.061 A 
HETATM   13 Br   UNK N   1      33.905  17.981   8.107  0.00  0.00    -0.047 Br
HETATM   14  C   UNK N   1      33.160  15.447   6.932  0.00  0.00     0.192 A 
HETATM   15  O   UNK N   1      34.293  15.093   7.201  0.00  0.00    -0.287 OA
HETATM   16  C   UNK N   1      32.288  14.548   6.324  0.00  0.00     0.094 A 
HETATM   17  C   UNK N   1      30.993  14.934   5.994  0.00  0.00     0.091 A 
HETATM   18  O   UNK N   1      30.165  14.038   5.500  0.00  0.00    -0.308 OA
HETATM   19  C   UNK N   1      28.917  14.322   5.193  0.00  0.00     0.095 A 
ENDROOT
BRANCH   9  20
HETATM   20  C   UNK N   1      28.628  18.139   6.085  0.00  0.00    -0.008 A 
HETATM   21  C   UNK N   1      28.422  18.900   4.914  0.00  0.00     0.013 A 
HETATM   22  C   UNK N   1      27.846  20.163   4.902  0.00  0.00     0.001 A 
HETATM   23  C   UNK N   1      27.401  20.722   6.080  0.00  0.00     0.001 A 
HETATM   24  C   UNK N   1      27.575  20.032   7.269  0.00  0.00     0.018 A 
HETATM   25  C   UNK N   1      28.198  18.768   7.328  0.00  0.00     0.053 A 
BRANCH  25  26
HETATM   26  C   UNK N   1      28.393  18.281   8.722  0.00  0.00     0.323 C 
HETATM   27  O   UNK N   1      27.572  17.516   9.209  0.00  0.00    -0.257 OA
BRANCH  26  28
HETATM   28  O   UNK N   1      29.369  18.766   9.514  0.00  0.00    -0.144 OA
HETATM   29 Na   UNK N   1      29.891  17.998  11.284  0.00  0.00     0.000 Na
ENDBRANCH  26  28
ENDBRANCH  25  26
ENDBRANCH   9  20
BRANCH   1  30
HETATM   30 Hg   UNK N   1      28.833  11.351   4.622  0.00  0.00     0.243 Hg
BRANCH  30  31
HETATM   31  O   UNK N   1      29.495   9.479   4.607  0.00  0.00    -0.406 OA
HETATM   32  H   UNK N   1      30.250   9.235   4.050  0.00  0.00     0.206 HD
ENDBRANCH  30  31
ENDBRANCH   1  30
TORSDOF 5
ENDMDL
MODEL 5
REMARK VINA RESULT:      -7.5      1.478      1.655
REMARK  5 active torsions:
REMARK  status: ('A' for Active; 'I' for Inactive)
REMARK    1  A    between atoms: O_1  and  Hg_2 
REMARK    2  A    between atoms: Hg_2  and  C_3 
REMARK    3  A    between atoms: C_11  and  C_12 
REMARK    4  A    between atoms: C_17  and  C_18 
REMARK    5  A    between atoms: C_18  and  O_20 
ROOT
HETATM    1  C   UNK N   1      29.022  17.129   5.889  0.00  0.00     0.025 A 
HETATM    2  C   UNK N   1      28.793  17.814   7.078  0.00  0.00     0.132 A 
HETATM    3  O   UNK N   1      27.638  18.493   7.226  0.00  0.00    -0.190 OA
HETATM    4 Na   UNK N   1      26.969  19.435   8.881  0.00  0.00     0.000 Na
HETATM    5  C   UNK N   1      29.756  17.771   8.093  0.00  0.00     0.048 A 
HETATM    6 Br   UNK N   1      29.517  18.687   9.751  0.00  0.00    -0.048 Br
HETATM    7  C   UNK N   1      30.918  17.021   7.910  0.00  0.00     0.037 A 
HETATM    8  C   UNK N   1      31.161  16.281   6.739  0.00  0.00     0.012 A 
HETATM    9  C   UNK N   1      32.330  15.432   6.581  0.00  0.00     0.001 A 
HETATM   10  C   UNK N   1      32.386  14.696   5.359  0.00  0.00     0.011 A 
HETATM   11  C   UNK N   1      33.335  13.711   5.078  0.00  0.00     0.038 A 
HETATM   12  C   UNK N   1      33.365  13.046   3.849  0.00  0.00     0.061 A 
HETATM   13 Br   UNK N   1      34.747  11.763   3.531  0.00  0.00    -0.047 Br
HETATM   14  C   UNK N   1      32.411  13.328   2.860  0.00  0.00     0.192 A 
HETATM   15  O   UNK N   1      32.451  12.760   1.784  0.00  0.00    -0.287 OA
HETATM   16  C   UNK N   1      31.397  14.250   3.109  0.00  0.00     0.094 A 
HETATM   17  C   UNK N   1      31.339  14.923   4.325  0.00  0.00     0.091 A 
HETATM   18  O   UNK N   1      30.322  15.723   4.565  0.00  0.00    -0.308 OA
HETATM   19  C   UNK N   1      30.183  16.369   5.703  0.00  0.00     0.095 A 
ENDROOT
BRANCH   9  20
HETATM   20  C   UNK N   1      33.361  15.273   7.740  0.00  0.00    -0.008 A 
HETATM   21  C   UNK N   1      33.349  14.021   8.394  0.00  0.00     0.013 A 
HETATM   22  C   UNK N   1      34.232  13.666   9.404  0.00  0.00     0.001 A 
HETATM   23  C   UNK N   1      35.218  14.548   9.790  0.00  0.00     0.001 A 
HETATM   24  C   UNK N   1      35.286  15.796   9.194  0.00  0.00     0.018 A 
HETATM   25  C   UNK N   1      34.378  16.211   8.198  0.00  0.00     0.053 A 
BRANCH  25  26
HETATM   26  C   UNK N   1      34.563  17.635   7.800  0.00  0.00     0.323 C 
HETATM   27  O   UNK N   1      34.507  17.937   6.616  0.00  0.00    -0.257 OA
BRANCH  26  28
HETATM   28  O   UNK N   1      34.929  18.579   8.688  0.00  0.00    -0.144 OA
HETATM   29 Na   UNK N   1      35.688  18.211  10.500  0.00  0.00     0.000 Na
ENDBRANCH  26  28
ENDBRANCH  25  26
ENDBRANCH   9  20
BRANCH   1  30
HETATM   30 Hg   UNK N   1      27.571  17.198   4.419  0.00  0.00     0.243 Hg
BRANCH  30  31
HETATM   31  O   UNK N   1      26.110  17.190   3.074  0.00  0.00    -0.406 OA
HETATM   32  H   UNK N   1      26.317  17.268   2.131  0.00  0.00     0.206 HD
ENDBRANCH  30  31
ENDBRANCH   1  30
TORSDOF 5
ENDMDL
MODEL 6
REMARK VINA RESULT:      -7.2     14.329     16.956
REMARK  5 active torsions:
REMARK  status: ('A' for Active; 'I' for Inactive)
REMARK    1  A    between atoms: O_1  and  Hg_2 
REMARK    2  A    between atoms: Hg_2  and  C_3 
REMARK    3  A    between atoms: C_11  and  C_12 
REMARK    4  A    between atoms: C_17  and  C_18 
REMARK    5  A    between atoms: C_18  and  O_20 
ROOT
HETATM    1  C   UNK N   1      30.847  20.595  -4.796  0.00  0.00     0.025 A 
HETATM    2  C   UNK N   1      30.494  21.644  -3.953  0.00  0.00     0.132 A 
HETATM    3  O   UNK N   1      31.085  21.735  -2.745  0.00  0.00    -0.190 OA
HETATM    4 Na   UNK N   1      30.894  23.219  -1.392  0.00  0.00     0.000 Na
HETATM    5  C   UNK N   1      29.549  22.583  -4.382  0.00  0.00     0.048 A 
HETATM    6 Br   UNK N   1      29.009  24.047  -3.281  0.00  0.00    -0.048 Br
HETATM    7  C   UNK N   1      28.994  22.471  -5.657  0.00  0.00     0.037 A 
HETATM    8  C   UNK N   1      29.361  21.449  -6.551  0.00  0.00     0.012 A 
HETATM    9  C   UNK N   1      28.848  21.380  -7.910  0.00  0.00     0.001 A 
HETATM   10  C   UNK N   1      29.377  20.320  -8.706  0.00  0.00     0.011 A 
HETATM   11  C   UNK N   1      29.140  20.171 -10.073  0.00  0.00     0.038 A 
HETATM   12  C   UNK N   1      29.656  19.093 -10.798  0.00  0.00     0.061 A 
HETATM   13 Br   UNK N   1      29.215  18.935 -12.652  0.00  0.00    -0.047 Br
HETATM   14  C   UNK N   1      30.465  18.133 -10.173  0.00  0.00     0.192 A 
HETATM   15  O   UNK N   1      30.897  17.185 -10.802  0.00  0.00    -0.287 OA
HETATM   16  C   UNK N   1      30.795  18.267  -8.826  0.00  0.00     0.094 A 
HETATM   17  C   UNK N   1      30.301  19.333  -8.081  0.00  0.00     0.091 A 
HETATM   18  O   UNK N   1      30.699  19.482  -6.836  0.00  0.00    -0.308 OA
HETATM   19  C   UNK N   1      30.299  20.482  -6.080  0.00  0.00     0.095 A 
ENDROOT
BRANCH   9  20
HETATM   20  C   UNK N   1      27.883  22.478  -8.453  0.00  0.00    -0.008 A 
HETATM   21  C   UNK N   1      28.510  23.592  -9.053  0.00  0.00     0.013 A 
HETATM   22  C   UNK N   1      27.823  24.639  -9.651  0.00  0.00     0.001 A 
HETATM   23  C   UNK N   1      26.446  24.603  -9.717  0.00  0.00     0.001 A 
HETATM   24  C   UNK N   1      25.765  23.541  -9.145  0.00  0.00     0.018 A 
HETATM   25  C   UNK N   1      26.426  22.483  -8.487  0.00  0.00     0.053 A 
BRANCH  25  26
HETATM   26  C   UNK N   1      25.487  21.527  -7.837  0.00  0.00     0.323 C 
HETATM   27  O   UNK N   1      25.559  20.337  -8.111  0.00  0.00    -0.257 OA
BRANCH  26  28
HETATM   28  O   UNK N   1      24.468  21.947  -7.063  0.00  0.00    -0.144 OA
HETATM   29 Na   UNK N   1      22.560  22.066  -7.649  0.00  0.00     0.000 Na
ENDBRANCH  26  28
ENDBRANCH  25  26
ENDBRANCH   9  20
BRANCH   1  30
HETATM   30 Hg   UNK N   1      32.260  19.238  -4.140  0.00  0.00     0.243 Hg
BRANCH  30  31
HETATM   31  O   UNK N   1      33.654  17.920  -3.625  0.00  0.00    -0.406 OA
HETATM   32  H   UNK N   1      34.034  17.939  -2.733  0.00  0.00     0.206 HD
ENDBRANCH  30  31
ENDBRANCH   1  30
TORSDOF 5
ENDMDL
MODEL 7
REMARK VINA RESULT:      -7.2      7.123     10.537
REMARK  5 active torsions:
REMARK  status: ('A' for Active; 'I' for Inactive)
REMARK    1  A    between atoms: O_1  and  Hg_2 
REMARK    2  A    between atoms: Hg_2  and  C_3 
REMARK    3  A    between atoms: C_11  and  C_12 
REMARK    4  A    between atoms: C_17  and  C_18 
REMARK    5  A    between atoms: C_18  and  O_20 
ROOT
HETATM    1  C   UNK N   1      35.569  12.920  16.508  0.00  0.00     0.025 A 
HETATM    2  C   UNK N   1      35.300  11.776  17.251  0.00  0.00     0.132 A 
HETATM    3  O   UNK N   1      35.182  11.883  18.589  0.00  0.00    -0.190 OA
HETATM    4 Na   UNK N   1      34.644  10.441  19.895  0.00  0.00     0.000 Na
HETATM    5  C   UNK N   1      35.145  10.549  16.595  0.00  0.00     0.048 A 
HETATM    6 Br   UNK N   1      34.780   8.934  17.545  0.00  0.00    -0.048 Br
HETATM    7  C   UNK N   1      35.236  10.495  15.204  0.00  0.00     0.037 A 
HETATM    8  C   UNK N   1      35.462  11.640  14.417  0.00  0.00     0.012 A 
HETATM    9  C   UNK N   1      35.471  11.599  12.964  0.00  0.00     0.001 A 
HETATM   10  C   UNK N   1      35.645  12.863  12.322  0.00  0.00     0.011 A 
HETATM   11  C   UNK N   1      35.527  13.067  10.947  0.00  0.00     0.038 A 
HETATM   12  C   UNK N   1      35.742  14.320  10.367  0.00  0.00     0.061 A 
HETATM   13 Br   UNK N   1      35.629  14.486   8.465  0.00  0.00    -0.047 Br
HETATM   14  C   UNK N   1      36.056  15.432  11.162  0.00  0.00     0.192 A 
HETATM   15  O   UNK N   1      36.261  16.518  10.652  0.00  0.00    -0.287 OA
HETATM   16  C   UNK N   1      36.117  15.305  12.548  0.00  0.00     0.094 A 
HETATM   17  C   UNK N   1      35.902  14.071  13.153  0.00  0.00     0.091 A 
HETATM   18  O   UNK N   1      35.881  13.999  14.467  0.00  0.00    -0.308 OA
HETATM   19  C   UNK N   1      35.653  12.873  15.110  0.00  0.00     0.095 A 
ENDROOT
BRANCH   9  20
HETATM   20  C   UNK N   1      35.187  10.269  12.204  0.00  0.00    -0.008 A 
HETATM   21  C   UNK N   1      33.840  10.058  11.836  0.00  0.00     0.013 A 
HETATM   22  C   UNK N   1      33.399   8.968  11.098  0.00  0.00     0.001 A 
HETATM   23  C   UNK N   1      34.309   8.035  10.648  0.00  0.00     0.001 A 
HETATM   24  C   UNK N   1      35.648   8.177  10.976  0.00  0.00     0.018 A 
HETATM   25  C   UNK N   1      36.127   9.245  11.762  0.00  0.00     0.053 A 
BRANCH  25  26
HETATM   26  C   UNK N   1      37.573   9.119  12.095  0.00  0.00     0.323 C 
HETATM   27  O   UNK N   1      38.371   8.862  11.205  0.00  0.00    -0.257 OA
BRANCH  26  28
HETATM   28  O   UNK N   1      38.013   9.138  13.368  0.00  0.00    -0.144 OA
HETATM   29 Na   UNK N   1      38.395  10.794  14.420  0.00  0.00     0.000 Na
ENDBRANCH  26  28
ENDBRANCH  25  26
ENDBRANCH   9  20
BRANCH   1  30
HETATM   30 Hg   UNK N   1      35.772  14.718  17.506  0.00  0.00     0.243 Hg
BRANCH  30  31
HETATM   31  O   UNK N   1      36.010  16.384  18.561  0.00  0.00    -0.406 OA
HETATM   32  H   UNK N   1      35.685  16.432  19.473  0.00  0.00     0.206 HD
ENDBRANCH  30  31
ENDBRANCH   1  30
TORSDOF 5
ENDMDL
MODEL 8
REMARK VINA RESULT:      -7.1      4.645      6.725
REMARK  5 active torsions:
REMARK  status: ('A' for Active; 'I' for Inactive)
REMARK    1  A    between atoms: O_1  and  Hg_2 
REMARK    2  A    between atoms: Hg_2  and  C_3 
REMARK    3  A    between atoms: C_11  and  C_12 
REMARK    4  A    between atoms: C_17  and  C_18 
REMARK    5  A    between atoms: C_18  and  O_20 
ROOT
HETATM    1  C   UNK N   1      26.312  14.512   2.657  0.00  0.00     0.025 A 
HETATM    2  C   UNK N   1      24.990  14.908   2.833  0.00  0.00     0.132 A 
HETATM    3  O   UNK N   1      24.004  14.091   2.413  0.00  0.00    -0.190 OA
HETATM    4 Na   UNK N   1      22.017  14.325   2.677  0.00  0.00     0.000 Na
HETATM    5  C   UNK N   1      24.716  16.134   3.451  0.00  0.00     0.048 A 
HETATM    6 Br   UNK N   1      22.929  16.750   3.724  0.00  0.00    -0.048 Br
HETATM    7  C   UNK N   1      25.769  16.928   3.905  0.00  0.00     0.037 A 
HETATM    8  C   UNK N   1      27.115  16.538   3.783  0.00  0.00     0.012 A 
HETATM    9  C   UNK N   1      28.208  17.324   4.332  0.00  0.00     0.001 A 
HETATM   10  C   UNK N   1      29.506  16.747   4.182  0.00  0.00     0.011 A 
HETATM   11  C   UNK N   1      30.664  17.257   4.771  0.00  0.00     0.038 A 
HETATM   12  C   UNK N   1      31.916  16.671   4.562  0.00  0.00     0.061 A 
HETATM   13 Br   UNK N   1      33.455  17.484   5.353  0.00  0.00    -0.047 Br
HETATM   14  C   UNK N   1      32.044  15.522   3.769  0.00  0.00     0.192 A 
HETATM   15  O   UNK N   1      33.138  15.026   3.573  0.00  0.00    -0.287 OA
HETATM   16  C   UNK N   1      30.914  14.927   3.212  0.00  0.00     0.094 A 
HETATM   17  C   UNK N   1      29.655  15.484   3.408  0.00  0.00     0.091 A 
HETATM   18  O   UNK N   1      28.597  14.852   2.945  0.00  0.00    -0.308 OA
HETATM   19  C   UNK N   1      27.373  15.302   3.118  0.00  0.00     0.095 A 
ENDROOT
BRANCH   9  20
HETATM   20  C   UNK N   1      27.925  18.634   5.127  0.00  0.00    -0.008 A 
HETATM   21  C   UNK N   1      27.531  19.743   4.345  0.00  0.00     0.013 A 
HETATM   22  C   UNK N   1      27.173  20.976   4.874  0.00  0.00     0.001 A 
HETATM   23  C   UNK N   1      27.154  21.153   6.241  0.00  0.00     0.001 A 
HETATM   24  C   UNK N   1      27.534  20.109   7.068  0.00  0.00     0.018 A 
HETATM   25  C   UNK N   1      27.948  18.857   6.567  0.00  0.00     0.053 A 
BRANCH  25  26
HETATM   26  C   UNK N   1      28.434  17.937   7.633  0.00  0.00     0.323 C 
HETATM   27  O   UNK N   1      29.566  18.079   8.076  0.00  0.00    -0.257 OA
BRANCH  26  28
HETATM   28  O   UNK N   1      27.720  16.865   8.027  0.00  0.00    -0.144 OA
HETATM   29 Na   UNK N   1      25.911  16.377   7.329  0.00  0.00     0.000 Na
ENDBRANCH  26  28
ENDBRANCH  25  26
ENDBRANCH   9  20
BRANCH   1  30
HETATM   30 Hg   UNK N   1      26.681  12.688   1.759  0.00  0.00     0.243 Hg
BRANCH  30  31
HETATM   31  O   UNK N   1      27.113  10.991   0.822  0.00  0.00    -0.406 OA
HETATM   32  H   UNK N   1      26.401  10.396   0.540  0.00  0.00     0.206 HD
ENDBRANCH  30  31
ENDBRANCH   1  30
TORSDOF 5
ENDMDL
MODEL 9
REMARK VINA RESULT:      -7.1     15.967     18.580
REMARK  5 active torsions:
REMARK  status: ('A' for Active; 'I' for Inactive)
REMARK    1  A    between atoms: O_1  and  Hg_2 
REMARK    2  A    between atoms: Hg_2  and  C_3 
REMARK    3  A    between atoms: C_11  and  C_12 
REMARK    4  A    between atoms: C_17  and  C_18 
REMARK    5  A    between atoms: C_18  and  O_20 
ROOT
HETATM    1  C   UNK N   1      28.901  22.008  -6.693  0.00  0.00     0.025 A 
HETATM    2  C   UNK N   1      29.536  22.194  -5.470  0.00  0.00     0.132 A 
HETATM    3  O   UNK N   1      30.401  21.254  -5.036  0.00  0.00    -0.190 OA
HETATM    4 Na   UNK N   1      31.576  21.328  -3.398  0.00  0.00     0.000 Na
HETATM    5  C   UNK N   1      29.276  23.352  -4.727  0.00  0.00     0.048 A 
HETATM    6 Br   UNK N   1      30.105  23.676  -3.038  0.00  0.00    -0.048 Br
HETATM    7  C   UNK N   1      28.405  24.315  -5.236  0.00  0.00     0.037 A 
HETATM    8  C   UNK N   1      27.779  24.181  -6.489  0.00  0.00     0.012 A 
HETATM    9  C   UNK N   1      26.939  25.222  -7.057  0.00  0.00     0.001 A 
HETATM   10  C   UNK N   1      26.441  24.952  -8.368  0.00  0.00     0.011 A 
HETATM   11  C   UNK N   1      25.752  25.879  -9.152  0.00  0.00     0.038 A 
HETATM   12  C   UNK N   1      25.255  25.550 -10.416  0.00  0.00     0.061 A 
HETATM   13 Br   UNK N   1      24.260  26.865 -11.385  0.00  0.00    -0.047 Br
HETATM   14  C   UNK N   1      25.464  24.272 -10.956  0.00  0.00     0.192 A 
HETATM   15  O   UNK N   1      25.014  23.983 -12.050  0.00  0.00    -0.287 OA
HETATM   16  C   UNK N   1      26.206  23.328 -10.251  0.00  0.00     0.094 A 
HETATM   17  C   UNK N   1      26.717  23.629  -8.993  0.00  0.00     0.091 A 
HETATM   18  O   UNK N   1      27.487  22.749  -8.388  0.00  0.00    -0.308 OA
HETATM   19  C   UNK N   1      28.031  22.976  -7.212  0.00  0.00     0.095 A 
ENDROOT
BRANCH   9  20
HETATM   20  C   UNK N   1      26.725  26.570  -6.306  0.00  0.00    -0.008 A 
HETATM   21  C   UNK N   1      25.595  26.619  -5.460  0.00  0.00     0.013 A 
HETATM   22  C   UNK N   1      25.272  27.706  -4.659  0.00  0.00     0.001 A 
HETATM   23  C   UNK N   1      26.102  28.806  -4.634  0.00  0.00     0.001 A 
HETATM   24  C   UNK N   1      27.227  28.828  -5.442  0.00  0.00     0.018 A 
HETATM   25  C   UNK N   1      27.563  27.763  -6.304  0.00  0.00     0.053 A 
BRANCH  25  26
HETATM   26  C   UNK N   1      28.736  28.065  -7.170  0.00  0.00     0.323 C 
HETATM   27  O   UNK N   1      29.714  27.330  -7.130  0.00  0.00    -0.257 OA
BRANCH  26  28
HETATM   28  O   UNK N   1      28.813  29.199  -7.893  0.00  0.00    -0.144 OA
HETATM   29 Na   UNK N   1      28.975  29.276  -9.884  0.00  0.00     0.000 Na
ENDBRANCH  26  28
ENDBRANCH  25  26
ENDBRANCH   9  20
BRANCH   1  30
HETATM   30 Hg   UNK N   1      29.323  20.297  -7.772  0.00  0.00     0.243 Hg
BRANCH  30  31
HETATM   31  O   UNK N   1      29.729  18.592  -8.705  0.00  0.00    -0.406 OA
HETATM   32  H   UNK N   1      29.555  18.504  -9.654  0.00  0.00     0.206 HD
ENDBRANCH  30  31
ENDBRANCH   1  30
TORSDOF 5
ENDMDL
