REMARK  6 active torsions:
REMARK  status: ('A' for Active; 'I' for Inactive)
REMARK    1  A    between atoms: C_6  and  C_2 
REMARK    2  A    between atoms: C_8  and  C_5 
REMARK    3  A    between atoms: O_15  and  C_5 
REMARK    4  A    between atoms: C_7  and  O_16 
REMARK    5  A    between atoms: C_9  and  N_14 
REMARK    6  A    between atoms: O_17  and  C_10 
ROOT
HETATM    1  C   UNK N   1      -0.669  -1.251  -0.065  0.00  0.00     0.110 A 
HETATM    2  C   UNK N   1       0.178  -2.304   0.270  0.00  0.00     0.008 A 
HETATM    3  C   UNK N   1       1.502  -2.017   0.609  0.00  0.00     0.151 A 
HETATM    4  C   UNK N   1       1.091   0.303   0.282  0.00  0.00     0.330 A 
HETATM    5  N   UNK N   1       1.927  -0.731   0.621  0.00  0.00    -0.288 N 
ATOM      6  HN  UNK N   1       2.890  -0.527   0.887  1.00  0.00     0.172 HD
HETATM    7  N   UNK N   1      -0.227   0.039  -0.081  0.00  0.00    -0.282 N 
HETATM    8  O   UNK N   1       1.528   1.437   0.298  0.00  0.00    -0.246 OA
ENDROOT
BRANCH   7   9
HETATM    9  C   UNK N   1      -1.193   1.055  -0.568  0.00  0.00     0.235 C 
HETATM   10  C   UNK N   1      -0.636   2.464  -0.807  0.00  0.00     0.088 C 
HETATM   11  C   UNK N   1      -1.527   3.316   0.040  0.00  0.00     0.153 C 
HETATM   12  C   UNK N   1      -2.784   2.478   0.120  0.00  0.00     0.176 C 
HETATM   13  O   UNK N   1      -2.321   1.156   0.290  0.00  0.00    -0.356 OA
BRANCH  11  14
HETATM   14  O   UNK N   1      -1.741   4.580  -0.515  0.00  0.00    -0.393 OA
HETATM   15  H   UNK N   1      -1.055   5.147  -0.901  0.00  0.00     0.210 HD
ENDBRANCH  11  14
BRANCH  12  16
HETATM   16  C   UNK N   1      -3.642   2.577  -1.152  0.00  0.00     0.198 C 
BRANCH  16  17
HETATM   17  O   UNK N   1      -4.788   1.791  -1.027  0.00  0.00    -0.398 OA
HETATM   18  H   UNK N   1      -5.660   2.208  -0.940  0.00  0.00     0.209 HD
ENDBRANCH  16  17
ENDBRANCH  12  16
ENDBRANCH   7   9
BRANCH   2  19
HETATM   19  C   UNK N   1      -0.346  -3.704   0.241  0.00  0.00     0.040 C 
HETATM   20  C   UNK N   1       0.292  -4.492  -0.889  0.00  0.00     0.010 C 
ENDBRANCH   2  19
BRANCH   3  21
HETATM   21  O   UNK N   1       2.361  -3.005   0.922  0.00  0.00    -0.346 OA
HETATM   22  H   UNK N   1       2.064  -3.866   1.140  0.00  0.00     0.219 HD
ENDBRANCH   3  21
TORSDOF 6
