REMARK  21 active torsions:
REMARK  status: ('A' for Active; 'I' for Inactive)
REMARK    1  A    between atoms: C_3  and  C_2 
REMARK    2  A    between atoms: C_4  and  C_3 
REMARK    3  A    between atoms: C_5  and  C_4 
REMARK    4  A    between atoms: C_6  and  C_5 
REMARK    5  A    between atoms: C_7  and  C_6 
REMARK    6  A    between atoms: C_8  and  C_7 
REMARK    7  A    between atoms: C_9  and  C_8 
REMARK    8  A    between atoms: C_11  and  C_10 
REMARK    9  A    between atoms: C_12  and  C_11 
REMARK   10  A    between atoms: C_13  and  C_12 
REMARK   11  A    between atoms: C_14  and  C_13 
REMARK   12  A    between atoms: C_15  and  C_14 
REMARK   13  A    between atoms: C_16  and  C_15 
REMARK   14  A    between atoms: C_17  and  C_16 
REMARK   15  A    between atoms: C_21  and  C_17 
REMARK   16  A    between atoms: C_20  and  C_18 
REMARK   17  A    between atoms: O_22  and  C_18 
REMARK   18  A    between atoms: C_20  and  C_19 
REMARK   19  A    between atoms: O_25  and  C_19 
REMARK   20  A    between atoms: O_23  and  C_20 
REMARK   21  A    between atoms: O_25  and  C_21 
ROOT
HETATM    1  C   UNK N   1       5.392  -1.347   0.686  0.00  0.00     0.000 C 
ENDROOT
BRANCH   1   2
HETATM    2  C   UNK N   1       4.720  -2.257  -0.320  0.00  0.00     0.000 C 
BRANCH   2   3
HETATM    3  C   UNK N   1       4.145  -3.468   0.386  0.00  0.00     0.004 C 
BRANCH   3   4
HETATM    4  C   UNK N   1       3.267  -4.235  -0.588  0.00  0.00     0.027 C 
BRANCH   4   5
HETATM    5  C   UNK N   1       1.844  -4.298  -0.110  0.00  0.00    -0.031 C 
HETATM    6  C   UNK N   1       1.065  -3.212   0.020  0.00  0.00    -0.031 C 
BRANCH   6   7
HETATM    7  C   UNK N   1       1.562  -1.831  -0.297  0.00  0.00     0.027 C 
BRANCH   7   8
HETATM    8  C   UNK N   1       0.492  -0.799  -0.008  0.00  0.00     0.004 C 
BRANCH   8   9
HETATM    9  C   UNK N   1       1.060   0.597  -0.146  0.00  0.00     0.000 C 
BRANCH   9  10
HETATM   10  C   UNK N   1      -0.057   1.584   0.113  0.00  0.00     0.000 C 
BRANCH  10  11
HETATM   11  C   UNK N   1       0.433   3.006  -0.047  0.00  0.00     0.000 C 
BRANCH  11  12
HETATM   12  C   UNK N   1      -0.761   3.930   0.072  0.00  0.00    -0.000 C 
BRANCH  12  13
HETATM   13  C   UNK N   1      -0.324   5.371  -0.061  0.00  0.00    -0.005 C 
HETATM   14  C   UNK N   1      -1.545   6.264   0.005  0.00  0.00     0.005 C 
ENDBRANCH  12  13
ENDBRANCH  11  12
ENDBRANCH  10  11
ENDBRANCH   9  10
ENDBRANCH   8   9
ENDBRANCH   7   8
ENDBRANCH   6   7
ENDBRANCH   4   5
ENDBRANCH   3   4
ENDBRANCH   2   3
ENDBRANCH   1   2
BRANCH   1  15
HETATM   15  C   UNK N   1       6.031  -0.165  -0.029  0.00  0.00     0.000 C 
BRANCH  15  16
HETATM   16  C   UNK N   1       7.383  -0.551  -0.606  0.00  0.00     0.010 C 
BRANCH  16  17
HETATM   17  C   UNK N   1       8.367  -0.775   0.529  0.00  0.00     0.111 C 
BRANCH  17  18
HETATM   18  C   UNK N   1       9.353  -1.839   0.172  0.00  0.00     0.258 C 
HETATM   19  O   UNK N   1       8.966  -2.957  -0.112  0.00  0.00    -0.265 OA
BRANCH  18  20
HETATM   20  O   UNK N   1      10.675  -1.546   0.223  0.00  0.00    -0.319 OA
BRANCH  20  21
HETATM   21  C   UNK N   1      11.648  -2.464  -0.102  0.00  0.00     0.212 C 
BRANCH  21  22
HETATM   22  C   UNK N   1      13.013  -1.893   0.237  0.00  0.00     0.166 C 
BRANCH  22  23
HETATM   23  C   UNK N   1      14.092  -2.852  -0.230  0.00  0.00     0.198 C 
BRANCH  23  24
HETATM   24  O   UNK N   1      15.349  -2.350   0.107  0.00  0.00    -0.398 OA
HETATM   25  H   UNK N   1      16.088  -2.933   0.341  0.00  0.00     0.209 HD
ENDBRANCH  23  24
ENDBRANCH  22  23
BRANCH  22  26
HETATM   26  O   UNK N   1      13.179  -0.657  -0.390  0.00  0.00    -0.391 OA
HETATM   27  H   UNK N   1      13.980  -0.327  -0.826  0.00  0.00     0.210 HD
ENDBRANCH  22  26
ENDBRANCH  21  22
ENDBRANCH  20  21
ENDBRANCH  18  20
ENDBRANCH  17  18
ENDBRANCH  16  17
ENDBRANCH  15  16
ENDBRANCH   1  15
TORSDOF 21
