REMARK  5 active torsions:
REMARK  status: ('A' for Active; 'I' for Inactive)
REMARK    1  A    between atoms: N_3  and  C_15 
REMARK    2  A    between atoms: C_4  and  C_5 
REMARK    3  A    between atoms: C_4  and  C_6 
REMARK    4  A    between atoms: C_4  and  C_9 
REMARK    5  A    between atoms: C_9  and  C_15 
ROOT
HETATM    1  C   UNK N   1       4.515  -3.567  -0.366  0.00  0.00     0.070 C 
ENDROOT
BRANCH   1   2
HETATM    2  C   UNK N   1       3.212  -4.339  -0.201  0.00  0.00    -0.048 A 
HETATM    3  C   UNK N   1       1.997  -3.669  -0.429  0.00  0.00     0.009 A 
HETATM    4  C   UNK N   1       0.777  -4.342  -0.309  0.00  0.00     0.024 A 
HETATM    5  C   UNK N   1       0.757  -5.697   0.028  0.00  0.00     0.034 A 
HETATM    6 Cl   UNK N   1      -0.768  -6.545   0.165  0.00  0.00    -0.084 Cl
HETATM    7  C   UNK N   1       1.954  -6.377   0.251  0.00  0.00     0.024 A 
HETATM    8  C   UNK N   1       3.172  -5.702   0.139  0.00  0.00     0.009 A 
ENDBRANCH   1   2
BRANCH   1   9
HETATM    9  C   UNK N   1       5.839  -4.305  -0.179  0.00  0.00     0.017 A 
HETATM   10  C   UNK N   1       7.045  -3.623  -0.403  0.00  0.00     0.025 A 
HETATM   11  C   UNK N   1       8.260  -4.287  -0.234  0.00  0.00     0.003 A 
HETATM   12  C   UNK N   1       8.269  -5.628   0.144  0.00  0.00     0.017 A 
HETATM   13  C   UNK N   1       7.057  -6.285   0.352  0.00  0.00     0.088 A 
HETATM   14  N   UNK N   1       5.882  -5.617   0.192  0.00  0.00    -0.369 N 
ATOM     15  HN  UNK N   1       5.006  -6.113   0.353  1.00  0.00     0.165 HD
ENDBRANCH   1   9
BRANCH   1  16
HETATM   16  C   UNK N   1       4.482  -2.289   0.475  0.00  0.00     0.046 C 
BRANCH  16  17
HETATM   17  C   UNK N   1       5.214  -1.182  -0.274  0.00  0.00     0.272 C 
BRANCH  17  18
HETATM   18  N   UNK N   1       5.189   0.060   0.478  0.00  0.00     0.080 N 
HETATM   19  C   UNK N   1       4.035   0.818   0.028  0.00  0.00     0.309 C 
HETATM   20  C   UNK N   1       6.364   0.811   0.074  0.00  0.00     0.309 C 
ENDBRANCH  17  18
ENDBRANCH  16  17
ENDBRANCH   1  16
TORSDOF 5
