MODEL 1
REMARK VINA RESULT:      -5.7      0.000      0.000
REMARK  5 active torsions:
REMARK  status: ('A' for Active; 'I' for Inactive)
REMARK    1  A    between atoms: N_3  and  C_15 
REMARK    2  A    between atoms: C_4  and  C_5 
REMARK    3  A    between atoms: C_4  and  C_6 
REMARK    4  A    between atoms: C_4  and  C_9 
REMARK    5  A    between atoms: C_9  and  C_15 
ROOT
HETATM    1  C   UNK N   1      32.337  16.988   8.002  0.00  0.00     0.070 C 
ENDROOT
BRANCH   1   2
HETATM    2  C   UNK N   1      32.671  16.485   6.603  0.00  0.00    -0.048 A 
HETATM    3  C   UNK N   1      32.884  17.427   5.580  0.00  0.00     0.009 A 
HETATM    4  C   UNK N   1      33.212  17.013   4.285  0.00  0.00     0.024 A 
HETATM    5  C   UNK N   1      33.345  15.652   4.000  0.00  0.00     0.034 A 
HETATM    6 Cl   UNK N   1      33.770  15.132   2.384  0.00  0.00    -0.084 Cl
HETATM    7  C   UNK N   1      33.143  14.707   5.005  0.00  0.00     0.024 A 
HETATM    8  C   UNK N   1      32.807  15.121   6.296  0.00  0.00     0.009 A 
ENDBRANCH   1   2
BRANCH   1   9
HETATM    9  C   UNK N   1      30.908  17.435   8.304  0.00  0.00     0.017 A 
HETATM   10  C   UNK N   1      29.889  17.157   7.379  0.00  0.00     0.025 A 
HETATM   11  C   UNK N   1      28.581  17.560   7.645  0.00  0.00     0.003 A 
HETATM   12  C   UNK N   1      28.294  18.248   8.822  0.00  0.00     0.017 A 
HETATM   13  C   UNK N   1      29.326  18.520   9.720  0.00  0.00     0.088 A 
HETATM   14  N   UNK N   1      30.595  18.109   9.447  0.00  0.00    -0.369 N 
ATOM     15  HN  UNK N   1      31.335  18.313  10.118  1.00  0.00     0.165 HD
ENDBRANCH   1   9
BRANCH   1  16
HETATM   16  C   UNK N   1      33.343  18.057   8.433  0.00  0.00     0.046 C 
BRANCH  16  17
HETATM   17  C   UNK N   1      34.695  17.397   8.677  0.00  0.00     0.272 C 
BRANCH  17  18
HETATM   18  N   UNK N   1      34.574  16.294   9.614  0.00  0.00     0.080 N 
HETATM   19  C   UNK N   1      35.298  16.665  10.817  0.00  0.00     0.309 C 
HETATM   20  C   UNK N   1      35.288  15.174   9.027  0.00  0.00     0.309 C 
ENDBRANCH  17  18
ENDBRANCH  16  17
ENDBRANCH   1  16
TORSDOF 5
ENDMDL
MODEL 2
REMARK VINA RESULT:      -5.7      2.759      4.491
REMARK  5 active torsions:
REMARK  status: ('A' for Active; 'I' for Inactive)
REMARK    1  A    between atoms: N_3  and  C_15 
REMARK    2  A    between atoms: C_4  and  C_5 
REMARK    3  A    between atoms: C_4  and  C_6 
REMARK    4  A    between atoms: C_4  and  C_9 
REMARK    5  A    between atoms: C_9  and  C_15 
ROOT
HETATM    1  C   UNK N   1      32.363  17.342   7.823  0.00  0.00     0.070 C 
ENDROOT
BRANCH   1   2
HETATM    2  C   UNK N   1      33.281  16.632   8.810  0.00  0.00    -0.048 A 
HETATM    3  C   UNK N   1      34.443  17.293   9.247  0.00  0.00     0.009 A 
HETATM    4  C   UNK N   1      35.305  16.689  10.167  0.00  0.00     0.024 A 
HETATM    5  C   UNK N   1      35.009  15.421  10.674  0.00  0.00     0.034 A 
HETATM    6 Cl   UNK N   1      36.079  14.669  11.837  0.00  0.00    -0.084 Cl
HETATM    7  C   UNK N   1      33.857  14.756  10.256  0.00  0.00     0.024 A 
HETATM    8  C   UNK N   1      33.001  15.357   9.330  0.00  0.00     0.009 A 
ENDBRANCH   1   2
BRANCH   1   9
HETATM    9  C   UNK N   1      30.915  17.612   8.225  0.00  0.00     0.017 A 
HETATM   10  C   UNK N   1      29.877  17.200   7.375  0.00  0.00     0.025 A 
HETATM   11  C   UNK N   1      28.550  17.440   7.732  0.00  0.00     0.003 A 
HETATM   12  C   UNK N   1      28.263  18.099   8.926  0.00  0.00     0.017 A 
HETATM   13  C   UNK N   1      29.313  18.506   9.748  0.00  0.00     0.088 A 
HETATM   14  N   UNK N   1      30.601  18.253   9.387  0.00  0.00    -0.369 N 
ATOM     15  HN  UNK N   1      31.355  18.554  10.003  1.00  0.00     0.165 HD
ENDBRANCH   1   9
BRANCH   1  16
HETATM   16  C   UNK N   1      32.430  16.659   6.455  0.00  0.00     0.046 C 
BRANCH  16  17
HETATM   17  C   UNK N   1      33.450  17.385   5.586  0.00  0.00     0.272 C 
BRANCH  17  18
HETATM   18  N   UNK N   1      33.030  17.405   4.197  0.00  0.00     0.080 N 
HETATM   19  C   UNK N   1      31.589  17.591   4.180  0.00  0.00     0.309 C 
HETATM   20  C   UNK N   1      33.285  16.077   3.669  0.00  0.00     0.309 C 
ENDBRANCH  17  18
ENDBRANCH  16  17
ENDBRANCH   1  16
TORSDOF 5
ENDMDL
MODEL 3
REMARK VINA RESULT:      -5.6     15.132     17.194
REMARK  5 active torsions:
REMARK  status: ('A' for Active; 'I' for Inactive)
REMARK    1  A    between atoms: N_3  and  C_15 
REMARK    2  A    between atoms: C_4  and  C_5 
REMARK    3  A    between atoms: C_4  and  C_6 
REMARK    4  A    between atoms: C_4  and  C_9 
REMARK    5  A    between atoms: C_9  and  C_15 
ROOT
HETATM    1  C   UNK N   1      26.053  25.890  -5.568  0.00  0.00     0.070 C 
ENDROOT
BRANCH   1   2
HETATM    2  C   UNK N   1      27.056  25.132  -4.708  0.00  0.00    -0.048 A 
HETATM    3  C   UNK N   1      28.421  25.214  -5.033  0.00  0.00     0.009 A 
HETATM    4  C   UNK N   1      29.380  24.550  -4.261  0.00  0.00     0.024 A 
HETATM    5  C   UNK N   1      28.987  23.807  -3.146  0.00  0.00     0.034 A 
HETATM    6 Cl   UNK N   1      30.186  22.987  -2.170  0.00  0.00    -0.084 Cl
HETATM    7  C   UNK N   1      27.637  23.721  -2.807  0.00  0.00     0.024 A 
HETATM    8  C   UNK N   1      26.679  24.377  -3.584  0.00  0.00     0.009 A 
ENDBRANCH   1   2
BRANCH   1   9
HETATM    9  C   UNK N   1      25.824  25.438  -7.008  0.00  0.00     0.017 A 
HETATM   10  C   UNK N   1      25.974  26.364  -8.053  0.00  0.00     0.025 A 
HETATM   11  C   UNK N   1      25.769  25.961  -9.372  0.00  0.00     0.003 A 
HETATM   12  C   UNK N   1      25.403  24.644  -9.645  0.00  0.00     0.017 A 
HETATM   13  C   UNK N   1      25.252  23.747  -8.589  0.00  0.00     0.088 A 
HETATM   14  N   UNK N   1      25.467  24.156  -7.309  0.00  0.00    -0.369 N 
ATOM     15  HN  UNK N   1      25.357  23.484  -6.550  1.00  0.00     0.165 HD
ENDBRANCH   1   9
BRANCH   1  16
HETATM   16  C   UNK N   1      26.336  27.393  -5.509  0.00  0.00     0.046 C 
BRANCH  16  17
HETATM   17  C   UNK N   1      25.505  28.012  -4.392  0.00  0.00     0.272 C 
BRANCH  17  18
HETATM   18  N   UNK N   1      26.243  29.063  -3.714  0.00  0.00     0.080 N 
HETATM   19  C   UNK N   1      26.985  29.796  -4.725  0.00  0.00     0.309 C 
HETATM   20  C   UNK N   1      27.226  28.400  -2.875  0.00  0.00     0.309 C 
ENDBRANCH  17  18
ENDBRANCH  16  17
ENDBRANCH   1  16
TORSDOF 5
ENDMDL
MODEL 4
REMARK VINA RESULT:      -5.6      4.002      6.039
REMARK  5 active torsions:
REMARK  status: ('A' for Active; 'I' for Inactive)
REMARK    1  A    between atoms: N_3  and  C_15 
REMARK    2  A    between atoms: C_4  and  C_5 
REMARK    3  A    between atoms: C_4  and  C_6 
REMARK    4  A    between atoms: C_4  and  C_9 
REMARK    5  A    between atoms: C_9  and  C_15 
ROOT
HETATM    1  C   UNK N   1      29.017  17.438   5.444  0.00  0.00     0.070 C 
ENDROOT
BRANCH   1   2
HETATM    2  C   UNK N   1      27.947  18.252   4.727  0.00  0.00    -0.048 A 
HETATM    3  C   UNK N   1      26.829  17.582   4.201  0.00  0.00     0.009 A 
HETATM    4  C   UNK N   1      25.812  18.291   3.552  0.00  0.00     0.024 A 
HETATM    5  C   UNK N   1      25.895  19.680   3.434  0.00  0.00     0.034 A 
HETATM    6 Cl   UNK N   1      24.617  20.570   2.635  0.00  0.00    -0.084 Cl
HETATM    7  C   UNK N   1      26.995  20.359   3.957  0.00  0.00     0.024 A 
HETATM    8  C   UNK N   1      28.014  19.650   4.597  0.00  0.00     0.009 A 
ENDBRANCH   1   2
BRANCH   1   9
HETATM    9  C   UNK N   1      29.185  17.605   6.952  0.00  0.00     0.017 A 
HETATM   10  C   UNK N   1      28.051  17.815   7.752  0.00  0.00     0.025 A 
HETATM   11  C   UNK N   1      28.193  17.968   9.132  0.00  0.00     0.003 A 
HETATM   12  C   UNK N   1      29.461  17.923   9.706  0.00  0.00     0.017 A 
HETATM   13  C   UNK N   1      30.572  17.722   8.888  0.00  0.00     0.088 A 
HETATM   14  N   UNK N   1      30.412  17.565   7.546  0.00  0.00    -0.369 N 
ATOM     15  HN  UNK N   1      31.236  17.414   6.965  1.00  0.00     0.165 HD
ENDBRANCH   1   9
BRANCH   1  16
HETATM   16  C   UNK N   1      30.361  17.586   4.728  0.00  0.00     0.046 C 
BRANCH  16  17
HETATM   17  C   UNK N   1      30.442  16.558   3.605  0.00  0.00     0.272 C 
BRANCH  17  18
HETATM   18  N   UNK N   1      31.771  16.532   3.019  0.00  0.00     0.080 N 
HETATM   19  C   UNK N   1      32.285  15.182   3.167  0.00  0.00     0.309 C 
HETATM   20  C   UNK N   1      32.604  17.388   3.844  0.00  0.00     0.309 C 
ENDBRANCH  17  18
ENDBRANCH  16  17
ENDBRANCH   1  16
TORSDOF 5
ENDMDL
MODEL 5
REMARK VINA RESULT:      -5.4     14.214     15.874
REMARK  5 active torsions:
REMARK  status: ('A' for Active; 'I' for Inactive)
REMARK    1  A    between atoms: N_3  and  C_15 
REMARK    2  A    between atoms: C_4  and  C_5 
REMARK    3  A    between atoms: C_4  and  C_6 
REMARK    4  A    between atoms: C_4  and  C_9 
REMARK    5  A    between atoms: C_9  and  C_15 
ROOT
HETATM    1  C   UNK N   1      26.917  24.061  -4.935  0.00  0.00     0.070 C 
ENDROOT
BRANCH   1   2
HETATM    2  C   UNK N   1      26.592  23.316  -6.224  0.00  0.00    -0.048 A 
HETATM    3  C   UNK N   1      27.529  23.342  -7.272  0.00  0.00     0.009 A 
HETATM    4  C   UNK N   1      27.284  22.657  -8.467  0.00  0.00     0.024 A 
HETATM    5  C   UNK N   1      26.104  21.927  -8.623  0.00  0.00     0.034 A 
HETATM    6 Cl   UNK N   1      25.800  21.058 -10.111  0.00  0.00    -0.084 Cl
HETATM    7  C   UNK N   1      25.167  21.887  -7.590  0.00  0.00     0.024 A 
HETATM    8  C   UNK N   1      25.410  22.578  -6.401  0.00  0.00     0.009 A 
ENDBRANCH   1   2
BRANCH   1   9
HETATM    9  C   UNK N   1      26.331  25.454  -4.720  0.00  0.00     0.017 A 
HETATM   10  C   UNK N   1      25.521  26.022  -5.715  0.00  0.00     0.025 A 
HETATM   11  C   UNK N   1      24.979  27.294  -5.529  0.00  0.00     0.003 A 
HETATM   12  C   UNK N   1      25.257  27.999  -4.360  0.00  0.00     0.017 A 
HETATM   13  C   UNK N   1      26.072  27.417  -3.390  0.00  0.00     0.088 A 
HETATM   14  N   UNK N   1      26.582  26.170  -3.586  0.00  0.00    -0.369 N 
ATOM     15  HN  UNK N   1      27.172  25.759  -2.864  1.00  0.00     0.165 HD
ENDBRANCH   1   9
BRANCH   1  16
HETATM   16  C   UNK N   1      28.428  24.063  -4.692  0.00  0.00     0.046 C 
BRANCH  16  17
HETATM   17  C   UNK N   1      28.710  23.483  -3.312  0.00  0.00     0.272 C 
BRANCH  17  18
HETATM   18  N   UNK N   1      29.754  22.475  -3.374  0.00  0.00     0.080 N 
HETATM   19  C   UNK N   1      30.884  22.971  -2.609  0.00  0.00     0.309 C 
HETATM   20  C   UNK N   1      30.184  22.412  -4.759  0.00  0.00     0.309 C 
ENDBRANCH  17  18
ENDBRANCH  16  17
ENDBRANCH   1  16
TORSDOF 5
ENDMDL
MODEL 6
REMARK VINA RESULT:      -5.4      3.677      5.596
REMARK  5 active torsions:
REMARK  status: ('A' for Active; 'I' for Inactive)
REMARK    1  A    between atoms: N_3  and  C_15 
REMARK    2  A    between atoms: C_4  and  C_5 
REMARK    3  A    between atoms: C_4  and  C_6 
REMARK    4  A    between atoms: C_4  and  C_9 
REMARK    5  A    between atoms: C_9  and  C_15 
ROOT
HETATM    1  C   UNK N   1      29.282  17.197   5.450  0.00  0.00     0.070 C 
ENDROOT
BRANCH   1   2
HETATM    2  C   UNK N   1      30.599  17.337   6.204  0.00  0.00    -0.048 A 
HETATM    3  C   UNK N   1      31.800  17.324   5.472  0.00  0.00     0.009 A 
HETATM    4  C   UNK N   1      33.031  17.469   6.118  0.00  0.00     0.024 A 
HETATM    5  C   UNK N   1      33.077  17.643   7.503  0.00  0.00     0.034 A 
HETATM    6 Cl   UNK N   1      34.616  17.840   8.313  0.00  0.00    -0.084 Cl
HETATM    7  C   UNK N   1      31.894  17.665   8.242  0.00  0.00     0.024 A 
HETATM    8  C   UNK N   1      30.665  17.511   7.596  0.00  0.00     0.009 A 
ENDBRANCH   1   2
BRANCH   1   9
HETATM    9  C   UNK N   1      28.411  18.435   5.249  0.00  0.00     0.017 A 
HETATM   10  C   UNK N   1      27.942  19.136   6.370  0.00  0.00     0.025 A 
HETATM   11  C   UNK N   1      27.147  20.269   6.198  0.00  0.00     0.003 A 
HETATM   12  C   UNK N   1      26.812  20.691   4.913  0.00  0.00     0.017 A 
HETATM   13  C   UNK N   1      27.285  19.972   3.816  0.00  0.00     0.088 A 
HETATM   14  N   UNK N   1      28.068  18.875   4.004  0.00  0.00    -0.369 N 
ATOM     15  HN  UNK N   1      28.407  18.364   3.190  1.00  0.00     0.165 HD
ENDBRANCH   1   9
BRANCH   1  16
HETATM   16  C   UNK N   1      28.461  16.044   6.032  0.00  0.00     0.046 C 
BRANCH  16  17
HETATM   17  C   UNK N   1      28.672  14.801   5.176  0.00  0.00     0.272 C 
BRANCH  17  18
HETATM   18  N   UNK N   1      28.943  15.161   3.795  0.00  0.00     0.080 N 
HETATM   19  C   UNK N   1      27.730  14.916   3.036  0.00  0.00     0.309 C 
HETATM   20  C   UNK N   1      29.935  14.218   3.310  0.00  0.00     0.309 C 
ENDBRANCH  17  18
ENDBRANCH  16  17
ENDBRANCH   1  16
TORSDOF 5
ENDMDL
MODEL 7
REMARK VINA RESULT:      -5.3      5.584      9.313
REMARK  5 active torsions:
REMARK  status: ('A' for Active; 'I' for Inactive)
REMARK    1  A    between atoms: N_3  and  C_15 
REMARK    2  A    between atoms: C_4  and  C_5 
REMARK    3  A    between atoms: C_4  and  C_6 
REMARK    4  A    between atoms: C_4  and  C_9 
REMARK    5  A    between atoms: C_9  and  C_15 
ROOT
HETATM    1  C   UNK N   1      35.450  13.330  12.037  0.00  0.00     0.070 C 
ENDROOT
BRANCH   1   2
HETATM    2  C   UNK N   1      35.393  12.999  13.523  0.00  0.00    -0.048 A 
HETATM    3  C   UNK N   1      36.184  13.749  14.412  0.00  0.00     0.009 A 
HETATM    4  C   UNK N   1      36.150  13.495  15.787  0.00  0.00     0.024 A 
HETATM    5  C   UNK N   1      35.314  12.497  16.292  0.00  0.00     0.034 A 
HETATM    6 Cl   UNK N   1      35.258  12.186  18.013  0.00  0.00    -0.084 Cl
HETATM    7  C   UNK N   1      34.518  11.749  15.424  0.00  0.00     0.024 A 
HETATM    8  C   UNK N   1      34.560  11.998  14.050  0.00  0.00     0.009 A 
ENDBRANCH   1   2
BRANCH   1   9
HETATM    9  C   UNK N   1      36.697  12.945  11.243  0.00  0.00     0.017 A 
HETATM   10  C   UNK N   1      36.970  11.590  11.003  0.00  0.00     0.025 A 
HETATM   11  C   UNK N   1      38.105  11.227  10.277  0.00  0.00     0.003 A 
HETATM   12  C   UNK N   1      38.969  12.214   9.806  0.00  0.00     0.017 A 
HETATM   13  C   UNK N   1      38.680  13.553  10.065  0.00  0.00     0.088 A 
HETATM   14  N   UNK N   1      37.562  13.887  10.766  0.00  0.00    -0.369 N 
ATOM     15  HN  UNK N   1      37.364  14.871  10.942  1.00  0.00     0.165 HD
ENDBRANCH   1   9
BRANCH   1  16
HETATM   16  C   UNK N   1      35.092  14.800  11.808  0.00  0.00     0.046 C 
BRANCH  16  17
HETATM   17  C   UNK N   1      34.042  14.890  10.707  0.00  0.00     0.272 C 
BRANCH  17  18
HETATM   18  N   UNK N   1      34.354  15.962   9.778  0.00  0.00     0.080 N 
HETATM   19  C   UNK N   1      34.995  15.362   8.621  0.00  0.00     0.309 C 
HETATM   20  C   UNK N   1      35.354  16.792  10.425  0.00  0.00     0.309 C 
ENDBRANCH  17  18
ENDBRANCH  16  17
ENDBRANCH   1  16
TORSDOF 5
ENDMDL
MODEL 8
REMARK VINA RESULT:      -5.3      4.471      7.222
REMARK  5 active torsions:
REMARK  status: ('A' for Active; 'I' for Inactive)
REMARK    1  A    between atoms: N_3  and  C_15 
REMARK    2  A    between atoms: C_4  and  C_5 
REMARK    3  A    between atoms: C_4  and  C_6 
REMARK    4  A    between atoms: C_4  and  C_9 
REMARK    5  A    between atoms: C_9  and  C_15 
ROOT
HETATM    1  C   UNK N   1      29.463  17.008   4.877  0.00  0.00     0.070 C 
ENDROOT
BRANCH   1   2
HETATM    2  C   UNK N   1      28.654  18.210   5.348  0.00  0.00    -0.048 A 
HETATM    3  C   UNK N   1      28.498  18.420   6.729  0.00  0.00     0.009 A 
HETATM    4  C   UNK N   1      27.780  19.521   7.208  0.00  0.00     0.024 A 
HETATM    5  C   UNK N   1      27.222  20.434   6.311  0.00  0.00     0.034 A 
HETATM    6 Cl   UNK N   1      26.336  21.820   6.908  0.00  0.00    -0.084 Cl
HETATM    7  C   UNK N   1      27.374  20.243   4.938  0.00  0.00     0.024 A 
HETATM    8  C   UNK N   1      28.083  19.139   4.460  0.00  0.00     0.009 A 
ENDBRANCH   1   2
BRANCH   1   9
HETATM    9  C   UNK N   1      30.966  16.977   5.149  0.00  0.00     0.017 A 
HETATM   10  C   UNK N   1      31.838  17.638   4.271  0.00  0.00     0.025 A 
HETATM   11  C   UNK N   1      33.212  17.617   4.511  0.00  0.00     0.003 A 
HETATM   12  C   UNK N   1      33.712  16.928   5.615  0.00  0.00     0.017 A 
HETATM   13  C   UNK N   1      32.824  16.273   6.467  0.00  0.00     0.088 A 
HETATM   14  N   UNK N   1      31.486  16.314   6.222  0.00  0.00    -0.369 N 
ATOM     15  HN  UNK N   1      30.852  15.832   6.859  1.00  0.00     0.165 HD
ENDBRANCH   1   9
BRANCH   1  16
HETATM   16  C   UNK N   1      29.172  16.720   3.403  0.00  0.00     0.046 C 
BRANCH  16  17
HETATM   17  C   UNK N   1      29.094  15.212   3.197  0.00  0.00     0.272 C 
BRANCH  17  18
HETATM   18  N   UNK N   1      28.519  14.892   1.902  0.00  0.00     0.080 N 
HETATM   19  C   UNK N   1      27.077  15.016   2.024  0.00  0.00     0.309 C 
HETATM   20  C   UNK N   1      28.798  13.488   1.662  0.00  0.00     0.309 C 
ENDBRANCH  17  18
ENDBRANCH  16  17
ENDBRANCH   1  16
TORSDOF 5
ENDMDL
MODEL 9
REMARK VINA RESULT:      -5.3      3.945      6.364
REMARK  5 active torsions:
REMARK  status: ('A' for Active; 'I' for Inactive)
REMARK    1  A    between atoms: N_3  and  C_15 
REMARK    2  A    between atoms: C_4  and  C_5 
REMARK    3  A    between atoms: C_4  and  C_6 
REMARK    4  A    between atoms: C_4  and  C_9 
REMARK    5  A    between atoms: C_9  and  C_15 
ROOT
HETATM    1  C   UNK N   1      29.375  17.968   5.419  0.00  0.00     0.070 C 
ENDROOT
BRANCH   1   2
HETATM    2  C   UNK N   1      28.140  18.543   4.737  0.00  0.00    -0.048 A 
HETATM    3  C   UNK N   1      27.989  19.940   4.679  0.00  0.00     0.009 A 
HETATM    4  C   UNK N   1      26.882  20.513   4.046  0.00  0.00     0.024 A 
HETATM    5  C   UNK N   1      25.917  19.696   3.451  0.00  0.00     0.034 A 
HETATM    6 Cl   UNK N   1      24.537  20.412   2.646  0.00  0.00    -0.084 Cl
HETATM    7  C   UNK N   1      26.056  18.309   3.495  0.00  0.00     0.024 A 
HETATM    8  C   UNK N   1      27.158  17.738   4.135  0.00  0.00     0.009 A 
ENDBRANCH   1   2
BRANCH   1   9
HETATM    9  C   UNK N   1      30.385  17.188   4.580  0.00  0.00     0.017 A 
HETATM   10  C   UNK N   1      30.297  15.789   4.521  0.00  0.00     0.025 A 
HETATM   11  C   UNK N   1      31.213  15.066   3.758  0.00  0.00     0.003 A 
HETATM   12  C   UNK N   1      32.220  15.737   3.067  0.00  0.00     0.017 A 
HETATM   13  C   UNK N   1      32.292  17.127   3.149  0.00  0.00     0.088 A 
HETATM   14  N   UNK N   1      31.382  17.815   3.891  0.00  0.00    -0.369 N 
ATOM     15  HN  UNK N   1      31.448  18.832   3.935  1.00  0.00     0.165 HD
ENDBRANCH   1   9
BRANCH   1  16
HETATM   16  C   UNK N   1      28.971  17.172   6.661  0.00  0.00     0.046 C 
BRANCH  16  17
HETATM   17  C   UNK N   1      28.811  18.131   7.835  0.00  0.00     0.272 C 
BRANCH  17  18
HETATM   18  N   UNK N   1      30.055  18.264   8.572  0.00  0.00     0.080 N 
HETATM   19  C   UNK N   1      30.670  16.950   8.630  0.00  0.00     0.309 C 
HETATM   20  C   UNK N   1      29.693  18.616   9.933  0.00  0.00     0.309 C 
ENDBRANCH  17  18
ENDBRANCH  16  17
ENDBRANCH   1  16
TORSDOF 5
ENDMDL
