REMARK  3 active torsions:
REMARK  status: ('A' for Active; 'I' for Inactive)
REMARK    1  A    between atoms: C_2  and  C_9 
REMARK    2  A    between atoms: C_13  and  C_20 
REMARK    3  A    between atoms: Mg_23  and  Mg_23 
ROOT
HETATM    1 Mg   UNK N   1       2.348   2.455  -0.000  0.00  0.00     0.000 Mg
ENDROOT
TORSDOF 3
