MODEL 1
REMARK VINA RESULT:      -5.5      0.000      0.000
REMARK  11 active torsions:
REMARK  status: ('A' for Active; 'I' for Inactive)
REMARK    1  A    between atoms: C_6  and  C_5 
REMARK    2  A    between atoms: C_7  and  C_5 
REMARK    3  A    between atoms: C_8  and  C_6 
REMARK    4  A    between atoms: C_15  and  C_7 
REMARK    5  A    between atoms: C_16  and  C_8 
REMARK    6  A    between atoms: N_25  and  C_15 
REMARK    7  A    between atoms: N_26  and  C_16 
REMARK    8  A    between atoms: O_29  and  C_19 
REMARK    9  A    between atoms: O_30  and  C_20 
REMARK       I    between atoms: N_25  and  C_21 
REMARK   10  A    between atoms: O_29  and  C_21 
REMARK       I    between atoms: N_26  and  C_22 
REMARK   11  A    between atoms: O_30  and  C_22 
ROOT
HETATM    1  C   UNK N   1      27.194  29.441  -3.683  0.00  0.00     0.002 C 
ENDROOT
BRANCH   1   2
HETATM    2  C   UNK N   1      27.451  30.017  -5.079  0.00  0.00     0.002 C 
BRANCH   2   3
HETATM    3  C   UNK N   1      28.450  29.199  -5.887  0.00  0.00     0.020 C 
BRANCH   3   4
HETATM    4  C   UNK N   1      29.477  28.565  -4.955  0.00  0.00     0.127 C 
BRANCH   4   5
HETATM    5  N   UNK N   1      29.921  27.207  -5.250  0.00  0.00    -0.332 N 
HETATM    6  C   UNK N   1      29.232  26.543  -6.327  0.00  0.00     0.155 C 
HETATM    7  C   UNK N   1      30.932  26.536  -4.613  0.00  0.00     0.367 C 
HETATM    8  O   UNK N   1      31.568  27.062  -3.709  0.00  0.00    -0.238 OA
BRANCH   7   9
HETATM    9  O   UNK N   1      31.226  25.264  -5.014  0.00  0.00    -0.260 OA
BRANCH   9  10
HETATM   10  C   UNK N   1      30.895  24.083  -4.432  0.00  0.00     0.096 A 
HETATM   11  C   UNK N   1      30.043  23.990  -3.322  0.00  0.00     0.040 A 
HETATM   12  C   UNK N   1      29.741  22.738  -2.782  0.00  0.00     0.020 A 
HETATM   13  C   UNK N   1      30.291  21.591  -3.359  0.00  0.00     0.090 A 
HETATM   14  N   UNK N   1      31.117  21.696  -4.436  0.00  0.00    -0.368 N 
HETATM   15  C   UNK N   1      31.680  20.496  -5.025  0.00  0.00     0.154 C 
HETATM   16  C   UNK N   1      31.424  22.907  -4.973  0.00  0.00     0.127 A 
ENDBRANCH   9  10
ENDBRANCH   7   9
ENDBRANCH   4   5
ENDBRANCH   3   4
ENDBRANCH   2   3
ENDBRANCH   1   2
BRANCH   1  17
HETATM   17  C   UNK N   1      25.931  28.593  -3.612  0.00  0.00     0.020 C 
BRANCH  17  18
HETATM   18  C   UNK N   1      26.300  27.124  -3.435  0.00  0.00     0.127 C 
BRANCH  18  19
HETATM   19  N   UNK N   1      25.929  26.192  -4.494  0.00  0.00    -0.332 N 
HETATM   20  C   UNK N   1      25.532  26.789  -5.743  0.00  0.00     0.155 C 
HETATM   21  C   UNK N   1      25.942  24.824  -4.403  0.00  0.00     0.367 C 
HETATM   22  O   UNK N   1      26.293  24.265  -3.373  0.00  0.00    -0.238 OA
BRANCH  21  23
HETATM   23  O   UNK N   1      25.557  24.093  -5.490  0.00  0.00    -0.260 OA
BRANCH  23  24
HETATM   24  C   UNK N   1      26.298  23.272  -6.277  0.00  0.00     0.096 A 
HETATM   25  C   UNK N   1      27.686  23.126  -6.138  0.00  0.00     0.040 A 
HETATM   26  C   UNK N   1      28.380  22.254  -6.978  0.00  0.00     0.020 A 
HETATM   27  C   UNK N   1      27.679  21.535  -7.949  0.00  0.00     0.090 A 
HETATM   28  N   UNK N   1      26.332  21.685  -8.074  0.00  0.00    -0.368 N 
HETATM   29  C   UNK N   1      25.618  20.928  -9.084  0.00  0.00     0.154 C 
HETATM   30  C   UNK N   1      25.642  22.532  -7.264  0.00  0.00     0.127 A 
ENDBRANCH  23  24
ENDBRANCH  21  23
ENDBRANCH  18  19
ENDBRANCH  17  18
ENDBRANCH   1  17
TORSDOF 11
ENDMDL
MODEL 2
REMARK VINA RESULT:      -5.4     14.528     18.286
REMARK  11 active torsions:
REMARK  status: ('A' for Active; 'I' for Inactive)
REMARK    1  A    between atoms: C_6  and  C_5 
REMARK    2  A    between atoms: C_7  and  C_5 
REMARK    3  A    between atoms: C_8  and  C_6 
REMARK    4  A    between atoms: C_15  and  C_7 
REMARK    5  A    between atoms: C_16  and  C_8 
REMARK    6  A    between atoms: N_25  and  C_15 
REMARK    7  A    between atoms: N_26  and  C_16 
REMARK    8  A    between atoms: O_29  and  C_19 
REMARK    9  A    between atoms: O_30  and  C_20 
REMARK       I    between atoms: N_25  and  C_21 
REMARK   10  A    between atoms: O_29  and  C_21 
REMARK       I    between atoms: N_26  and  C_22 
REMARK   11  A    between atoms: O_30  and  C_22 
ROOT
HETATM    1  C   UNK N   1      33.454  17.656   6.932  0.00  0.00     0.002 C 
ENDROOT
BRANCH   1   2
HETATM    2  C   UNK N   1      32.013  17.252   7.260  0.00  0.00     0.002 C 
BRANCH   2   3
HETATM    3  C   UNK N   1      31.585  15.961   6.575  0.00  0.00     0.020 C 
BRANCH   3   4
HETATM    4  C   UNK N   1      30.088  15.997   6.287  0.00  0.00     0.127 C 
BRANCH   4   5
HETATM    5  N   UNK N   1      29.547  17.181   5.630  0.00  0.00    -0.332 N 
HETATM    6  C   UNK N   1      29.922  17.358   4.250  0.00  0.00     0.155 C 
HETATM    7  C   UNK N   1      28.712  18.106   6.201  0.00  0.00     0.367 C 
HETATM    8  O   UNK N   1      28.341  17.990   7.361  0.00  0.00    -0.238 OA
BRANCH   7   9
HETATM    9  O   UNK N   1      28.292  19.163   5.444  0.00  0.00    -0.260 OA
BRANCH   9  10
HETATM   10  C   UNK N   1      27.127  19.326   4.767  0.00  0.00     0.096 A 
HETATM   11  C   UNK N   1      26.968  20.260   3.734  0.00  0.00     0.040 A 
HETATM   12  C   UNK N   1      25.739  20.365   3.076  0.00  0.00     0.020 A 
HETATM   13  C   UNK N   1      24.684  19.533   3.458  0.00  0.00     0.090 A 
HETATM   14  N   UNK N   1      24.853  18.632   4.464  0.00  0.00    -0.368 N 
HETATM   15  C   UNK N   1      23.749  17.774   4.848  0.00  0.00     0.154 C 
HETATM   16  C   UNK N   1      26.041  18.518   5.116  0.00  0.00     0.127 A 
ENDBRANCH   9  10
ENDBRANCH   7   9
ENDBRANCH   4   5
ENDBRANCH   3   4
ENDBRANCH   2   3
ENDBRANCH   1   2
BRANCH   1  17
HETATM   17  C   UNK N   1      34.354  17.706   8.160  0.00  0.00     0.020 C 
BRANCH  17  18
HETATM   18  C   UNK N   1      34.906  16.317   8.458  0.00  0.00     0.127 C 
BRANCH  18  19
HETATM   19  N   UNK N   1      34.642  15.742   9.772  0.00  0.00    -0.332 N 
HETATM   20  C   UNK N   1      33.380  15.062   9.916  0.00  0.00     0.155 C 
HETATM   21  C   UNK N   1      35.485  15.782  10.852  0.00  0.00     0.367 C 
HETATM   22  O   UNK N   1      36.578  16.327  10.778  0.00  0.00    -0.238 OA
BRANCH  21  23
HETATM   23  O   UNK N   1      35.082  15.197  12.018  0.00  0.00    -0.260 OA
BRANCH  23  24
HETATM   24  C   UNK N   1      35.717  14.266  12.775  0.00  0.00     0.096 A 
HETATM   25  C   UNK N   1      36.361  14.571  13.982  0.00  0.00     0.040 A 
HETATM   26  C   UNK N   1      36.986  13.558  14.712  0.00  0.00     0.020 A 
HETATM   27  C   UNK N   1      36.958  12.248  14.227  0.00  0.00     0.090 A 
HETATM   28  N   UNK N   1      36.330  11.965  13.053  0.00  0.00    -0.368 N 
HETATM   29  C   UNK N   1      36.307  10.599  12.565  0.00  0.00     0.154 C 
HETATM   30  C   UNK N   1      35.719  12.941  12.330  0.00  0.00     0.127 A 
ENDBRANCH  23  24
ENDBRANCH  21  23
ENDBRANCH  18  19
ENDBRANCH  17  18
ENDBRANCH   1  17
TORSDOF 11
ENDMDL
MODEL 3
REMARK VINA RESULT:      -5.4     18.519     22.226
REMARK  11 active torsions:
REMARK  status: ('A' for Active; 'I' for Inactive)
REMARK    1  A    between atoms: C_6  and  C_5 
REMARK    2  A    between atoms: C_7  and  C_5 
REMARK    3  A    between atoms: C_8  and  C_6 
REMARK    4  A    between atoms: C_15  and  C_7 
REMARK    5  A    between atoms: C_16  and  C_8 
REMARK    6  A    between atoms: N_25  and  C_15 
REMARK    7  A    between atoms: N_26  and  C_16 
REMARK    8  A    between atoms: O_29  and  C_19 
REMARK    9  A    between atoms: O_30  and  C_20 
REMARK       I    between atoms: N_25  and  C_21 
REMARK   10  A    between atoms: O_29  and  C_21 
REMARK       I    between atoms: N_26  and  C_22 
REMARK   11  A    between atoms: O_30  and  C_22 
ROOT
HETATM    1  C   UNK N   1      37.467  12.242   9.616  0.00  0.00     0.002 C 
ENDROOT
BRANCH   1   2
HETATM    2  C   UNK N   1      37.492  13.773   9.558  0.00  0.00     0.002 C 
BRANCH   2   3
HETATM    3  C   UNK N   1      36.229  14.367   8.948  0.00  0.00     0.020 C 
BRANCH   3   4
HETATM    4  C   UNK N   1      35.515  15.238   9.976  0.00  0.00     0.127 C 
BRANCH   4   5
HETATM    5  N   UNK N   1      34.274  15.890   9.575  0.00  0.00    -0.332 N 
HETATM    6  C   UNK N   1      33.081  15.091   9.693  0.00  0.00     0.155 C 
HETATM    7  C   UNK N   1      34.152  17.179   9.125  0.00  0.00     0.367 C 
HETATM    8  O   UNK N   1      35.129  17.909   9.030  0.00  0.00    -0.238 OA
BRANCH   7   9
HETATM    9  O   UNK N   1      32.910  17.639   8.790  0.00  0.00    -0.260 OA
BRANCH   9  10
HETATM   10  C   UNK N   1      32.201  17.443   7.649  0.00  0.00     0.096 A 
HETATM   11  C   UNK N   1      30.815  17.229   7.639  0.00  0.00     0.040 A 
HETATM   12  C   UNK N   1      30.150  17.043   6.424  0.00  0.00     0.020 A 
HETATM   13  C   UNK N   1      30.878  17.075   5.233  0.00  0.00     0.090 A 
HETATM   14  N   UNK N   1      32.223  17.282   5.258  0.00  0.00    -0.368 N 
HETATM   15  C   UNK N   1      32.965  17.315   4.012  0.00  0.00     0.154 C 
HETATM   16  C   UNK N   1      32.886  17.463   6.431  0.00  0.00     0.127 A 
ENDBRANCH   9  10
ENDBRANCH   7   9
ENDBRANCH   4   5
ENDBRANCH   3   4
ENDBRANCH   2   3
ENDBRANCH   1   2
BRANCH   1  17
HETATM   17  C   UNK N   1      37.708  11.694  11.016  0.00  0.00     0.020 C 
BRANCH  17  18
HETATM   18  C   UNK N   1      37.350  12.749  12.056  0.00  0.00     0.127 C 
BRANCH  18  19
HETATM   19  N   UNK N   1      36.426  12.376  13.121  0.00  0.00    -0.332 N 
HETATM   20  C   UNK N   1      35.033  12.637  12.862  0.00  0.00     0.155 C 
HETATM   21  C   UNK N   1      36.767  11.797  14.316  0.00  0.00     0.367 C 
HETATM   22  O   UNK N   1      37.932  11.533  14.578  0.00  0.00    -0.238 OA
BRANCH  21  23
HETATM   23  O   UNK N   1      35.775  11.515  15.212  0.00  0.00    -0.260 OA
BRANCH  23  24
HETATM   24  C   UNK N   1      35.593  11.996  16.468  0.00  0.00     0.096 A 
HETATM   25  C   UNK N   1      35.391  13.356  16.745  0.00  0.00     0.040 A 
HETATM   26  C   UNK N   1      35.201  13.776  18.063  0.00  0.00     0.020 A 
HETATM   27  C   UNK N   1      35.212  12.831  19.091  0.00  0.00     0.090 A 
HETATM   28  N   UNK N   1      35.409  11.514  18.809  0.00  0.00    -0.368 N 
HETATM   29  C   UNK N   1      35.414  10.544  19.888  0.00  0.00     0.154 C 
HETATM   30  C   UNK N   1      35.598  11.089  17.531  0.00  0.00     0.127 A 
ENDBRANCH  23  24
ENDBRANCH  21  23
ENDBRANCH  18  19
ENDBRANCH  17  18
ENDBRANCH   1  17
TORSDOF 11
ENDMDL
MODEL 4
REMARK VINA RESULT:      -5.3     11.252     12.885
REMARK  11 active torsions:
REMARK  status: ('A' for Active; 'I' for Inactive)
REMARK    1  A    between atoms: C_6  and  C_5 
REMARK    2  A    between atoms: C_7  and  C_5 
REMARK    3  A    between atoms: C_8  and  C_6 
REMARK    4  A    between atoms: C_15  and  C_7 
REMARK    5  A    between atoms: C_16  and  C_8 
REMARK    6  A    between atoms: N_25  and  C_15 
REMARK    7  A    between atoms: N_26  and  C_16 
REMARK    8  A    between atoms: O_29  and  C_19 
REMARK    9  A    between atoms: O_30  and  C_20 
REMARK       I    between atoms: N_25  and  C_21 
REMARK   10  A    between atoms: O_29  and  C_21 
REMARK       I    between atoms: N_26  and  C_22 
REMARK   11  A    between atoms: O_30  and  C_22 
ROOT
HETATM    1  C   UNK N   1      22.803  19.858   2.632  0.00  0.00     0.002 C 
ENDROOT
BRANCH   1   2
HETATM    2  C   UNK N   1      23.921  20.851   2.965  0.00  0.00     0.002 C 
BRANCH   2   3
HETATM    3  C   UNK N   1      25.314  20.282   2.729  0.00  0.00     0.020 C 
BRANCH   3   4
HETATM    4  C   UNK N   1      25.579  19.137   3.700  0.00  0.00     0.127 C 
BRANCH   4   5
HETATM    5  N   UNK N   1      26.838  19.143   4.436  0.00  0.00    -0.332 N 
HETATM    6  C   UNK N   1      27.400  20.442   4.705  0.00  0.00     0.155 C 
HETATM    7  C   UNK N   1      27.504  18.038   4.900  0.00  0.00     0.367 C 
HETATM    8  O   UNK N   1      27.058  16.913   4.723  0.00  0.00    -0.238 OA
BRANCH   7   9
HETATM    9  O   UNK N   1      28.677  18.218   5.576  0.00  0.00    -0.260 OA
BRANCH   9  10
HETATM   10  C   UNK N   1      28.966  17.965   6.878  0.00  0.00     0.096 A 
HETATM   11  C   UNK N   1      28.154  18.394   7.937  0.00  0.00     0.040 A 
HETATM   12  C   UNK N   1      28.511  18.089   9.253  0.00  0.00     0.020 A 
HETATM   13  C   UNK N   1      29.675  17.355   9.495  0.00  0.00     0.090 A 
HETATM   14  N   UNK N   1      30.454  16.946   8.457  0.00  0.00    -0.368 N 
HETATM   15  C   UNK N   1      31.658  16.184   8.723  0.00  0.00     0.154 C 
HETATM   16  C   UNK N   1      30.122  17.237   7.170  0.00  0.00     0.127 A 
ENDBRANCH   9  10
ENDBRANCH   7   9
ENDBRANCH   4   5
ENDBRANCH   3   4
ENDBRANCH   2   3
ENDBRANCH   1   2
BRANCH   1  17
HETATM   17  C   UNK N   1      21.413  20.475   2.715  0.00  0.00     0.020 C 
BRANCH  17  18
HETATM   18  C   UNK N   1      20.444  19.697   1.831  0.00  0.00     0.127 C 
BRANCH  18  19
HETATM   19  N   UNK N   1      20.241  18.281   2.118  0.00  0.00    -0.332 N 
HETATM   20  C   UNK N   1      19.990  17.952   3.497  0.00  0.00     0.155 C 
HETATM   21  C   UNK N   1      20.252  17.265   1.199  0.00  0.00     0.367 C 
HETATM   22  O   UNK N   1      20.438  17.492   0.011  0.00  0.00    -0.238 OA
BRANCH  21  23
HETATM   23  O   UNK N   1      20.050  15.987   1.635  0.00  0.00    -0.260 OA
BRANCH  23  24
HETATM   24  C   UNK N   1      20.853  14.900   1.506  0.00  0.00     0.096 A 
HETATM   25  C   UNK N   1      20.519  13.791   0.716  0.00  0.00     0.040 A 
HETATM   26  C   UNK N   1      21.401  12.712   0.624  0.00  0.00     0.020 A 
HETATM   27  C   UNK N   1      22.609  12.755   1.322  0.00  0.00     0.090 A 
HETATM   28  N   UNK N   1      22.922  13.836   2.086  0.00  0.00    -0.368 N 
HETATM   29  C   UNK N   1      24.183  13.867   2.802  0.00  0.00     0.154 C 
HETATM   30  C   UNK N   1      22.073  14.894   2.188  0.00  0.00     0.127 A 
ENDBRANCH  23  24
ENDBRANCH  21  23
ENDBRANCH  18  19
ENDBRANCH  17  18
ENDBRANCH   1  17
TORSDOF 11
ENDMDL
MODEL 5
REMARK VINA RESULT:      -5.3     14.741     17.334
REMARK  11 active torsions:
REMARK  status: ('A' for Active; 'I' for Inactive)
REMARK    1  A    between atoms: C_6  and  C_5 
REMARK    2  A    between atoms: C_7  and  C_5 
REMARK    3  A    between atoms: C_8  and  C_6 
REMARK    4  A    between atoms: C_15  and  C_7 
REMARK    5  A    between atoms: C_16  and  C_8 
REMARK    6  A    between atoms: N_25  and  C_15 
REMARK    7  A    between atoms: N_26  and  C_16 
REMARK    8  A    between atoms: O_29  and  C_19 
REMARK    9  A    between atoms: O_30  and  C_20 
REMARK       I    between atoms: N_25  and  C_21 
REMARK   10  A    between atoms: O_29  and  C_21 
REMARK       I    between atoms: N_26  and  C_22 
REMARK   11  A    between atoms: O_30  and  C_22 
ROOT
HETATM    1  C   UNK N   1      33.055  17.950   8.193  0.00  0.00     0.002 C 
ENDROOT
BRANCH   1   2
HETATM    2  C   UNK N   1      33.417  17.424   6.800  0.00  0.00     0.002 C 
BRANCH   2   3
HETATM    3  C   UNK N   1      33.882  15.973   6.812  0.00  0.00     0.020 C 
BRANCH   3   4
HETATM    4  C   UNK N   1      34.992  15.791   7.842  0.00  0.00     0.127 C 
BRANCH   4   5
HETATM    5  N   UNK N   1      34.675  15.066   9.066  0.00  0.00    -0.332 N 
HETATM    6  C   UNK N   1      33.431  14.339   9.060  0.00  0.00     0.155 C 
HETATM    7  C   UNK N   1      35.459  15.004  10.189  0.00  0.00     0.367 C 
HETATM    8  O   UNK N   1      36.537  15.580  10.239  0.00  0.00    -0.238 OA
BRANCH   7   9
HETATM    9  O   UNK N   1      35.015  14.275  11.256  0.00  0.00    -0.260 OA
BRANCH   9  10
HETATM   10  C   UNK N   1      35.730  13.594  12.187  0.00  0.00     0.096 A 
HETATM   11  C   UNK N   1      36.293  12.332  11.945  0.00  0.00     0.040 A 
HETATM   12  C   UNK N   1      37.025  11.694  12.950  0.00  0.00     0.020 A 
HETATM   13  C   UNK N   1      37.187  12.325  14.185  0.00  0.00     0.090 A 
HETATM   14  N   UNK N   1      36.634  13.549  14.407  0.00  0.00    -0.368 N 
HETATM   15  C   UNK N   1      36.813  14.192  15.694  0.00  0.00     0.154 C 
HETATM   16  C   UNK N   1      35.918  14.183  13.441  0.00  0.00     0.127 A 
ENDBRANCH   9  10
ENDBRANCH   7   9
ENDBRANCH   4   5
ENDBRANCH   3   4
ENDBRANCH   2   3
ENDBRANCH   1   2
BRANCH   1  17
HETATM   17  C   UNK N   1      31.582  18.308   8.330  0.00  0.00     0.020 C 
BRANCH  17  18
HETATM   18  C   UNK N   1      30.730  17.046   8.264  0.00  0.00     0.127 C 
BRANCH  18  19
HETATM   19  N   UNK N   1      29.672  16.984   7.262  0.00  0.00    -0.332 N 
HETATM   20  C   UNK N   1      29.978  16.231   6.073  0.00  0.00     0.155 C 
HETATM   21  C   UNK N   1      28.432  17.560   7.365  0.00  0.00     0.367 C 
HETATM   22  O   UNK N   1      28.112  18.191   8.363  0.00  0.00    -0.238 OA
BRANCH  21  23
HETATM   23  O   UNK N   1      27.555  17.412   6.329  0.00  0.00    -0.260 OA
BRANCH  23  24
HETATM   24  C   UNK N   1      27.066  18.352   5.480  0.00  0.00     0.096 A 
HETATM   25  C   UNK N   1      27.838  19.412   4.985  0.00  0.00     0.040 A 
HETATM   26  C   UNK N   1      27.268  20.336   4.106  0.00  0.00     0.020 A 
HETATM   27  C   UNK N   1      25.931  20.187   3.729  0.00  0.00     0.090 A 
HETATM   28  N   UNK N   1      25.192  19.153   4.217  0.00  0.00    -0.368 N 
HETATM   29  C   UNK N   1      23.807  19.011   3.812  0.00  0.00     0.154 C 
HETATM   30  C   UNK N   1      25.732  18.247   5.075  0.00  0.00     0.127 A 
ENDBRANCH  23  24
ENDBRANCH  21  23
ENDBRANCH  18  19
ENDBRANCH  17  18
ENDBRANCH   1  17
TORSDOF 11
ENDMDL
MODEL 6
REMARK VINA RESULT:      -5.2      2.272      3.532
REMARK  11 active torsions:
REMARK  status: ('A' for Active; 'I' for Inactive)
REMARK    1  A    between atoms: C_6  and  C_5 
REMARK    2  A    between atoms: C_7  and  C_5 
REMARK    3  A    between atoms: C_8  and  C_6 
REMARK    4  A    between atoms: C_15  and  C_7 
REMARK    5  A    between atoms: C_16  and  C_8 
REMARK    6  A    between atoms: N_25  and  C_15 
REMARK    7  A    between atoms: N_26  and  C_16 
REMARK    8  A    between atoms: O_29  and  C_19 
REMARK    9  A    between atoms: O_30  and  C_20 
REMARK       I    between atoms: N_25  and  C_21 
REMARK   10  A    between atoms: O_29  and  C_21 
REMARK       I    between atoms: N_26  and  C_22 
REMARK   11  A    between atoms: O_30  and  C_22 
ROOT
HETATM    1  C   UNK N   1      30.137  29.155  -3.573  0.00  0.00     0.002 C 
ENDROOT
BRANCH   1   2
HETATM    2  C   UNK N   1      31.089  27.956  -3.520  0.00  0.00     0.002 C 
BRANCH   2   3
HETATM    3  C   UNK N   1      30.511  26.705  -4.170  0.00  0.00     0.020 C 
BRANCH   3   4
HETATM    4  C   UNK N   1      30.591  25.531  -3.200  0.00  0.00     0.127 C 
BRANCH   4   5
HETATM    5  N   UNK N   1      30.770  24.196  -3.758  0.00  0.00    -0.332 N 
HETATM    6  C   UNK N   1      30.931  24.131  -5.188  0.00  0.00     0.155 C 
HETATM    7  C   UNK N   1      30.818  23.026  -3.045  0.00  0.00     0.367 C 
HETATM    8  O   UNK N   1      30.713  23.027  -1.826  0.00  0.00    -0.238 OA
BRANCH   7   9
HETATM    9  O   UNK N   1      30.994  21.854  -3.723  0.00  0.00    -0.260 OA
BRANCH   9  10
HETATM   10  C   UNK N   1      32.146  21.215  -4.049  0.00  0.00     0.096 A 
HETATM   11  C   UNK N   1      33.239  21.116  -3.176  0.00  0.00     0.040 A 
HETATM   12  C   UNK N   1      34.390  20.435  -3.579  0.00  0.00     0.020 A 
HETATM   13  C   UNK N   1      34.435  19.858  -4.851  0.00  0.00     0.090 A 
HETATM   14  N   UNK N   1      33.368  19.964  -5.688  0.00  0.00    -0.368 N 
HETATM   15  C   UNK N   1      33.429  19.358  -7.005  0.00  0.00     0.154 C 
HETATM   16  C   UNK N   1      32.240  20.625  -5.313  0.00  0.00     0.127 A 
ENDBRANCH   9  10
ENDBRANCH   7   9
ENDBRANCH   4   5
ENDBRANCH   3   4
ENDBRANCH   2   3
ENDBRANCH   1   2
BRANCH   1  17
HETATM   17  C   UNK N   1      28.885  28.959  -2.728  0.00  0.00     0.020 C 
BRANCH  17  18
HETATM   18  C   UNK N   1      27.696  29.643  -3.393  0.00  0.00     0.127 C 
BRANCH  18  19
HETATM   19  N   UNK N   1      26.937  28.889  -4.385  0.00  0.00    -0.332 N 
HETATM   20  C   UNK N   1      27.348  29.065  -5.754  0.00  0.00     0.155 C 
HETATM   21  C   UNK N   1      25.898  28.034  -4.123  0.00  0.00     0.367 C 
HETATM   22  O   UNK N   1      25.523  27.831  -2.976  0.00  0.00    -0.238 OA
BRANCH  21  23
HETATM   23  O   UNK N   1      25.287  27.408  -5.172  0.00  0.00    -0.260 OA
BRANCH  23  24
HETATM   24  C   UNK N   1      25.524  26.176  -5.690  0.00  0.00     0.096 A 
HETATM   25  C   UNK N   1      25.620  25.020  -4.902  0.00  0.00     0.040 A 
HETATM   26  C   UNK N   1      25.856  23.784  -5.508  0.00  0.00     0.020 A 
HETATM   27  C   UNK N   1      25.991  23.717  -6.896  0.00  0.00     0.090 A 
HETATM   28  N   UNK N   1      25.895  24.846  -7.650  0.00  0.00    -0.368 N 
HETATM   29  C   UNK N   1      26.034  24.759  -9.091  0.00  0.00     0.154 C 
HETATM   30  C   UNK N   1      25.668  26.057  -7.075  0.00  0.00     0.127 A 
ENDBRANCH  23  24
ENDBRANCH  21  23
ENDBRANCH  18  19
ENDBRANCH  17  18
ENDBRANCH   1  17
TORSDOF 11
ENDMDL
MODEL 7
REMARK VINA RESULT:      -5.1     16.048     19.861
REMARK  11 active torsions:
REMARK  status: ('A' for Active; 'I' for Inactive)
REMARK    1  A    between atoms: C_6  and  C_5 
REMARK    2  A    between atoms: C_7  and  C_5 
REMARK    3  A    between atoms: C_8  and  C_6 
REMARK    4  A    between atoms: C_15  and  C_7 
REMARK    5  A    between atoms: C_16  and  C_8 
REMARK    6  A    between atoms: N_25  and  C_15 
REMARK    7  A    between atoms: N_26  and  C_16 
REMARK    8  A    between atoms: O_29  and  C_19 
REMARK    9  A    between atoms: O_30  and  C_20 
REMARK       I    between atoms: N_25  and  C_21 
REMARK   10  A    between atoms: O_29  and  C_21 
REMARK       I    between atoms: N_26  and  C_22 
REMARK   11  A    between atoms: O_30  and  C_22 
ROOT
HETATM    1  C   UNK N   1      35.358  14.550   7.375  0.00  0.00     0.002 C 
ENDROOT
BRANCH   1   2
HETATM    2  C   UNK N   1      34.603  15.844   7.700  0.00  0.00     0.002 C 
BRANCH   2   3
HETATM    3  C   UNK N   1      33.091  15.696   7.589  0.00  0.00     0.020 C 
BRANCH   3   4
HETATM    4  C   UNK N   1      32.477  17.001   7.092  0.00  0.00     0.127 C 
BRANCH   4   5
HETATM    5  N   UNK N   1      31.058  17.225   7.340  0.00  0.00    -0.332 N 
HETATM    6  C   UNK N   1      30.688  17.442   8.716  0.00  0.00     0.155 C 
HETATM    7  C   UNK N   1      30.072  17.266   6.388  0.00  0.00     0.367 C 
HETATM    8  O   UNK N   1      30.333  17.114   5.203  0.00  0.00    -0.238 OA
BRANCH   7   9
HETATM    9  O   UNK N   1      28.785  17.489   6.789  0.00  0.00    -0.260 OA
BRANCH   9  10
HETATM   10  C   UNK N   1      27.917  18.454   6.393  0.00  0.00     0.096 A 
HETATM   11  C   UNK N   1      27.918  19.749   6.931  0.00  0.00     0.040 A 
HETATM   12  C   UNK N   1      26.999  20.694   6.467  0.00  0.00     0.020 A 
HETATM   13  C   UNK N   1      26.091  20.334   5.468  0.00  0.00     0.090 A 
HETATM   14  N   UNK N   1      26.102  19.074   4.956  0.00  0.00    -0.368 N 
HETATM   15  C   UNK N   1      25.154  18.716   3.918  0.00  0.00     0.154 C 
HETATM   16  C   UNK N   1      26.988  18.141   5.397  0.00  0.00     0.127 A 
ENDBRANCH   9  10
ENDBRANCH   7   9
ENDBRANCH   4   5
ENDBRANCH   3   4
ENDBRANCH   2   3
ENDBRANCH   1   2
BRANCH   1  17
HETATM   17  C   UNK N   1      36.329  14.136   8.472  0.00  0.00     0.020 C 
BRANCH  17  18
HETATM   18  C   UNK N   1      35.950  14.809   9.786  0.00  0.00     0.127 C 
BRANCH  18  19
HETATM   19  N   UNK N   1      35.339  13.988  10.826  0.00  0.00    -0.332 N 
HETATM   20  C   UNK N   1      34.635  12.818  10.367  0.00  0.00     0.155 C 
HETATM   21  C   UNK N   1      35.394  14.226  12.175  0.00  0.00     0.367 C 
HETATM   22  O   UNK N   1      35.998  15.192  12.619  0.00  0.00    -0.238 OA
BRANCH  21  23
HETATM   23  O   UNK N   1      34.760  13.359  13.018  0.00  0.00    -0.260 OA
BRANCH  23  24
HETATM   24  C   UNK N   1      35.252  12.701  14.098  0.00  0.00     0.096 A 
HETATM   25  C   UNK N   1      34.755  12.883  15.397  0.00  0.00     0.040 A 
HETATM   26  C   UNK N   1      35.306  12.162  16.459  0.00  0.00     0.020 A 
HETATM   27  C   UNK N   1      36.346  11.265  16.210  0.00  0.00     0.090 A 
HETATM   28  N   UNK N   1      36.820  11.097  14.946  0.00  0.00    -0.368 N 
HETATM   29  C   UNK N   1      37.899  10.158  14.704  0.00  0.00     0.154 C 
HETATM   30  C   UNK N   1      36.296  11.792  13.901  0.00  0.00     0.127 A 
ENDBRANCH  23  24
ENDBRANCH  21  23
ENDBRANCH  18  19
ENDBRANCH  17  18
ENDBRANCH   1  17
TORSDOF 11
ENDMDL
MODEL 8
REMARK VINA RESULT:      -5.1     18.884     21.758
REMARK  11 active torsions:
REMARK  status: ('A' for Active; 'I' for Inactive)
REMARK    1  A    between atoms: C_6  and  C_5 
REMARK    2  A    between atoms: C_7  and  C_5 
REMARK    3  A    between atoms: C_8  and  C_6 
REMARK    4  A    between atoms: C_15  and  C_7 
REMARK    5  A    between atoms: C_16  and  C_8 
REMARK    6  A    between atoms: N_25  and  C_15 
REMARK    7  A    between atoms: N_26  and  C_16 
REMARK    8  A    between atoms: O_29  and  C_19 
REMARK    9  A    between atoms: O_30  and  C_20 
REMARK       I    between atoms: N_25  and  C_21 
REMARK   10  A    between atoms: O_29  and  C_21 
REMARK       I    between atoms: N_26  and  C_22 
REMARK   11  A    between atoms: O_30  and  C_22 
ROOT
HETATM    1  C   UNK N   1      36.423  14.572  10.103  0.00  0.00     0.002 C 
ENDROOT
BRANCH   1   2
HETATM    2  C   UNK N   1      35.821  14.613  11.512  0.00  0.00     0.002 C 
BRANCH   2   3
HETATM    3  C   UNK N   1      36.588  13.758  12.513  0.00  0.00     0.020 C 
BRANCH   3   4
HETATM    4  C   UNK N   1      35.953  13.879  13.894  0.00  0.00     0.127 C 
BRANCH   4   5
HETATM    5  N   UNK N   1      35.953  12.700  14.752  0.00  0.00    -0.332 N 
HETATM    6  C   UNK N   1      37.072  11.807  14.589  0.00  0.00     0.155 C 
HETATM    7  C   UNK N   1      35.007  12.391  15.694  0.00  0.00     0.367 C 
HETATM    8  O   UNK N   1      34.050  13.128  15.892  0.00  0.00    -0.238 OA
BRANCH   7   9
HETATM    9  O   UNK N   1      35.156  11.243  16.418  0.00  0.00    -0.260 OA
BRANCH   9  10
HETATM   10  C   UNK N   1      35.573  11.084  17.700  0.00  0.00     0.096 A 
HETATM   11  C   UNK N   1      35.254  11.987  18.725  0.00  0.00     0.040 A 
HETATM   12  C   UNK N   1      35.712  11.753  20.024  0.00  0.00     0.020 A 
HETATM   13  C   UNK N   1      36.483  10.618  20.284  0.00  0.00     0.090 A 
HETATM   14  N   UNK N   1      36.787   9.751  19.280  0.00  0.00    -0.368 N 
HETATM   15  C   UNK N   1      37.587   8.576  19.567  0.00  0.00     0.154 C 
HETATM   16  C   UNK N   1      36.350   9.965  18.010  0.00  0.00     0.127 A 
ENDBRANCH   9  10
ENDBRANCH   7   9
ENDBRANCH   4   5
ENDBRANCH   3   4
ENDBRANCH   2   3
ENDBRANCH   1   2
BRANCH   1  17
HETATM   17  C   UNK N   1      35.517  15.195   9.050  0.00  0.00     0.020 C 
BRANCH  17  18
HETATM   18  C   UNK N   1      34.762  16.378   9.646  0.00  0.00     0.127 C 
BRANCH  18  19
HETATM   19  N   UNK N   1      33.849  17.115   8.780  0.00  0.00    -0.332 N 
HETATM   20  C   UNK N   1      34.392  18.295   8.157  0.00  0.00     0.155 C 
HETATM   21  C   UNK N   1      32.549  16.775   8.506  0.00  0.00     0.367 C 
HETATM   22  O   UNK N   1      32.045  15.772   8.991  0.00  0.00    -0.238 OA
BRANCH  21  23
HETATM   23  O   UNK N   1      31.824  17.581   7.676  0.00  0.00    -0.260 OA
BRANCH  23  24
HETATM   24  C   UNK N   1      31.223  17.278   6.497  0.00  0.00     0.096 A 
HETATM   25  C   UNK N   1      29.844  17.052   6.377  0.00  0.00     0.040 A 
HETATM   26  C   UNK N   1      29.295  16.754   5.128  0.00  0.00     0.020 A 
HETATM   27  C   UNK N   1      30.131  16.686   4.011  0.00  0.00     0.090 A 
HETATM   28  N   UNK N   1      31.468  16.907   4.141  0.00  0.00    -0.368 N 
HETATM   29  C   UNK N   1      32.322  16.836   2.971  0.00  0.00     0.154 C 
HETATM   30  C   UNK N   1      32.018  17.196   5.350  0.00  0.00     0.127 A 
ENDBRANCH  23  24
ENDBRANCH  21  23
ENDBRANCH  18  19
ENDBRANCH  17  18
ENDBRANCH   1  17
TORSDOF 11
ENDMDL
MODEL 9
REMARK VINA RESULT:      -5.1     14.811     17.303
REMARK  11 active torsions:
REMARK  status: ('A' for Active; 'I' for Inactive)
REMARK    1  A    between atoms: C_6  and  C_5 
REMARK    2  A    between atoms: C_7  and  C_5 
REMARK    3  A    between atoms: C_8  and  C_6 
REMARK    4  A    between atoms: C_15  and  C_7 
REMARK    5  A    between atoms: C_16  and  C_8 
REMARK    6  A    between atoms: N_25  and  C_15 
REMARK    7  A    between atoms: N_26  and  C_16 
REMARK    8  A    between atoms: O_29  and  C_19 
REMARK    9  A    between atoms: O_30  and  C_20 
REMARK       I    between atoms: N_25  and  C_21 
REMARK   10  A    between atoms: O_29  and  C_21 
REMARK       I    between atoms: N_26  and  C_22 
REMARK   11  A    between atoms: O_30  and  C_22 
ROOT
HETATM    1  C   UNK N   1      32.027  16.307   6.990  0.00  0.00     0.002 C 
ENDROOT
BRANCH   1   2
HETATM    2  C   UNK N   1      33.463  16.782   7.234  0.00  0.00     0.002 C 
BRANCH   2   3
HETATM    3  C   UNK N   1      34.419  15.643   7.566  0.00  0.00     0.020 C 
BRANCH   3   4
HETATM    4  C   UNK N   1      35.046  15.873   8.938  0.00  0.00     0.127 C 
BRANCH   4   5
HETATM    5  N   UNK N   1      34.735  14.923   9.999  0.00  0.00    -0.332 N 
HETATM    6  C   UNK N   1      34.115  13.692   9.576  0.00  0.00     0.155 C 
HETATM    7  C   UNK N   1      34.998  15.093  11.333  0.00  0.00     0.367 C 
HETATM    8  O   UNK N   1      35.546  16.107  11.743  0.00  0.00    -0.238 OA
BRANCH   7   9
HETATM    9  O   UNK N   1      34.642  14.100  12.201  0.00  0.00    -0.260 OA
BRANCH   9  10
HETATM   10  C   UNK N   1      35.425  13.364  13.031  0.00  0.00     0.096 A 
HETATM   11  C   UNK N   1      36.037  13.896  14.176  0.00  0.00     0.040 A 
HETATM   12  C   UNK N   1      36.822  13.075  14.988  0.00  0.00     0.020 A 
HETATM   13  C   UNK N   1      36.985  11.730  14.649  0.00  0.00     0.090 A 
HETATM   14  N   UNK N   1      36.386  11.227  13.535  0.00  0.00    -0.368 N 
HETATM   15  C   UNK N   1      36.563   9.828  13.197  0.00  0.00     0.154 C 
HETATM   16  C   UNK N   1      35.620  12.013  12.732  0.00  0.00     0.127 A 
ENDBRANCH   9  10
ENDBRANCH   7   9
ENDBRANCH   4   5
ENDBRANCH   3   4
ENDBRANCH   2   3
ENDBRANCH   1   2
BRANCH   1  17
HETATM   17  C   UNK N   1      30.996  17.414   7.164  0.00  0.00     0.020 C 
BRANCH  17  18
HETATM   18  C   UNK N   1      29.621  16.917   6.735  0.00  0.00     0.127 C 
BRANCH  18  19
HETATM   19  N   UNK N   1      29.013  17.517   5.552  0.00  0.00    -0.332 N 
HETATM   20  C   UNK N   1      29.255  16.832   4.309  0.00  0.00     0.155 C 
HETATM   21  C   UNK N   1      28.236  18.646   5.532  0.00  0.00     0.367 C 
HETATM   22  O   UNK N   1      27.981  19.254   6.562  0.00  0.00    -0.238 OA
BRANCH  21  23
HETATM   23  O   UNK N   1      27.747  19.081   4.333  0.00  0.00    -0.260 OA
BRANCH  23  24
HETATM   24  C   UNK N   1      26.471  19.389   3.989  0.00  0.00     0.096 A 
HETATM   25  C   UNK N   1      26.144  20.445   3.127  0.00  0.00     0.040 A 
HETATM   26  C   UNK N   1      24.807  20.696   2.811  0.00  0.00     0.020 A 
HETATM   27  C   UNK N   1      23.810  19.886   3.359  0.00  0.00     0.090 A 
HETATM   28  N   UNK N   1      24.140  18.864   4.195  0.00  0.00    -0.368 N 
HETATM   29  C   UNK N   1      23.094  18.029   4.754  0.00  0.00     0.154 C 
HETATM   30  C   UNK N   1      25.437  18.608   4.515  0.00  0.00     0.127 A 
ENDBRANCH  23  24
ENDBRANCH  21  23
ENDBRANCH  18  19
ENDBRANCH  17  18
ENDBRANCH   1  17
TORSDOF 11
ENDMDL
