MODEL 1
REMARK VINA RESULT:      -7.4      0.000      0.000
REMARK  4 active torsions:
REMARK  status: ('A' for Active; 'I' for Inactive)
REMARK    1  A    between atoms: C_20  and  C_3 
REMARK    2  A    between atoms: C_21  and  C_19 
REMARK    3  A    between atoms: O_26  and  C_19 
REMARK    4  A    between atoms: C_21  and  O_25 
ROOT
HETATM    1  C   UNK N   1      31.448  22.685  -3.249  0.00  0.00     0.001 A 
HETATM    2  C   UNK N   1      30.172  22.075  -3.313  0.00  0.00     0.002 A 
HETATM    3  C   UNK N   1      27.084  30.140  -3.975  0.00  0.00     0.031 C 
HETATM    4  C   UNK N   1      31.584  24.075  -3.423  0.00  0.00     0.014 A 
HETATM    5  C   UNK N   1      29.017  22.846  -3.551  0.00  0.00     0.030 A 
HETATM    6  C   UNK N   1      31.123  27.345  -3.802  0.00  0.00     0.072 C 
HETATM    7  C   UNK N   1      26.217  28.927  -3.681  0.00  0.00     0.014 C 
HETATM    8  C   UNK N   1      28.496  29.948  -3.398  0.00  0.00     0.273 C 
HETATM    9  C   UNK N   1      30.370  28.520  -3.090  0.00  0.00     0.278 C 
HETATM   10  C   UNK N   1      26.166  26.448  -3.610  0.00  0.00     0.084 C 
HETATM   11  C   UNK N   1      30.430  24.809  -3.672  0.00  0.00    -0.001 A 
HETATM   12  C   UNK N   1      30.232  26.157  -3.861  0.00  0.00    -0.019 A 
HETATM   13  C   UNK N   1      29.181  24.219  -3.735  0.00  0.00     0.048 A 
HETATM   14  C   UNK N   1      28.902  26.328  -4.053  0.00  0.00     0.057 A 
HETATM   15  C   UNK N   1      28.339  27.678  -4.267  0.00  0.00     0.281 C 
HETATM   16  C   UNK N   1      26.775  27.663  -4.351  0.00  0.00     0.001 C 
HETATM   17  C   UNK N   1      26.767  25.065  -3.982  0.00  0.00     0.229 C 
HETATM   18  N   UNK N   1      28.874  28.539  -3.188  0.00  0.00     0.100 N 
HETATM   19  N   UNK N   1      28.234  25.163  -3.941  0.00  0.00    -0.306 N 
ENDROOT
BRANCH  17  20
HETATM   20  C   UNK N   1      26.289  24.601  -5.337  0.00  0.00     0.315 C 
HETATM   21  O   UNK N   1      25.093  24.453  -5.552  0.00  0.00    -0.260 OA
BRANCH  20  22
HETATM   22  O   UNK N   1      27.201  24.316  -6.298  0.00  0.00    -0.323 OA
HETATM   23  C   UNK N   1      27.296  23.070  -6.874  0.00  0.00     0.213 C 
ENDBRANCH  20  22
ENDBRANCH  17  20
BRANCH  17  24
HETATM   24  O   UNK N   1      26.329  24.160  -3.012  0.00  0.00    -0.362 OA
HETATM   25  H   UNK N   1      25.883  23.327  -2.796  0.00  0.00     0.213 HD
ENDBRANCH  17  24
BRANCH  16  26
HETATM   26  C   UNK N   1      26.358  27.637  -5.837  0.00  0.00     0.008 C 
HETATM   27  C   UNK N   1      27.487  28.003  -6.792  0.00  0.00     0.006 C 
ENDBRANCH  16  26
TORSDOF 4
ENDMDL
MODEL 2
REMARK VINA RESULT:      -6.7     14.387     16.735
REMARK  4 active torsions:
REMARK  status: ('A' for Active; 'I' for Inactive)
REMARK    1  A    between atoms: C_20  and  C_3 
REMARK    2  A    between atoms: C_21  and  C_19 
REMARK    3  A    between atoms: O_26  and  C_19 
REMARK    4  A    between atoms: C_21  and  O_25 
ROOT
HETATM    1  C   UNK N   1      28.187  18.778   8.244  0.00  0.00     0.001 A 
HETATM    2  C   UNK N   1      28.978  18.620   9.407  0.00  0.00     0.002 A 
HETATM    3  C   UNK N   1      33.093  12.430   4.959  0.00  0.00     0.031 C 
HETATM    4  C   UNK N   1      28.487  18.057   7.074  0.00  0.00     0.014 A 
HETATM    5  C   UNK N   1      30.078  17.738   9.415  0.00  0.00     0.030 A 
HETATM    6  C   UNK N   1      29.698  15.980   4.778  0.00  0.00     0.072 C 
HETATM    7  C   UNK N   1      33.236  12.627   6.460  0.00  0.00     0.014 C 
HETATM    8  C   UNK N   1      31.690  12.852   4.491  0.00  0.00     0.273 C 
HETATM    9  C   UNK N   1      29.928  14.442   4.583  0.00  0.00     0.278 C 
HETATM   10  C   UNK N   1      32.742  14.150   8.355  0.00  0.00     0.084 C 
HETATM   11  C   UNK N   1      29.585  17.207   7.104  0.00  0.00    -0.001 A 
HETATM   12  C   UNK N   1      30.114  16.367   6.151  0.00  0.00    -0.019 A 
HETATM   13  C   UNK N   1      30.362  17.047   8.237  0.00  0.00     0.048 A 
HETATM   14  C   UNK N   1      31.183  15.762   6.721  0.00  0.00     0.057 A 
HETATM   15  C   UNK N   1      31.976  14.767   5.967  0.00  0.00     0.281 C 
HETATM   16  C   UNK N   1      33.092  14.107   6.847  0.00  0.00     0.001 C 
HETATM   17  C   UNK N   1      32.334  15.542   8.909  0.00  0.00     0.229 C 
HETATM   18  N   UNK N   1      31.013  13.800   5.393  0.00  0.00     0.100 N 
HETATM   19  N   UNK N   1      31.331  16.132   8.009  0.00  0.00    -0.306 N 
ENDROOT
BRANCH  17  20
HETATM   20  C   UNK N   1      33.530  16.449   9.061  0.00  0.00     0.315 C 
HETATM   21  O   UNK N   1      34.482  16.106   9.751  0.00  0.00    -0.260 OA
BRANCH  20  22
HETATM   22  O   UNK N   1      33.523  17.662   8.454  0.00  0.00    -0.323 OA
HETATM   23  C   UNK N   1      34.675  18.385   8.244  0.00  0.00     0.213 C 
ENDBRANCH  20  22
ENDBRANCH  17  20
BRANCH  17  24
HETATM   24  O   UNK N   1      31.767  15.325  10.167  0.00  0.00    -0.362 OA
HETATM   25  H   UNK N   1      31.653  15.610  11.086  0.00  0.00     0.213 HD
ENDBRANCH  17  24
BRANCH  16  26
HETATM   26  C   UNK N   1      34.424  14.842   6.594  0.00  0.00     0.008 C 
HETATM   27  C   UNK N   1      34.364  15.827   5.433  0.00  0.00     0.006 C 
ENDBRANCH  16  26
TORSDOF 4
ENDMDL
MODEL 3
REMARK VINA RESULT:      -6.4      1.982      5.531
REMARK  4 active torsions:
REMARK  status: ('A' for Active; 'I' for Inactive)
REMARK    1  A    between atoms: C_20  and  C_3 
REMARK    2  A    between atoms: C_21  and  C_19 
REMARK    3  A    between atoms: O_26  and  C_19 
REMARK    4  A    between atoms: C_21  and  O_25 
ROOT
HETATM    1  C   UNK N   1      27.960  30.248  -4.922  0.00  0.00     0.001 A 
HETATM    2  C   UNK N   1      27.905  29.596  -3.667  0.00  0.00     0.002 A 
HETATM    3  C   UNK N   1      25.920  22.485  -8.197  0.00  0.00     0.031 C 
HETATM    4  C   UNK N   1      27.813  29.515  -6.114  0.00  0.00     0.014 A 
HETATM    5  C   UNK N   1      27.702  28.203  -3.588  0.00  0.00     0.030 A 
HETATM    6  C   UNK N   1      27.278  27.203  -8.442  0.00  0.00     0.072 C 
HETATM    7  C   UNK N   1      25.758  22.597  -6.689  0.00  0.00     0.014 C 
HETATM    8  C   UNK N   1      25.714  23.854  -8.865  0.00  0.00     0.273 C 
HETATM    9  C   UNK N   1      26.159  26.187  -8.860  0.00  0.00     0.278 C 
HETATM   10  C   UNK N   1      26.287  23.977  -4.696  0.00  0.00     0.084 C 
HETATM   11  C   UNK N   1      27.631  28.142  -6.007  0.00  0.00    -0.001 A 
HETATM   12  C   UNK N   1      27.439  27.171  -6.964  0.00  0.00    -0.019 A 
HETATM   13  C   UNK N   1      27.575  27.499  -4.784  0.00  0.00     0.048 A 
HETATM   14  C   UNK N   1      27.303  25.998  -6.301  0.00  0.00     0.057 A 
HETATM   15  C   UNK N   1      27.059  24.740  -7.039  0.00  0.00     0.281 C 
HETATM   16  C   UNK N   1      26.818  23.526  -6.078  0.00  0.00     0.001 C 
HETATM   17  C   UNK N   1      27.102  25.098  -3.998  0.00  0.00     0.229 C 
HETATM   18  N   UNK N   1      25.937  25.002  -7.969  0.00  0.00     0.100 N 
HETATM   19  N   UNK N   1      27.343  26.179  -4.966  0.00  0.00    -0.306 N 
ENDROOT
BRANCH  17  20
HETATM   20  C   UNK N   1      28.398  24.571  -3.435  0.00  0.00     0.315 C 
HETATM   21  O   UNK N   1      29.468  25.032  -3.811  0.00  0.00    -0.260 OA
BRANCH  20  22
HETATM   22  O   UNK N   1      28.366  23.557  -2.535  0.00  0.00    -0.323 OA
HETATM   23  C   UNK N   1      29.481  22.811  -2.227  0.00  0.00     0.213 C 
ENDBRANCH  20  22
ENDBRANCH  17  20
BRANCH  17  24
HETATM   24  O   UNK N   1      26.313  25.576  -2.948  0.00  0.00    -0.362 OA
HETATM   25  H   UNK N   1      25.698  25.392  -2.222  0.00  0.00     0.213 HD
ENDBRANCH  17  24
BRANCH  16  26
HETATM   26  C   UNK N   1      28.145  22.757  -5.908  0.00  0.00     0.008 C 
HETATM   27  C   UNK N   1      29.252  23.242  -6.835  0.00  0.00     0.006 C 
ENDBRANCH  16  26
TORSDOF 4
ENDMDL
MODEL 4
REMARK VINA RESULT:      -6.4      2.584      5.746
REMARK  4 active torsions:
REMARK  status: ('A' for Active; 'I' for Inactive)
REMARK    1  A    between atoms: C_20  and  C_3 
REMARK    2  A    between atoms: C_21  and  C_19 
REMARK    3  A    between atoms: O_26  and  C_19 
REMARK    4  A    between atoms: C_21  and  O_25 
ROOT
HETATM    1  C   UNK N   1      25.796  27.749  -3.472  0.00  0.00     0.001 A 
HETATM    2  C   UNK N   1      25.573  28.055  -4.836  0.00  0.00     0.002 A 
HETATM    3  C   UNK N   1      30.195  20.921  -6.500  0.00  0.00     0.031 C 
HETATM    4  C   UNK N   1      26.448  26.558  -3.104  0.00  0.00     0.014 A 
HETATM    5  C   UNK N   1      26.000  27.174  -5.850  0.00  0.00     0.030 A 
HETATM    6  C   UNK N   1      28.119  23.686  -3.006  0.00  0.00     0.072 C 
HETATM    7  C   UNK N   1      29.848  21.965  -7.550  0.00  0.00     0.014 C 
HETATM    8  C   UNK N   1      30.340  21.575  -5.116  0.00  0.00     0.273 C 
HETATM    9  C   UNK N   1      29.483  23.097  -3.506  0.00  0.00     0.278 C 
HETATM   10  C   UNK N   1      28.466  23.969  -8.028  0.00  0.00     0.084 C 
HETATM   11  C   UNK N   1      26.843  25.700  -4.123  0.00  0.00    -0.001 A 
HETATM   12  C   UNK N   1      27.508  24.495  -4.093  0.00  0.00    -0.019 A 
HETATM   13  C   UNK N   1      26.630  25.993  -5.458  0.00  0.00     0.048 A 
HETATM   14  C   UNK N   1      27.646  24.099  -5.381  0.00  0.00     0.057 A 
HETATM   15  C   UNK N   1      28.344  22.837  -5.710  0.00  0.00     0.281 C 
HETATM   16  C   UNK N   1      28.494  22.628  -7.255  0.00  0.00     0.001 C 
HETATM   17  C   UNK N   1      27.275  24.908  -7.697  0.00  0.00     0.229 C 
HETATM   18  N   UNK N   1      29.632  22.859  -4.979  0.00  0.00     0.100 N 
HETATM   19  N   UNK N   1      27.152  25.017  -6.235  0.00  0.00    -0.306 N 
ENDROOT
BRANCH  17  20
HETATM   20  C   UNK N   1      25.991  24.413  -8.316  0.00  0.00     0.315 C 
HETATM   21  O   UNK N   1      25.067  24.037  -7.606  0.00  0.00    -0.260 OA
BRANCH  20  22
HETATM   22  O   UNK N   1      25.886  24.357  -9.667  0.00  0.00    -0.323 OA
HETATM   23  C   UNK N   1      25.090  25.223 -10.379  0.00  0.00     0.213 C 
ENDBRANCH  20  22
ENDBRANCH  17  20
BRANCH  17  24
HETATM   24  O   UNK N   1      27.586  26.159  -8.236  0.00  0.00    -0.362 OA
HETATM   25  H   UNK N   1      28.230  26.738  -8.670  0.00  0.00     0.213 HD
ENDBRANCH  17  24
BRANCH  16  26
HETATM   26  C   UNK N   1      27.352  21.713  -7.745  0.00  0.00     0.008 C 
HETATM   27  C   UNK N   1      27.582  21.147  -9.141  0.00  0.00     0.006 C 
ENDBRANCH  16  26
TORSDOF 4
ENDMDL
MODEL 5
REMARK VINA RESULT:      -6.3      2.677      4.178
REMARK  4 active torsions:
REMARK  status: ('A' for Active; 'I' for Inactive)
REMARK    1  A    between atoms: C_20  and  C_3 
REMARK    2  A    between atoms: C_21  and  C_19 
REMARK    3  A    between atoms: O_26  and  C_19 
REMARK    4  A    between atoms: C_21  and  O_25 
ROOT
HETATM    1  C   UNK N   1      30.256  19.789  -6.886  0.00  0.00     0.001 A 
HETATM    2  C   UNK N   1      29.234  19.607  -7.849  0.00  0.00     0.002 A 
HETATM    3  C   UNK N   1      25.907  26.970  -4.728  0.00  0.00     0.031 C 
HETATM    4  C   UNK N   1      30.298  20.956  -6.101  0.00  0.00     0.014 A 
HETATM    5  C   UNK N   1      28.240  20.589  -8.037  0.00  0.00     0.030 A 
HETATM    6  C   UNK N   1      29.696  23.844  -4.569  0.00  0.00     0.072 C 
HETATM    7  C   UNK N   1      25.146  26.021  -5.640  0.00  0.00     0.014 C 
HETATM    8  C   UNK N   1      26.903  26.194  -3.851  0.00  0.00     0.273 C 
HETATM    9  C   UNK N   1      28.570  24.508  -3.704  0.00  0.00     0.278 C 
HETATM   10  C   UNK N   1      25.352  24.040  -7.119  0.00  0.00     0.084 C 
HETATM   11  C   UNK N   1      29.316  21.914  -6.319  0.00  0.00    -0.001 A 
HETATM   12  C   UNK N   1      29.075  23.126  -5.713  0.00  0.00    -0.019 A 
HETATM   13  C   UNK N   1      28.314  21.742  -7.257  0.00  0.00     0.048 A 
HETATM   14  C   UNK N   1      27.976  23.644  -6.310  0.00  0.00     0.057 A 
HETATM   15  C   UNK N   1      27.426  24.946  -5.876  0.00  0.00     0.281 C 
HETATM   16  C   UNK N   1      26.091  25.303  -6.615  0.00  0.00     0.001 C 
HETATM   17  C   UNK N   1      26.210  23.046  -7.948  0.00  0.00     0.229 C 
HETATM   18  N   UNK N   1      27.299  24.886  -4.402  0.00  0.00     0.100 N 
HETATM   19  N   UNK N   1      27.469  22.798  -7.230  0.00  0.00    -0.306 N 
ENDROOT
BRANCH  17  20
HETATM   20  C   UNK N   1      26.469  23.567  -9.340  0.00  0.00     0.315 C 
HETATM   21  O   UNK N   1      27.617  23.719  -9.739  0.00  0.00    -0.260 OA
BRANCH  20  22
HETATM   22  O   UNK N   1      25.417  23.898 -10.130  0.00  0.00    -0.323 OA
HETATM   23  C   UNK N   1      25.561  24.675 -11.256  0.00  0.00     0.213 C 
ENDBRANCH  20  22
ENDBRANCH  17  20
BRANCH  17  24
HETATM   24  O   UNK N   1      25.479  21.859  -8.037  0.00  0.00    -0.362 OA
HETATM   25  H   UNK N   1      24.706  21.338  -7.769  0.00  0.00     0.213 HD
ENDBRANCH  17  24
BRANCH  16  26
HETATM   26  C   UNK N   1      26.415  26.232  -7.803  0.00  0.00     0.008 C 
HETATM   27  C   UNK N   1      27.808  26.846  -7.734  0.00  0.00     0.006 C 
ENDBRANCH  16  26
TORSDOF 4
ENDMDL
MODEL 6
REMARK VINA RESULT:      -6.2     12.386     14.644
REMARK  4 active torsions:
REMARK  status: ('A' for Active; 'I' for Inactive)
REMARK    1  A    between atoms: C_20  and  C_3 
REMARK    2  A    between atoms: C_21  and  C_19 
REMARK    3  A    between atoms: O_26  and  C_19 
REMARK    4  A    between atoms: C_21  and  O_25 
ROOT
HETATM    1  C   UNK N   1      26.336  17.100   4.681  0.00  0.00     0.001 A 
HETATM    2  C   UNK N   1      26.976  16.889   3.436  0.00  0.00     0.002 A 
HETATM    3  C   UNK N   1      34.365  17.139   7.950  0.00  0.00     0.031 C 
HETATM    4  C   UNK N   1      27.082  17.119   5.874  0.00  0.00     0.014 A 
HETATM    5  C   UNK N   1      28.370  16.695   3.368  0.00  0.00     0.030 A 
HETATM    6  C   UNK N   1      29.456  17.152   8.201  0.00  0.00     0.072 C 
HETATM    7  C   UNK N   1      34.299  17.224   6.433  0.00  0.00     0.014 C 
HETATM    8  C   UNK N   1      33.107  17.759   8.580  0.00  0.00     0.273 C 
HETATM    9  C   UNK N   1      30.741  17.974   8.563  0.00  0.00     0.278 C 
HETATM   10  C   UNK N   1      32.825  16.963   4.455  0.00  0.00     0.084 C 
HETATM   11  C   UNK N   1      28.452  16.909   5.779  0.00  0.00    -0.001 A 
HETATM   12  C   UNK N   1      29.440  16.890   6.738  0.00  0.00    -0.019 A 
HETATM   13  C   UNK N   1      29.084  16.703   4.566  0.00  0.00     0.048 A 
HETATM   14  C   UNK N   1      30.604  16.652   6.088  0.00  0.00     0.057 A 
HETATM   15  C   UNK N   1      31.881  16.590   6.830  0.00  0.00     0.281 C 
HETATM   16  C   UNK N   1      33.113  16.423   5.877  0.00  0.00     0.001 C 
HETATM   17  C   UNK N   1      31.521  16.444   3.792  0.00  0.00     0.229 C 
HETATM   18  N   UNK N   1      31.940  17.800   7.681  0.00  0.00     0.100 N 
HETATM   19  N   UNK N   1      30.417  16.574   4.755  0.00  0.00    -0.306 N 
ENDROOT
BRANCH  17  20
HETATM   20  C   UNK N   1      31.670  15.017   3.323  0.00  0.00     0.315 C 
HETATM   21  O   UNK N   1      32.557  14.715   2.535  0.00  0.00    -0.260 OA
BRANCH  20  22
HETATM   22  O   UNK N   1      30.789  14.082   3.757  0.00  0.00    -0.323 OA
HETATM   23  C   UNK N   1      30.065  13.296   2.891  0.00  0.00     0.213 C 
ENDBRANCH  20  22
ENDBRANCH  17  20
BRANCH  17  24
HETATM   24  O   UNK N   1      31.278  17.261   2.685  0.00  0.00    -0.362 OA
HETATM   25  H   UNK N   1      31.123  17.343   1.732  0.00  0.00     0.213 HD
ENDBRANCH  17  24
BRANCH  16  26
HETATM   26  C   UNK N   1      33.486  14.927   5.806  0.00  0.00     0.008 C 
HETATM   27  C   UNK N   1      32.744  14.066   6.820  0.00  0.00     0.006 C 
ENDBRANCH  16  26
TORSDOF 4
ENDMDL
MODEL 7
REMARK VINA RESULT:      -6.1     15.851     18.964
REMARK  4 active torsions:
REMARK  status: ('A' for Active; 'I' for Inactive)
REMARK    1  A    between atoms: C_20  and  C_3 
REMARK    2  A    between atoms: C_21  and  C_19 
REMARK    3  A    between atoms: O_26  and  C_19 
REMARK    4  A    between atoms: C_21  and  O_25 
ROOT
HETATM    1  C   UNK N   1      39.449  12.236   7.943  0.00  0.00     0.001 A 
HETATM    2  C   UNK N   1      39.461  12.682   9.286  0.00  0.00     0.002 A 
HETATM    3  C   UNK N   1      32.437  17.266   7.123  0.00  0.00     0.031 C 
HETATM    4  C   UNK N   1      38.398  12.597   7.080  0.00  0.00     0.014 A 
HETATM    5  C   UNK N   1      38.422  13.495   9.783  0.00  0.00     0.030 A 
HETATM    6  C   UNK N   1      35.713  13.918   5.633  0.00  0.00     0.072 C 
HETATM    7  C   UNK N   1      33.226  17.486   8.404  0.00  0.00     0.014 C 
HETATM    8  C   UNK N   1      33.362  16.779   5.996  0.00  0.00     0.273 C 
HETATM    9  C   UNK N   1      35.122  15.335   5.315  0.00  0.00     0.278 C 
HETATM   10  C   UNK N   1      35.003  16.561   9.867  0.00  0.00     0.084 C 
HETATM   11  C   UNK N   1      37.379  13.385   7.600  0.00  0.00    -0.001 A 
HETATM   12  C   UNK N   1      36.248  13.912   7.019  0.00  0.00    -0.019 A 
HETATM   13  C   UNK N   1      37.385  13.825   8.911  0.00  0.00     0.048 A 
HETATM   14  C   UNK N   1      35.611  14.615   7.986  0.00  0.00     0.057 A 
HETATM   15  C   UNK N   1      34.355  15.336   7.688  0.00  0.00     0.281 C 
HETATM   16  C   UNK N   1      33.849  16.176   8.910  0.00  0.00     0.001 C 
HETATM   17  C   UNK N   1      35.915  15.390  10.323  0.00  0.00     0.229 C 
HETATM   18  N   UNK N   1      34.603  16.139   6.469  0.00  0.00     0.100 N 
HETATM   19  N   UNK N   1      36.307  14.609   9.140  0.00  0.00    -0.306 N 
ENDROOT
BRANCH  17  20
HETATM   20  C   UNK N   1      35.227  14.521  11.347  0.00  0.00     0.315 C 
HETATM   21  O   UNK N   1      34.925  14.978  12.443  0.00  0.00    -0.260 OA
BRANCH  20  22
HETATM   22  O   UNK N   1      34.980  13.221  11.053  0.00  0.00    -0.323 OA
HETATM   23  C   UNK N   1      35.389  12.192  11.870  0.00  0.00     0.213 C 
ENDBRANCH  20  22
ENDBRANCH  17  20
BRANCH  17  24
HETATM   24  O   UNK N   1      37.048  15.964  10.904  0.00  0.00    -0.362 OA
HETATM   25  H   UNK N   1      37.972  16.245  10.819  0.00  0.00     0.213 HD
ENDBRANCH  17  24
BRANCH  16  26
HETATM   26  C   UNK N   1      32.786  15.356   9.670  0.00  0.00     0.008 C 
HETATM   27  C   UNK N   1      32.324  14.114   8.918  0.00  0.00     0.006 C 
ENDBRANCH  16  26
TORSDOF 4
ENDMDL
MODEL 8
REMARK VINA RESULT:      -6.1      2.807      5.847
REMARK  4 active torsions:
REMARK  status: ('A' for Active; 'I' for Inactive)
REMARK    1  A    between atoms: C_20  and  C_3 
REMARK    2  A    between atoms: C_21  and  C_19 
REMARK    3  A    between atoms: O_26  and  C_19 
REMARK    4  A    between atoms: C_21  and  O_25 
ROOT
HETATM    1  C   UNK N   1      30.951  22.395  -3.113  0.00  0.00     0.001 A 
HETATM    2  C   UNK N   1      30.285  23.638  -2.994  0.00  0.00     0.002 A 
HETATM    3  C   UNK N   1      26.974  21.852 -10.797  0.00  0.00     0.031 C 
HETATM    4  C   UNK N   1      30.695  21.549  -4.208  0.00  0.00     0.014 A 
HETATM    5  C   UNK N   1      29.355  24.052  -3.969  0.00  0.00     0.030 A 
HETATM    6  C   UNK N   1      29.692  20.171  -7.062  0.00  0.00     0.072 C 
HETATM    7  C   UNK N   1      26.909  23.225 -10.147  0.00  0.00     0.014 C 
HETATM    8  C   UNK N   1      28.247  21.108 -10.359  0.00  0.00     0.273 C 
HETATM    9  C   UNK N   1      29.714  20.488  -8.597  0.00  0.00     0.278 C 
HETATM   10  C   UNK N   1      27.272  24.484  -8.040  0.00  0.00     0.084 C 
HETATM   11  C   UNK N   1      29.762  21.975  -5.146  0.00  0.00    -0.001 A 
HETATM   12  C   UNK N   1      29.316  21.399  -6.314  0.00  0.00    -0.019 A 
HETATM   13  C   UNK N   1      29.109  23.189  -5.036  0.00  0.00     0.048 A 
HETATM   14  C   UNK N   1      28.411  22.255  -6.844  0.00  0.00     0.057 A 
HETATM   15  C   UNK N   1      27.746  21.947  -8.129  0.00  0.00     0.281 C 
HETATM   16  C   UNK N   1      26.827  23.118  -8.617  0.00  0.00     0.001 C 
HETATM   17  C   UNK N   1      27.476  24.528  -6.502  0.00  0.00     0.229 C 
HETATM   18  N   UNK N   1      28.816  21.584  -9.086  0.00  0.00     0.100 N 
HETATM   19  N   UNK N   1      28.296  23.374  -6.102  0.00  0.00    -0.306 N 
ENDROOT
BRANCH  17  20
HETATM   20  C   UNK N   1      26.157  24.539  -5.769  0.00  0.00     0.315 C 
HETATM   21  O   UNK N   1      25.953  23.755  -4.850  0.00  0.00    -0.260 OA
BRANCH  20  22
HETATM   22  O   UNK N   1      25.188  25.403  -6.162  0.00  0.00    -0.323 OA
HETATM   23  C   UNK N   1      25.007  26.627  -5.562  0.00  0.00     0.213 C 
ENDBRANCH  20  22
ENDBRANCH  17  20
BRANCH  17  24
HETATM   24  O   UNK N   1      28.162  25.712  -6.219  0.00  0.00    -0.362 OA
HETATM   25  H   UNK N   1      28.786  26.397  -6.503  0.00  0.00     0.213 HD
ENDBRANCH  17  24
BRANCH  16  26
HETATM   26  C   UNK N   1      25.373  22.817  -8.195  0.00  0.00     0.008 C 
HETATM   27  C   UNK N   1      25.153  21.373  -7.759  0.00  0.00     0.006 C 
ENDBRANCH  16  26
TORSDOF 4
ENDMDL
MODEL 9
REMARK VINA RESULT:      -6.1     19.115     22.288
REMARK  4 active torsions:
REMARK  status: ('A' for Active; 'I' for Inactive)
REMARK    1  A    between atoms: C_20  and  C_3 
REMARK    2  A    between atoms: C_21  and  C_19 
REMARK    3  A    between atoms: O_26  and  C_19 
REMARK    4  A    between atoms: C_21  and  O_25 
ROOT
HETATM    1  C   UNK N   1      34.175  11.116  15.765  0.00  0.00     0.001 A 
HETATM    2  C   UNK N   1      34.903  12.331  15.737  0.00  0.00     0.002 A 
HETATM    3  C   UNK N   1      35.687  10.889   7.232  0.00  0.00     0.031 C 
HETATM    4  C   UNK N   1      33.873  10.438  14.570  0.00  0.00     0.014 A 
HETATM    5  C   UNK N   1      35.337  12.881  14.514  0.00  0.00     0.030 A 
HETATM    6  C   UNK N   1      33.640   9.364  11.432  0.00  0.00     0.072 C 
HETATM    7  C   UNK N   1      36.503  11.923   7.991  0.00  0.00     0.014 C 
HETATM    8  C   UNK N   1      35.344   9.699   8.142  0.00  0.00     0.273 C 
HETATM    9  C   UNK N   1      34.587   8.933  10.260  0.00  0.00     0.278 C 
HETATM   10  C   UNK N   1      36.736  13.129  10.146  0.00  0.00     0.084 C 
HETATM   11  C   UNK N   1      34.299  11.011  13.378  0.00  0.00    -0.001 A 
HETATM   12  C   UNK N   1      34.181  10.592  12.072  0.00  0.00    -0.019 A 
HETATM   13  C   UNK N   1      35.011  12.196  13.344  0.00  0.00     0.048 A 
HETATM   14  C   UNK N   1      34.790  11.531  11.310  0.00  0.00     0.057 A 
HETATM   15  C   UNK N   1      34.865  11.376   9.841  0.00  0.00     0.281 C 
HETATM   16  C   UNK N   1      35.709  12.511   9.167  0.00  0.00     0.001 C 
HETATM   17  C   UNK N   1      36.166  13.585  11.516  0.00  0.00     0.229 C 
HETATM   18  N   UNK N   1      35.377  10.011   9.582  0.00  0.00     0.100 N 
HETATM   19  N   UNK N   1      35.339  12.501  12.068  0.00  0.00    -0.306 N 
ENDROOT
BRANCH  17  20
HETATM   20  C   UNK N   1      35.375  14.864  11.388  0.00  0.00     0.315 C 
HETATM   21  O   UNK N   1      34.188  14.887  11.687  0.00  0.00    -0.260 OA
BRANCH  20  22
HETATM   22  O   UNK N   1      35.984  15.974  10.904  0.00  0.00    -0.323 OA
HETATM   23  C   UNK N   1      35.302  16.937  10.195  0.00  0.00     0.213 C 
ENDBRANCH  20  22
ENDBRANCH  17  20
BRANCH  17  24
HETATM   24  O   UNK N   1      37.262  13.813  12.353  0.00  0.00    -0.362 OA
HETATM   25  H   UNK N   1      37.978  13.453  12.899  0.00  0.00     0.213 HD
ENDBRANCH  17  24
BRANCH  16  26
HETATM   26  C   UNK N   1      34.749  13.603   8.651  0.00  0.00     0.008 C 
HETATM   27  C   UNK N   1      33.283  13.192   8.689  0.00  0.00     0.006 C 
ENDBRANCH  16  26
TORSDOF 4
ENDMDL
