MODEL 1
REMARK VINA RESULT:      -6.5      0.000      0.000
REMARK  6 active torsions:
REMARK  status: ('A' for Active; 'I' for Inactive)
REMARK    1  A    between atoms: C_1  and  C_13 
REMARK    2  A    between atoms: C_6  and  O_7 
REMARK    3  A    between atoms: C_13  and  C_14 
REMARK    4  A    between atoms: C_13  and  C_16 
REMARK    5  A    between atoms: C_16  and  C_17 
REMARK    6  A    between atoms: C_17  and  O_18 
ROOT
HETATM    1  C   UNK N   1      26.109  25.838  -7.637  0.00  0.00    -0.052 A 
HETATM    2  C   UNK N   1      25.538  26.271  -6.428  0.00  0.00     0.020 A 
HETATM    3  C   UNK N   1      26.032  27.393  -5.763  0.00  0.00    -0.025 A 
HETATM    4  C   UNK N   1      27.144  28.087  -6.286  0.00  0.00    -0.023 A 
HETATM    5  C   UNK N   1      27.655  29.195  -5.602  0.00  0.00     0.049 A 
HETATM    6  C   UNK N   1      27.061  29.627  -4.409  0.00  0.00     0.069 A 
HETATM    7  C   UNK N   1      25.939  28.941  -3.906  0.00  0.00     0.037 A 
HETATM    8  C   UNK N   1      25.431  27.828  -4.580  0.00  0.00     0.015 A 
HETATM    9  C   UNK N   1      27.722  27.663  -7.484  0.00  0.00     0.013 A 
HETATM   10  C   UNK N   1      27.199  26.555  -8.163  0.00  0.00     0.008 A 
ENDROOT
BRANCH   1  11
HETATM   11  C   UNK N   1      25.542  24.591  -8.314  0.00  0.00     0.036 C 
BRANCH  11  12
HETATM   12  C   UNK N   1      25.819  24.659  -9.822  0.00  0.00     0.006 C 
HETATM   13  C   UNK N   1      24.724  25.448 -10.516  0.00  0.00     0.006 C 
ENDBRANCH  11  12
BRANCH  11  14
HETATM   14  C   UNK N   1      25.931  23.188  -7.728  0.00  0.00     0.046 C 
HETATM   15  C   UNK N   1      27.368  22.858  -8.110  0.00  0.00     0.027 C 
HETATM   16  C   UNK N   1      25.851  23.232  -6.208  0.00  0.00     0.027 C 
BRANCH  14  17
HETATM   17  C   UNK N   1      25.090  22.031  -8.232  0.00  0.00     0.148 C 
HETATM   18  O   UNK N   1      25.598  21.048  -8.731  0.00  0.00    -0.649 OA
BRANCH  17  19
HETATM   19  O   UNK N   1      23.745  22.083  -8.092  0.00  0.00    -0.776 OA
HETATM   20  H   UNK N   1      23.182  21.378  -8.345  0.00  0.00     0.167 HD
ENDBRANCH  17  19
ENDBRANCH  14  17
ENDBRANCH  11  14
ENDBRANCH   1  11
BRANCH   6  21
HETATM   21  O   UNK N   1      27.582  30.697  -3.762  0.00  0.00    -0.356 OA
HETATM   22  C   UNK N   1      27.839  30.710  -2.409  0.00  0.00     0.210 C 
ENDBRANCH   6  21
TORSDOF 6
ENDMDL
MODEL 2
REMARK VINA RESULT:      -6.4     12.594     14.656
REMARK  6 active torsions:
REMARK  status: ('A' for Active; 'I' for Inactive)
REMARK    1  A    between atoms: C_1  and  C_13 
REMARK    2  A    between atoms: C_6  and  O_7 
REMARK    3  A    between atoms: C_13  and  C_14 
REMARK    4  A    between atoms: C_13  and  C_16 
REMARK    5  A    between atoms: C_16  and  C_17 
REMARK    6  A    between atoms: C_17  and  O_18 
ROOT
HETATM    1  C   UNK N   1      27.707  18.666   5.345  0.00  0.00    -0.052 A 
HETATM    2  C   UNK N   1      26.383  18.197   5.353  0.00  0.00     0.020 A 
HETATM    3  C   UNK N   1      25.397  18.819   4.586  0.00  0.00    -0.025 A 
HETATM    4  C   UNK N   1      25.719  19.958   3.818  0.00  0.00    -0.023 A 
HETATM    5  C   UNK N   1      24.722  20.597   3.072  0.00  0.00     0.049 A 
HETATM    6  C   UNK N   1      23.411  20.104   3.074  0.00  0.00     0.069 A 
HETATM    7  C   UNK N   1      23.104  18.954   3.826  0.00  0.00     0.037 A 
HETATM    8  C   UNK N   1      24.093  18.319   4.581  0.00  0.00     0.015 A 
HETATM    9  C   UNK N   1      27.031  20.436   3.806  0.00  0.00     0.013 A 
HETATM   10  C   UNK N   1      28.022  19.785   4.553  0.00  0.00     0.008 A 
ENDROOT
BRANCH   1  11
HETATM   11  C   UNK N   1      28.743  17.961   6.219  0.00  0.00     0.036 C 
BRANCH  11  12
HETATM   12  C   UNK N   1      28.085  17.515   7.531  0.00  0.00     0.006 C 
HETATM   13  C   UNK N   1      28.279  18.578   8.596  0.00  0.00     0.006 C 
ENDBRANCH  11  12
BRANCH  11  14
HETATM   14  C   UNK N   1      29.582  16.798   5.580  0.00  0.00     0.046 C 
HETATM   15  C   UNK N   1      30.820  16.540   6.430  0.00  0.00     0.027 C 
HETATM   16  C   UNK N   1      28.752  15.521   5.566  0.00  0.00     0.027 C 
BRANCH  14  17
HETATM   17  C   UNK N   1      30.089  17.072   4.178  0.00  0.00     0.148 C 
HETATM   18  O   UNK N   1      29.583  16.546   3.208  0.00  0.00    -0.649 OA
BRANCH  17  19
HETATM   19  O   UNK N   1      31.107  17.946   4.003  0.00  0.00    -0.776 OA
HETATM   20  H   UNK N   1      31.037  18.854   4.223  0.00  0.00     0.167 HD
ENDBRANCH  17  19
ENDBRANCH  14  17
ENDBRANCH  11  14
ENDBRANCH   1  11
BRANCH   6  21
HETATM   21  O   UNK N   1      22.464  20.748   2.350  0.00  0.00    -0.356 OA
HETATM   22  C   UNK N   1      21.120  20.694   2.648  0.00  0.00     0.210 C 
ENDBRANCH   6  21
TORSDOF 6
ENDMDL
MODEL 3
REMARK VINA RESULT:      -6.4     24.402     25.939
REMARK  6 active torsions:
REMARK  status: ('A' for Active; 'I' for Inactive)
REMARK    1  A    between atoms: C_1  and  C_13 
REMARK    2  A    between atoms: C_6  and  O_7 
REMARK    3  A    between atoms: C_13  and  C_14 
REMARK    4  A    between atoms: C_13  and  C_16 
REMARK    5  A    between atoms: C_16  and  C_17 
REMARK    6  A    between atoms: C_17  and  O_18 
ROOT
HETATM    1  C   UNK N   1      35.848  13.072  12.617  0.00  0.00    -0.052 A 
HETATM    2  C   UNK N   1      36.507  13.930  13.514  0.00  0.00     0.020 A 
HETATM    3  C   UNK N   1      36.213  13.904  14.878  0.00  0.00    -0.025 A 
HETATM    4  C   UNK N   1      35.216  13.033  15.366  0.00  0.00    -0.023 A 
HETATM    5  C   UNK N   1      34.903  13.029  16.729  0.00  0.00     0.049 A 
HETATM    6  C   UNK N   1      35.584  13.876  17.614  0.00  0.00     0.069 A 
HETATM    7  C   UNK N   1      36.592  14.726  17.121  0.00  0.00     0.037 A 
HETATM    8  C   UNK N   1      36.900  14.741  15.759  0.00  0.00     0.015 A 
HETATM    9  C   UNK N   1      34.552  12.178  14.483  0.00  0.00     0.013 A 
HETATM   10  C   UNK N   1      34.876  12.187  13.120  0.00  0.00     0.008 A 
ENDROOT
BRANCH   1  11
HETATM   11  C   UNK N   1      36.193  13.155  11.131  0.00  0.00     0.036 C 
BRANCH  11  12
HETATM   12  C   UNK N   1      36.449  11.743  10.587  0.00  0.00     0.006 C 
HETATM   13  C   UNK N   1      37.907  11.370  10.778  0.00  0.00     0.006 C 
ENDBRANCH  11  12
BRANCH  11  14
HETATM   14  C   UNK N   1      35.229  13.960  10.190  0.00  0.00     0.046 C 
HETATM   15  C   UNK N   1      36.030  14.580   9.052  0.00  0.00     0.027 C 
HETATM   16  C   UNK N   1      34.207  13.011   9.577  0.00  0.00     0.027 C 
BRANCH  14  17
HETATM   17  C   UNK N   1      34.496  15.108  10.857  0.00  0.00     0.148 C 
HETATM   18  O   UNK N   1      35.053  16.160  11.097  0.00  0.00    -0.649 OA
BRANCH  17  19
HETATM   19  O   UNK N   1      33.186  14.966  11.162  0.00  0.00    -0.776 OA
HETATM   20  H   UNK N   1      32.820  15.262  11.972  0.00  0.00     0.167 HD
ENDBRANCH  17  19
ENDBRANCH  14  17
ENDBRANCH  11  14
ENDBRANCH   1  11
BRANCH   6  21
HETATM   21  O   UNK N   1      35.255  13.858  18.928  0.00  0.00    -0.356 OA
HETATM   22  C   UNK N   1      35.197  12.703  19.676  0.00  0.00     0.210 C 
ENDBRANCH   6  21
TORSDOF 6
ENDMDL
MODEL 4
REMARK VINA RESULT:      -6.3     16.340     18.238
REMARK  6 active torsions:
REMARK  status: ('A' for Active; 'I' for Inactive)
REMARK    1  A    between atoms: C_1  and  C_13 
REMARK    2  A    between atoms: C_6  and  O_7 
REMARK    3  A    between atoms: C_13  and  C_14 
REMARK    4  A    between atoms: C_13  and  C_16 
REMARK    5  A    between atoms: C_16  and  C_17 
REMARK    6  A    between atoms: C_17  and  O_18 
ROOT
HETATM    1  C   UNK N   1      31.199  17.004   8.116  0.00  0.00    -0.052 A 
HETATM    2  C   UNK N   1      30.753  16.931   6.785  0.00  0.00     0.020 A 
HETATM    3  C   UNK N   1      29.619  17.629   6.370  0.00  0.00    -0.025 A 
HETATM    4  C   UNK N   1      28.884  18.393   7.301  0.00  0.00    -0.023 A 
HETATM    5  C   UNK N   1      27.730  19.070   6.888  0.00  0.00     0.049 A 
HETATM    6  C   UNK N   1      27.311  19.004   5.553  0.00  0.00     0.069 A 
HETATM    7  C   UNK N   1      28.063  18.257   4.626  0.00  0.00     0.037 A 
HETATM    8  C   UNK N   1      29.209  17.572   5.036  0.00  0.00     0.015 A 
HETATM    9  C   UNK N   1      29.315  18.469   8.627  0.00  0.00     0.013 A 
HETATM   10  C   UNK N   1      30.473  17.791   9.028  0.00  0.00     0.008 A 
ENDROOT
BRANCH   1  11
HETATM   11  C   UNK N   1      32.435  16.203   8.522  0.00  0.00     0.036 C 
BRANCH  11  12
HETATM   12  C   UNK N   1      32.452  14.870   7.762  0.00  0.00     0.006 C 
HETATM   13  C   UNK N   1      32.601  13.718   8.737  0.00  0.00     0.006 C 
ENDBRANCH  11  12
BRANCH  11  14
HETATM   14  C   UNK N   1      33.833  16.913   8.455  0.00  0.00     0.046 C 
HETATM   15  C   UNK N   1      34.706  16.218   7.419  0.00  0.00     0.027 C 
HETATM   16  C   UNK N   1      33.648  18.359   8.015  0.00  0.00     0.027 C 
BRANCH  14  17
HETATM   17  C   UNK N   1      34.623  16.889   9.749  0.00  0.00     0.148 C 
HETATM   18  O   UNK N   1      35.529  17.671   9.953  0.00  0.00    -0.649 OA
BRANCH  17  19
HETATM   19  O   UNK N   1      34.288  15.997  10.710  0.00  0.00    -0.776 OA
HETATM   20  H   UNK N   1      34.825  15.261  10.926  0.00  0.00     0.167 HD
ENDBRANCH  17  19
ENDBRANCH  14  17
ENDBRANCH  11  14
ENDBRANCH   1  11
BRANCH   6  21
HETATM   21  O   UNK N   1      26.186  19.661   5.183  0.00  0.00    -0.356 OA
HETATM   22  C   UNK N   1      25.211  19.100   4.388  0.00  0.00     0.210 C 
ENDBRANCH   6  21
TORSDOF 6
ENDMDL
MODEL 5
REMARK VINA RESULT:      -6.2     29.858     31.591
REMARK  6 active torsions:
REMARK  status: ('A' for Active; 'I' for Inactive)
REMARK    1  A    between atoms: C_1  and  C_13 
REMARK    2  A    between atoms: C_6  and  O_7 
REMARK    3  A    between atoms: C_13  and  C_14 
REMARK    4  A    between atoms: C_13  and  C_16 
REMARK    5  A    between atoms: C_16  and  C_17 
REMARK    6  A    between atoms: C_17  and  O_18 
ROOT
HETATM    1  C   UNK N   1      35.099  11.131  19.641  0.00  0.00    -0.052 A 
HETATM    2  C   UNK N   1      34.898  10.399  18.459  0.00  0.00     0.020 A 
HETATM    3  C   UNK N   1      34.887  11.032  17.216  0.00  0.00    -0.025 A 
HETATM    4  C   UNK N   1      35.045  12.432  17.139  0.00  0.00    -0.023 A 
HETATM    5  C   UNK N   1      35.006  13.069  15.894  0.00  0.00     0.049 A 
HETATM    6  C   UNK N   1      34.825  12.322  14.722  0.00  0.00     0.069 A 
HETATM    7  C   UNK N   1      34.690  10.923  14.807  0.00  0.00     0.037 A 
HETATM    8  C   UNK N   1      34.718  10.284  16.049  0.00  0.00     0.015 A 
HETATM    9  C   UNK N   1      35.242  13.171  18.308  0.00  0.00     0.013 A 
HETATM   10  C   UNK N   1      35.284  12.523  19.549  0.00  0.00     0.008 A 
ENDROOT
BRANCH   1  11
HETATM   11  C   UNK N   1      35.082  10.391  20.978  0.00  0.00     0.036 C 
BRANCH  11  12
HETATM   12  C   UNK N   1      33.829   9.507  21.054  0.00  0.00     0.006 C 
HETATM   13  C   UNK N   1      32.770  10.179  21.907  0.00  0.00     0.006 C 
ENDBRANCH  11  12
BRANCH  11  14
HETATM   14  C   UNK N   1      36.366   9.594  21.401  0.00  0.00     0.046 C 
HETATM   15  C   UNK N   1      36.199   8.127  21.028  0.00  0.00     0.027 C 
HETATM   16  C   UNK N   1      37.572  10.134  20.643  0.00  0.00     0.027 C 
BRANCH  14  17
HETATM   17  C   UNK N   1      36.669   9.615  22.887  0.00  0.00     0.148 C 
HETATM   18  O   UNK N   1      36.175   8.807  23.645  0.00  0.00    -0.649 OA
BRANCH  17  19
HETATM   19  O   UNK N   1      37.535  10.536  23.370  0.00  0.00    -0.776 OA
HETATM   20  H   UNK N   1      38.235  10.315  23.952  0.00  0.00     0.167 HD
ENDBRANCH  17  19
ENDBRANCH  14  17
ENDBRANCH  11  14
ENDBRANCH   1  11
BRANCH   6  21
HETATM   21  O   UNK N   1      34.782  12.964  13.531  0.00  0.00    -0.356 OA
HETATM   22  C   UNK N   1      35.654  13.973  13.185  0.00  0.00     0.210 C 
ENDBRANCH   6  21
TORSDOF 6
ENDMDL
MODEL 6
REMARK VINA RESULT:      -6.2     12.526     14.616
REMARK  6 active torsions:
REMARK  status: ('A' for Active; 'I' for Inactive)
REMARK    1  A    between atoms: C_1  and  C_13 
REMARK    2  A    between atoms: C_6  and  O_7 
REMARK    3  A    between atoms: C_13  and  C_14 
REMARK    4  A    between atoms: C_13  and  C_16 
REMARK    5  A    between atoms: C_16  and  C_17 
REMARK    6  A    between atoms: C_17  and  O_18 
ROOT
HETATM    1  C   UNK N   1      27.116  18.388   4.659  0.00  0.00    -0.052 A 
HETATM    2  C   UNK N   1      25.767  18.007   4.755  0.00  0.00     0.020 A 
HETATM    3  C   UNK N   1      24.762  18.772   4.163  0.00  0.00    -0.025 A 
HETATM    4  C   UNK N   1      25.093  19.966   3.487  0.00  0.00    -0.023 A 
HETATM    5  C   UNK N   1      24.081  20.746   2.918  0.00  0.00     0.049 A 
HETATM    6  C   UNK N   1      22.742  20.342   3.005  0.00  0.00     0.069 A 
HETATM    7  C   UNK N   1      22.423  19.138   3.662  0.00  0.00     0.037 A 
HETATM    8  C   UNK N   1      23.430  18.362   4.241  0.00  0.00     0.015 A 
HETATM    9  C   UNK N   1      26.431  20.356   3.388  0.00  0.00     0.013 A 
HETATM   10  C   UNK N   1      27.437  19.565   3.958  0.00  0.00     0.008 A 
ENDROOT
BRANCH   1  11
HETATM   11  C   UNK N   1      28.175  17.525   5.342  0.00  0.00     0.036 C 
BRANCH  11  12
HETATM   12  C   UNK N   1      29.491  17.615   4.558  0.00  0.00     0.006 C 
HETATM   13  C   UNK N   1      29.541  16.527   3.501  0.00  0.00     0.006 C 
ENDBRANCH  11  12
BRANCH  11  14
HETATM   14  C   UNK N   1      28.416  17.726   6.881  0.00  0.00     0.046 C 
HETATM   15  C   UNK N   1      27.623  16.684   7.659  0.00  0.00     0.027 C 
HETATM   16  C   UNK N   1      29.891  17.520   7.195  0.00  0.00     0.027 C 
BRANCH  14  17
HETATM   17  C   UNK N   1      27.980  19.073   7.424  0.00  0.00     0.148 C 
HETATM   18  O   UNK N   1      28.187  20.100   6.812  0.00  0.00    -0.649 OA
BRANCH  17  19
HETATM   19  O   UNK N   1      27.316  19.125   8.602  0.00  0.00    -0.776 OA
HETATM   20  H   UNK N   1      27.236  18.385   9.170  0.00  0.00     0.167 HD
ENDBRANCH  17  19
ENDBRANCH  14  17
ENDBRANCH  11  14
ENDBRANCH   1  11
BRANCH   6  21
HETATM   21  O   UNK N   1      21.781  21.121   2.453  0.00  0.00    -0.356 OA
HETATM   22  C   UNK N   1      20.744  20.620   1.698  0.00  0.00     0.210 C 
ENDBRANCH   6  21
TORSDOF 6
ENDMDL
MODEL 7
REMARK VINA RESULT:      -6.1     14.027     15.952
REMARK  6 active torsions:
REMARK  status: ('A' for Active; 'I' for Inactive)
REMARK    1  A    between atoms: C_1  and  C_13 
REMARK    2  A    between atoms: C_6  and  O_7 
REMARK    3  A    between atoms: C_13  and  C_14 
REMARK    4  A    between atoms: C_13  and  C_16 
REMARK    5  A    between atoms: C_16  and  C_17 
REMARK    6  A    between atoms: C_17  and  O_18 
ROOT
HETATM    1  C   UNK N   1      28.333  17.703   5.316  0.00  0.00    -0.052 A 
HETATM    2  C   UNK N   1      29.484  17.801   4.516  0.00  0.00     0.020 A 
HETATM    3  C   UNK N   1      30.752  17.582   5.054  0.00  0.00    -0.025 A 
HETATM    4  C   UNK N   1      30.892  17.293   6.428  0.00  0.00    -0.023 A 
HETATM    5  C   UNK N   1      32.167  17.101   6.971  0.00  0.00     0.049 A 
HETATM    6  C   UNK N   1      33.304  17.181   6.156  0.00  0.00     0.069 A 
HETATM    7  C   UNK N   1      33.152  17.449   4.782  0.00  0.00     0.037 A 
HETATM    8  C   UNK N   1      31.882  17.651   4.237  0.00  0.00     0.015 A 
HETATM    9  C   UNK N   1      29.755  17.196   7.234  0.00  0.00     0.013 A 
HETATM   10  C   UNK N   1      28.483  17.386   6.679  0.00  0.00     0.008 A 
ENDROOT
BRANCH   1  11
HETATM   11  C   UNK N   1      26.970  17.973   4.681  0.00  0.00     0.036 C 
BRANCH  11  12
HETATM   12  C   UNK N   1      25.937  16.994   5.255  0.00  0.00     0.006 C 
HETATM   13  C   UNK N   1      25.860  15.752   4.387  0.00  0.00     0.006 C 
ENDBRANCH  11  12
BRANCH  11  14
HETATM   14  C   UNK N   1      26.425  19.445   4.693  0.00  0.00     0.046 C 
HETATM   15  C   UNK N   1      26.852  20.154   3.414  0.00  0.00     0.027 C 
HETATM   16  C   UNK N   1      24.902  19.423   4.727  0.00  0.00     0.027 C 
BRANCH  14  17
HETATM   17  C   UNK N   1      26.931  20.304   5.835  0.00  0.00     0.148 C 
HETATM   18  O   UNK N   1      27.840  21.093   5.680  0.00  0.00    -0.649 OA
BRANCH  17  19
HETATM   19  O   UNK N   1      26.333  20.211   7.045  0.00  0.00    -0.776 OA
HETATM   20  H   UNK N   1      25.770  20.880   7.384  0.00  0.00     0.167 HD
ENDBRANCH  17  19
ENDBRANCH  14  17
ENDBRANCH  11  14
ENDBRANCH   1  11
BRANCH   6  21
HETATM   21  O   UNK N   1      34.527  17.000   6.709  0.00  0.00    -0.356 OA
HETATM   22  C   UNK N   1      34.714  16.496   7.977  0.00  0.00     0.210 C 
ENDBRANCH   6  21
TORSDOF 6
ENDMDL
MODEL 8
REMARK VINA RESULT:      -6.1     29.825     31.570
REMARK  6 active torsions:
REMARK  status: ('A' for Active; 'I' for Inactive)
REMARK    1  A    between atoms: C_1  and  C_13 
REMARK    2  A    between atoms: C_6  and  O_7 
REMARK    3  A    between atoms: C_13  and  C_14 
REMARK    4  A    between atoms: C_13  and  C_16 
REMARK    5  A    between atoms: C_16  and  C_17 
REMARK    6  A    between atoms: C_17  and  O_18 
ROOT
HETATM    1  C   UNK N   1      35.132  10.368  19.637  0.00  0.00    -0.052 A 
HETATM    2  C   UNK N   1      34.918   9.870  18.340  0.00  0.00     0.020 A 
HETATM    3  C   UNK N   1      34.901  10.725  17.238  0.00  0.00    -0.025 A 
HETATM    4  C   UNK N   1      35.065  12.114  17.423  0.00  0.00    -0.023 A 
HETATM    5  C   UNK N   1      35.019  12.972  16.319  0.00  0.00     0.049 A 
HETATM    6  C   UNK N   1      34.826  12.458  15.030  0.00  0.00     0.069 A 
HETATM    7  C   UNK N   1      34.685  11.068  14.853  0.00  0.00     0.037 A 
HETATM    8  C   UNK N   1      34.719  10.209  15.953  0.00  0.00     0.015 A 
HETATM    9  C   UNK N   1      35.275  12.620  18.707  0.00  0.00     0.013 A 
HETATM   10  C   UNK N   1      35.323  11.752  19.805  0.00  0.00     0.008 A 
ENDROOT
BRANCH   1  11
HETATM   11  C   UNK N   1      35.121   9.391  20.811  0.00  0.00     0.036 C 
BRANCH  11  12
HETATM   12  C   UNK N   1      36.246   9.756  21.789  0.00  0.00     0.006 C 
HETATM   13  C   UNK N   1      37.584   9.310  21.232  0.00  0.00     0.006 C 
ENDBRANCH  11  12
BRANCH  11  14
HETATM   14  C   UNK N   1      33.766   9.155  21.567  0.00  0.00     0.046 C 
HETATM   15  C   UNK N   1      32.613   9.222  20.574  0.00  0.00     0.027 C 
HETATM   16  C   UNK N   1      33.765   7.765  22.189  0.00  0.00     0.027 C 
BRANCH  14  17
HETATM   17  C   UNK N   1      33.449  10.176  22.643  0.00  0.00     0.148 C 
HETATM   18  O   UNK N   1      33.632   9.935  23.818  0.00  0.00    -0.649 OA
BRANCH  17  19
HETATM   19  O   UNK N   1      32.983  11.393  22.280  0.00  0.00    -0.776 OA
HETATM   20  H   UNK N   1      32.142  11.516  21.887  0.00  0.00     0.167 HD
ENDBRANCH  17  19
ENDBRANCH  14  17
ENDBRANCH  11  14
ENDBRANCH   1  11
BRANCH   6  21
HETATM   21  O   UNK N   1      34.776  13.312  13.980  0.00  0.00    -0.356 OA
HETATM   22  C   UNK N   1      35.867  14.026  13.536  0.00  0.00     0.210 C 
ENDBRANCH   6  21
TORSDOF 6
ENDMDL
MODEL 9
REMARK VINA RESULT:      -6.0     14.329     16.352
REMARK  6 active torsions:
REMARK  status: ('A' for Active; 'I' for Inactive)
REMARK    1  A    between atoms: C_1  and  C_13 
REMARK    2  A    between atoms: C_6  and  O_7 
REMARK    3  A    between atoms: C_13  and  C_14 
REMARK    4  A    between atoms: C_13  and  C_16 
REMARK    5  A    between atoms: C_16  and  C_17 
REMARK    6  A    between atoms: C_17  and  O_18 
ROOT
HETATM    1  C   UNK N   1      30.366  16.743   5.322  0.00  0.00    -0.052 A 
HETATM    2  C   UNK N   1      29.862  17.986   4.903  0.00  0.00     0.020 A 
HETATM    3  C   UNK N   1      28.489  18.233   4.880  0.00  0.00    -0.025 A 
HETATM    4  C   UNK N   1      27.586  17.213   5.247  0.00  0.00    -0.023 A 
HETATM    5  C   UNK N   1      26.208  17.453   5.196  0.00  0.00     0.049 A 
HETATM    6  C   UNK N   1      25.722  18.705   4.796  0.00  0.00     0.069 A 
HETATM    7  C   UNK N   1      26.632  19.723   4.453  0.00  0.00     0.037 A 
HETATM    8  C   UNK N   1      28.007  19.484   4.492  0.00  0.00     0.015 A 
HETATM    9  C   UNK N   1      28.075  15.972   5.661  0.00  0.00     0.013 A 
HETATM   10  C   UNK N   1      29.456  15.743   5.713  0.00  0.00     0.008 A 
ENDROOT
BRANCH   1  11
HETATM   11  C   UNK N   1      31.877  16.519   5.309  0.00  0.00     0.036 C 
BRANCH  11  12
HETATM   12  C   UNK N   1      32.526  17.481   4.305  0.00  0.00     0.006 C 
HETATM   13  C   UNK N   1      32.837  16.751   3.012  0.00  0.00     0.006 C 
ENDBRANCH  11  12
BRANCH  11  14
HETATM   14  C   UNK N   1      32.640  16.530   6.681  0.00  0.00     0.046 C 
HETATM   15  C   UNK N   1      31.973  17.521   7.625  0.00  0.00     0.027 C 
HETATM   16  C   UNK N   1      32.557  15.150   7.319  0.00  0.00     0.027 C 
BRANCH  14  17
HETATM   17  C   UNK N   1      34.095  16.947   6.598  0.00  0.00     0.148 C 
HETATM   18  O   UNK N   1      34.943  16.202   6.152  0.00  0.00    -0.649 OA
BRANCH  17  19
HETATM   19  O   UNK N   1      34.449  18.190   7.001  0.00  0.00    -0.776 OA
HETATM   20  H   UNK N   1      34.571  18.413   7.902  0.00  0.00     0.167 HD
ENDBRANCH  17  19
ENDBRANCH  14  17
ENDBRANCH  11  14
ENDBRANCH   1  11
BRANCH   6  21
HETATM   21  O   UNK N   1      24.384  18.907   4.747  0.00  0.00    -0.356 OA
HETATM   22  C   UNK N   1      23.461  17.938   5.075  0.00  0.00     0.210 C 
ENDBRANCH   6  21
TORSDOF 6
ENDMDL
