MODEL 1
REMARK VINA RESULT:      -5.8      0.000      0.000
REMARK  6 active torsions:
REMARK  status: ('A' for Active; 'I' for Inactive)
REMARK    1  A    between atoms: C_6  and  C_2 
REMARK    2  A    between atoms: C_8  and  C_5 
REMARK    3  A    between atoms: O_15  and  C_5 
REMARK    4  A    between atoms: C_7  and  O_16 
REMARK    5  A    between atoms: C_9  and  N_14 
REMARK    6  A    between atoms: O_17  and  C_10 
ROOT
HETATM    1  C   UNK N   1      35.292  11.322  17.636  0.00  0.00     0.110 A 
HETATM    2  C   UNK N   1      35.314  10.660  18.861  0.00  0.00     0.008 A 
HETATM    3  C   UNK N   1      35.320  11.420  20.033  0.00  0.00     0.151 A 
HETATM    4  C   UNK N   1      35.274  13.420  18.745  0.00  0.00     0.330 A 
HETATM    5  N   UNK N   1      35.288  12.772  19.955  0.00  0.00    -0.288 N 
ATOM      6  HN  UNK N   1      35.274  13.320  20.815  1.00  0.00     0.172 HD
HETATM    7  N   UNK N   1      35.290  12.683  17.564  0.00  0.00    -0.282 N 
HETATM    8  O   UNK N   1      35.257  14.635  18.733  0.00  0.00    -0.246 OA
ENDROOT
BRANCH   7   9
HETATM    9  C   UNK N   1      35.385  13.266  16.202  0.00  0.00     0.235 C 
HETATM   10  C   UNK N   1      34.297  12.847  15.206  0.00  0.00     0.088 C 
HETATM   11  C   UNK N   1      35.092  12.301  14.063  0.00  0.00     0.153 C 
HETATM   12  C   UNK N   1      36.413  13.020  14.224  0.00  0.00     0.176 C 
HETATM   13  O   UNK N   1      36.654  13.015  15.615  0.00  0.00    -0.356 OA
BRANCH  11  14
HETATM   14  O   UNK N   1      34.483  12.537  12.828  0.00  0.00    -0.393 OA
HETATM   15  H   UNK N   1      34.948  12.639  11.983  0.00  0.00     0.210 HD
ENDBRANCH  11  14
BRANCH  12  16
HETATM   16  C   UNK N   1      36.367  14.465  13.702  0.00  0.00     0.198 C 
BRANCH  16  17
HETATM   17  O   UNK N   1      36.659  14.498  12.338  0.00  0.00    -0.398 OA
HETATM   18  H   UNK N   1      37.581  14.486  12.035  0.00  0.00     0.209 HD
ENDBRANCH  16  17
ENDBRANCH  12  16
ENDBRANCH   7   9
BRANCH   2  19
HETATM   19  C   UNK N   1      35.348   9.166  18.887  0.00  0.00     0.040 C 
HETATM   20  C   UNK N   1      33.944   8.599  18.997  0.00  0.00     0.010 C 
ENDBRANCH   2  19
BRANCH   3  21
HETATM   21  O   UNK N   1      35.360  10.824  21.239  0.00  0.00    -0.346 OA
HETATM   22  H   UNK N   1      34.656  10.903  21.852  0.00  0.00     0.219 HD
ENDBRANCH   3  21
TORSDOF 6
ENDMDL
MODEL 2
REMARK VINA RESULT:      -5.6      9.312     12.819
REMARK  6 active torsions:
REMARK  status: ('A' for Active; 'I' for Inactive)
REMARK    1  A    between atoms: C_6  and  C_2 
REMARK    2  A    between atoms: C_8  and  C_5 
REMARK    3  A    between atoms: O_15  and  C_5 
REMARK    4  A    between atoms: C_7  and  O_16 
REMARK    5  A    between atoms: C_9  and  N_14 
REMARK    6  A    between atoms: O_17  and  C_10 
ROOT
HETATM    1  C   UNK N   1      31.950  17.077   5.586  0.00  0.00     0.110 A 
HETATM    2  C   UNK N   1      31.095  16.884   4.504  0.00  0.00     0.008 A 
HETATM    3  C   UNK N   1      29.725  16.766   4.746  0.00  0.00     0.151 A 
HETATM    4  C   UNK N   1      30.104  17.040   7.078  0.00  0.00     0.330 A 
HETATM    5  N   UNK N   1      29.257  16.858   6.014  0.00  0.00    -0.288 N 
ATOM      6  HN  UNK N   1      28.254  16.789   6.181  1.00  0.00     0.172 HD
HETATM    7  N   UNK N   1      31.477  17.138   6.864  0.00  0.00    -0.282 N 
HETATM    8  O   UNK N   1      29.632  17.103   8.196  0.00  0.00    -0.246 OA
ENDROOT
BRANCH   7   9
HETATM    9  C   UNK N   1      32.499  17.229   7.936  0.00  0.00     0.235 C 
HETATM   10  C   UNK N   1      33.131  18.609   8.158  0.00  0.00     0.088 C 
HETATM   11  C   UNK N   1      34.592  18.326   8.014  0.00  0.00     0.153 C 
HETATM   12  C   UNK N   1      34.668  16.858   8.369  0.00  0.00     0.176 C 
HETATM   13  O   UNK N   1      33.540  16.282   7.745  0.00  0.00    -0.356 OA
BRANCH  11  14
HETATM   14  O   UNK N   1      35.376  19.135   8.841  0.00  0.00    -0.393 OA
HETATM   15  H   UNK N   1      35.276  19.218   9.802  0.00  0.00     0.210 HD
ENDBRANCH  11  14
BRANCH  12  16
HETATM   16  C   UNK N   1      34.614  16.613   9.886  0.00  0.00     0.198 C 
BRANCH  16  17
HETATM   17  O   UNK N   1      35.796  17.043  10.489  0.00  0.00    -0.398 OA
HETATM   18  H   UNK N   1      35.871  17.066  11.457  0.00  0.00     0.209 HD
ENDBRANCH  16  17
ENDBRANCH  12  16
ENDBRANCH   7   9
BRANCH   2  19
HETATM   19  C   UNK N   1      31.666  16.792   3.126  0.00  0.00     0.040 C 
HETATM   20  C   UNK N   1      33.143  16.441   3.180  0.00  0.00     0.010 C 
ENDBRANCH   2  19
BRANCH   3  21
HETATM   21  O   UNK N   1      28.863  16.560   3.732  0.00  0.00    -0.346 OA
HETATM   22  H   UNK N   1      28.645  15.698   3.438  0.00  0.00     0.219 HD
ENDBRANCH   3  21
TORSDOF 6
ENDMDL
MODEL 3
REMARK VINA RESULT:      -5.6     23.360     26.061
REMARK  6 active torsions:
REMARK  status: ('A' for Active; 'I' for Inactive)
REMARK    1  A    between atoms: C_6  and  C_2 
REMARK    2  A    between atoms: C_8  and  C_5 
REMARK    3  A    between atoms: O_15  and  C_5 
REMARK    4  A    between atoms: C_7  and  O_16 
REMARK    5  A    between atoms: C_9  and  N_14 
REMARK    6  A    between atoms: O_17  and  C_10 
ROOT
HETATM    1  C   UNK N   1      26.930  25.393  -3.759  0.00  0.00     0.110 A 
HETATM    2  C   UNK N   1      26.082  26.417  -4.173  0.00  0.00     0.008 A 
HETATM    3  C   UNK N   1      25.313  26.226  -5.323  0.00  0.00     0.151 A 
HETATM    4  C   UNK N   1      26.238  24.051  -5.591  0.00  0.00     0.330 A 
HETATM    5  N   UNK N   1      25.394  25.054  -5.997  0.00  0.00    -0.288 N 
ATOM      6  HN  UNK N   1      24.817  24.915  -6.826  1.00  0.00     0.172 HD
HETATM    7  N   UNK N   1      27.030  24.227  -4.460  0.00  0.00    -0.282 N 
HETATM    8  O   UNK N   1      26.280  23.025  -6.240  0.00  0.00    -0.246 OA
ENDROOT
BRANCH   7   9
HETATM    9  C   UNK N   1      28.054  23.264  -3.983  0.00  0.00     0.235 C 
HETATM   10  C   UNK N   1      28.470  23.387  -2.512  0.00  0.00     0.088 C 
HETATM   11  C   UNK N   1      29.954  23.553  -2.604  0.00  0.00     0.153 C 
HETATM   12  C   UNK N   1      30.265  22.892  -3.928  0.00  0.00     0.176 C 
HETATM   13  O   UNK N   1      29.225  23.306  -4.787  0.00  0.00    -0.356 OA
BRANCH  11  14
HETATM   14  O   UNK N   1      30.624  22.971  -1.526  0.00  0.00    -0.393 OA
HETATM   15  H   UNK N   1      31.557  23.115  -1.301  0.00  0.00     0.210 HD
ENDBRANCH  11  14
BRANCH  12  16
HETATM   16  C   UNK N   1      30.289  21.358  -3.831  0.00  0.00     0.198 C 
BRANCH  16  17
HETATM   17  O   UNK N   1      31.483  20.927  -3.251  0.00  0.00    -0.398 OA
HETATM   18  H   UNK N   1      31.474  20.240  -2.565  0.00  0.00     0.209 HD
ENDBRANCH  16  17
ENDBRANCH  12  16
ENDBRANCH   7   9
BRANCH   2  19
HETATM   19  C   UNK N   1      26.032  27.689  -3.389  0.00  0.00     0.040 C 
HETATM   20  C   UNK N   1      27.386  28.375  -3.393  0.00  0.00     0.010 C 
ENDBRANCH   2  19
BRANCH   3  21
HETATM   21  O   UNK N   1      24.493  27.196  -5.770  0.00  0.00    -0.346 OA
HETATM   22  H   UNK N   1      24.340  27.978  -5.278  0.00  0.00     0.219 HD
ENDBRANCH   3  21
TORSDOF 6
ENDMDL
MODEL 4
REMARK VINA RESULT:      -5.6      5.795      8.414
REMARK  6 active torsions:
REMARK  status: ('A' for Active; 'I' for Inactive)
REMARK    1  A    between atoms: C_6  and  C_2 
REMARK    2  A    between atoms: C_8  and  C_5 
REMARK    3  A    between atoms: O_15  and  C_5 
REMARK    4  A    between atoms: C_7  and  O_16 
REMARK    5  A    between atoms: C_9  and  N_14 
REMARK    6  A    between atoms: O_17  and  C_10 
ROOT
HETATM    1  C   UNK N   1      34.404  14.282  10.593  0.00  0.00     0.110 A 
HETATM    2  C   UNK N   1      35.139  13.851  11.694  0.00  0.00     0.008 A 
HETATM    3  C   UNK N   1      36.047  14.735  12.281  0.00  0.00     0.151 A 
HETATM    4  C   UNK N   1      35.460  16.405  10.692  0.00  0.00     0.330 A 
HETATM    5  N   UNK N   1      36.180  15.987  11.782  0.00  0.00    -0.288 N 
ATOM      6  HN  UNK N   1      36.832  16.634  12.227  1.00  0.00     0.172 HD
HETATM    7  N   UNK N   1      34.566  15.533  10.076  0.00  0.00    -0.282 N 
HETATM    8  O   UNK N   1      35.628  17.535  10.278  0.00  0.00    -0.246 OA
ENDROOT
BRANCH   7   9
HETATM    9  C   UNK N   1      33.812  15.830   8.833  0.00  0.00     0.235 C 
HETATM   10  C   UNK N   1      34.647  16.213   7.605  0.00  0.00     0.088 C 
HETATM   11  C   UNK N   1      34.068  17.536   7.215  0.00  0.00     0.153 C 
HETATM   12  C   UNK N   1      32.668  17.448   7.783  0.00  0.00     0.176 C 
HETATM   13  O   UNK N   1      32.832  16.837   9.044  0.00  0.00    -0.356 OA
BRANCH  11  14
HETATM   14  O   UNK N   1      34.091  17.742   5.834  0.00  0.00    -0.393 OA
HETATM   15  H   UNK N   1      33.621  17.203   5.178  0.00  0.00     0.210 HD
ENDBRANCH  11  14
BRANCH  12  16
HETATM   16  C   UNK N   1      31.727  16.604   6.906  0.00  0.00     0.198 C 
BRANCH  16  17
HETATM   17  O   UNK N   1      31.259  17.359   5.831  0.00  0.00    -0.398 OA
HETATM   18  H   UNK N   1      30.452  17.094   5.361  0.00  0.00     0.209 HD
ENDBRANCH  16  17
ENDBRANCH  12  16
ENDBRANCH   7   9
BRANCH   2  19
HETATM   19  C   UNK N   1      34.949  12.458  12.203  0.00  0.00     0.040 C 
HETATM   20  C   UNK N   1      35.804  11.479  11.417  0.00  0.00     0.010 C 
ENDBRANCH   2  19
BRANCH   3  21
HETATM   21  O   UNK N   1      36.792  14.355  13.336  0.00  0.00    -0.346 OA
HETATM   22  H   UNK N   1      37.643  14.713  13.493  0.00  0.00     0.219 HD
ENDBRANCH   3  21
TORSDOF 6
ENDMDL
MODEL 5
REMARK VINA RESULT:      -5.5      7.900     11.375
REMARK  6 active torsions:
REMARK  status: ('A' for Active; 'I' for Inactive)
REMARK    1  A    between atoms: C_6  and  C_2 
REMARK    2  A    between atoms: C_8  and  C_5 
REMARK    3  A    between atoms: O_15  and  C_5 
REMARK    4  A    between atoms: C_7  and  O_16 
REMARK    5  A    between atoms: C_9  and  N_14 
REMARK    6  A    between atoms: O_17  and  C_10 
ROOT
HETATM    1  C   UNK N   1      32.298  16.464   7.609  0.00  0.00     0.110 A 
HETATM    2  C   UNK N   1      31.462  17.022   6.646  0.00  0.00     0.008 A 
HETATM    3  C   UNK N   1      31.974  17.250   5.366  0.00  0.00     0.151 A 
HETATM    4  C   UNK N   1      34.077  16.369   6.042  0.00  0.00     0.330 A 
HETATM    5  N   UNK N   1      33.255  16.911   5.087  0.00  0.00    -0.288 N 
ATOM      6  HN  UNK N   1      33.616  17.063   4.145  1.00  0.00     0.172 HD
HETATM    7  N   UNK N   1      33.596  16.154   7.330  0.00  0.00    -0.282 N 
HETATM    8  O   UNK N   1      35.222  16.095   5.740  0.00  0.00    -0.246 OA
ENDROOT
BRANCH   7   9
HETATM    9  C   UNK N   1      34.414  15.676   8.473  0.00  0.00     0.235 C 
HETATM   10  C   UNK N   1      33.794  14.571   9.339  0.00  0.00     0.088 C 
HETATM   11  C   UNK N   1      33.835  15.169  10.709  0.00  0.00     0.153 C 
HETATM   12  C   UNK N   1      34.974  16.157  10.591  0.00  0.00     0.176 C 
HETATM   13  O   UNK N   1      34.803  16.747   9.321  0.00  0.00    -0.356 OA
BRANCH  11  14
HETATM   14  O   UNK N   1      34.038  14.208  11.703  0.00  0.00    -0.393 OA
HETATM   15  H   UNK N   1      34.578  13.408  11.608  0.00  0.00     0.210 HD
ENDBRANCH  11  14
BRANCH  12  16
HETATM   16  C   UNK N   1      36.353  15.481  10.677  0.00  0.00     0.198 C 
BRANCH  16  17
HETATM   17  O   UNK N   1      36.662  15.177  12.003  0.00  0.00    -0.398 OA
HETATM   18  H   UNK N   1      37.143  14.361  12.218  0.00  0.00     0.209 HD
ENDBRANCH  16  17
ENDBRANCH  12  16
ENDBRANCH   7   9
BRANCH   2  19
HETATM   19  C   UNK N   1      30.056  17.374   7.010  0.00  0.00     0.040 C 
HETATM   20  C   UNK N   1      29.998  17.975   8.403  0.00  0.00     0.010 C 
ENDBRANCH   2  19
BRANCH   3  21
HETATM   21  O   UNK N   1      31.207  17.804   4.408  0.00  0.00    -0.346 OA
HETATM   22  H   UNK N   1      31.581  18.223   3.659  0.00  0.00     0.219 HD
ENDBRANCH   3  21
TORSDOF 6
ENDMDL
MODEL 6
REMARK VINA RESULT:      -5.4      5.569      7.917
REMARK  6 active torsions:
REMARK  status: ('A' for Active; 'I' for Inactive)
REMARK    1  A    between atoms: C_6  and  C_2 
REMARK    2  A    between atoms: C_8  and  C_5 
REMARK    3  A    between atoms: O_15  and  C_5 
REMARK    4  A    between atoms: C_7  and  O_16 
REMARK    5  A    between atoms: C_9  and  N_14 
REMARK    6  A    between atoms: O_17  and  C_10 
ROOT
HETATM    1  C   UNK N   1      34.444  14.228  10.792  0.00  0.00     0.110 A 
HETATM    2  C   UNK N   1      35.175  13.737  11.871  0.00  0.00     0.008 A 
HETATM    3  C   UNK N   1      36.142  14.559  12.454  0.00  0.00     0.151 A 
HETATM    4  C   UNK N   1      35.619  16.286  10.905  0.00  0.00     0.330 A 
HETATM    5  N   UNK N   1      36.336  15.810  11.973  0.00  0.00    -0.288 N 
ATOM      6  HN  UNK N   1      37.031  16.411  12.415  1.00  0.00     0.172 HD
HETATM    7  N   UNK N   1      34.665  15.477  10.293  0.00  0.00    -0.282 N 
HETATM    8  O   UNK N   1      35.843  17.413  10.507  0.00  0.00    -0.246 OA
ENDROOT
BRANCH   7   9
HETATM    9  C   UNK N   1      33.905  15.837   9.071  0.00  0.00     0.235 C 
HETATM   10  C   UNK N   1      32.579  15.098   8.852  0.00  0.00     0.088 C 
HETATM   11  C   UNK N   1      32.757  14.503   7.491  0.00  0.00     0.153 C 
HETATM   12  C   UNK N   1      33.774  15.435   6.868  0.00  0.00     0.176 C 
HETATM   13  O   UNK N   1      34.699  15.694   7.901  0.00  0.00    -0.356 OA
BRANCH  11  14
HETATM   14  O   UNK N   1      31.559  14.437   6.776  0.00  0.00    -0.393 OA
HETATM   15  H   UNK N   1      30.863  15.113   6.784  0.00  0.00     0.210 HD
ENDBRANCH  11  14
BRANCH  12  16
HETATM   16  C   UNK N   1      33.146  16.750   6.379  0.00  0.00     0.198 C 
BRANCH  16  17
HETATM   17  O   UNK N   1      34.143  17.667   6.041  0.00  0.00    -0.398 OA
HETATM   18  H   UNK N   1      34.966  17.364   5.626  0.00  0.00     0.209 HD
ENDBRANCH  16  17
ENDBRANCH  12  16
ENDBRANCH   7   9
BRANCH   2  19
HETATM   19  C   UNK N   1      34.916  12.348  12.361  0.00  0.00     0.040 C 
HETATM   20  C   UNK N   1      35.700  11.337  11.542  0.00  0.00     0.010 C 
ENDBRANCH   2  19
BRANCH   3  21
HETATM   21  O   UNK N   1      36.885  14.119  13.487  0.00  0.00    -0.346 OA
HETATM   22  H   UNK N   1      36.812  14.496  14.342  0.00  0.00     0.219 HD
ENDBRANCH   3  21
TORSDOF 6
ENDMDL
MODEL 7
REMARK VINA RESULT:      -5.4     17.253     19.650
REMARK  6 active torsions:
REMARK  status: ('A' for Active; 'I' for Inactive)
REMARK    1  A    between atoms: C_6  and  C_2 
REMARK    2  A    between atoms: C_8  and  C_5 
REMARK    3  A    between atoms: O_15  and  C_5 
REMARK    4  A    between atoms: C_7  and  O_16 
REMARK    5  A    between atoms: C_9  and  N_14 
REMARK    6  A    between atoms: O_17  and  C_10 
ROOT
HETATM    1  C   UNK N   1      22.435  18.150   3.591  0.00  0.00     0.110 A 
HETATM    2  C   UNK N   1      21.199  17.669   3.168  0.00  0.00     0.008 A 
HETATM    3  C   UNK N   1      20.320  18.548   2.532  0.00  0.00     0.151 A 
HETATM    4  C   UNK N   1      21.906  20.306   2.753  0.00  0.00     0.330 A 
HETATM    5  N   UNK N   1      20.691  19.834   2.326  0.00  0.00    -0.288 N 
ATOM      6  HN  UNK N   1      20.051  20.466   1.845  1.00  0.00     0.172 HD
HETATM    7  N   UNK N   1      22.790  19.454   3.410  0.00  0.00    -0.282 N 
HETATM    8  O   UNK N   1      22.183  21.473   2.554  0.00  0.00    -0.246 OA
ENDROOT
BRANCH   7   9
HETATM    9  C   UNK N   1      24.082  19.869   4.010  0.00  0.00     0.235 C 
HETATM   10  C   UNK N   1      25.259  20.037   3.041  0.00  0.00     0.088 C 
HETATM   11  C   UNK N   1      26.296  19.131   3.625  0.00  0.00     0.153 C 
HETATM   12  C   UNK N   1      25.887  19.080   5.081  0.00  0.00     0.176 C 
HETATM   13  O   UNK N   1      24.480  18.990   5.053  0.00  0.00    -0.356 OA
BRANCH  11  14
HETATM   14  O   UNK N   1      27.594  19.612   3.433  0.00  0.00    -0.393 OA
HETATM   15  H   UNK N   1      28.068  20.203   4.038  0.00  0.00     0.210 HD
ENDBRANCH  11  14
BRANCH  12  16
HETATM   16  C   UNK N   1      26.321  20.331   5.861  0.00  0.00     0.198 C 
BRANCH  16  17
HETATM   17  O   UNK N   1      27.636  20.194   6.307  0.00  0.00    -0.398 OA
HETATM   18  H   UNK N   1      27.902  20.561   7.165  0.00  0.00     0.209 HD
ENDBRANCH  16  17
ENDBRANCH  12  16
ENDBRANCH   7   9
BRANCH   2  19
HETATM   19  C   UNK N   1      20.844  16.238   3.420  0.00  0.00     0.040 C 
HETATM   20  C   UNK N   1      21.912  15.314   2.863  0.00  0.00     0.010 C 
ENDBRANCH   2  19
BRANCH   3  21
HETATM   21  O   UNK N   1      19.108  18.131   2.122  0.00  0.00    -0.346 OA
HETATM   22  H   UNK N   1      18.674  18.519   1.388  0.00  0.00     0.219 HD
ENDBRANCH   3  21
TORSDOF 6
ENDMDL
MODEL 8
REMARK VINA RESULT:      -5.4     22.624     24.967
REMARK  6 active torsions:
REMARK  status: ('A' for Active; 'I' for Inactive)
REMARK    1  A    between atoms: C_6  and  C_2 
REMARK    2  A    between atoms: C_8  and  C_5 
REMARK    3  A    between atoms: O_15  and  C_5 
REMARK    4  A    between atoms: C_7  and  O_16 
REMARK    5  A    between atoms: C_9  and  N_14 
REMARK    6  A    between atoms: O_17  and  C_10 
ROOT
HETATM    1  C   UNK N   1      29.765  22.291  -4.930  0.00  0.00     0.110 A 
HETATM    2  C   UNK N   1      30.473  21.110  -5.134  0.00  0.00     0.008 A 
HETATM    3  C   UNK N   1      31.261  20.613  -4.093  0.00  0.00     0.151 A 
HETATM    4  C   UNK N   1      30.614  22.443  -2.719  0.00  0.00     0.330 A 
HETATM    5  N   UNK N   1      31.307  21.275  -2.912  0.00  0.00    -0.288 N 
ATOM      6  HN  UNK N   1      31.869  20.897  -2.151  1.00  0.00     0.172 HD
HETATM    7  N   UNK N   1      29.839  22.969  -3.749  0.00  0.00    -0.282 N 
HETATM    8  O   UNK N   1      30.700  23.002  -1.643  0.00  0.00    -0.246 OA
ENDROOT
BRANCH   7   9
HETATM    9  C   UNK N   1      29.132  24.273  -3.699  0.00  0.00     0.235 C 
HETATM   10  C   UNK N   1      27.616  24.217  -3.476  0.00  0.00     0.088 C 
HETATM   11  C   UNK N   1      27.085  24.982  -4.647  0.00  0.00     0.153 C 
HETATM   12  C   UNK N   1      28.253  25.877  -4.997  0.00  0.00     0.176 C 
HETATM   13  O   UNK N   1      29.389  25.051  -4.860  0.00  0.00    -0.356 OA
BRANCH  11  14
HETATM   14  O   UNK N   1      25.921  25.690  -4.337  0.00  0.00    -0.393 OA
HETATM   15  H   UNK N   1      25.839  26.359  -3.640  0.00  0.00     0.210 HD
ENDBRANCH  11  14
BRANCH  12  16
HETATM   16  C   UNK N   1      28.368  27.091  -4.060  0.00  0.00     0.198 C 
BRANCH  16  17
HETATM   17  O   UNK N   1      27.513  28.111  -4.480  0.00  0.00    -0.398 OA
HETATM   18  H   UNK N   1      26.620  27.901  -4.797  0.00  0.00     0.209 HD
ENDBRANCH  16  17
ENDBRANCH  12  16
ENDBRANCH   7   9
BRANCH   2  19
HETATM   19  C   UNK N   1      30.384  20.421  -6.458  0.00  0.00     0.040 C 
HETATM   20  C   UNK N   1      29.196  20.935  -7.251  0.00  0.00     0.010 C 
ENDBRANCH   2  19
BRANCH   3  21
HETATM   21  O   UNK N   1      31.977  19.484  -4.252  0.00  0.00    -0.346 OA
HETATM   22  H   UNK N   1      31.732  18.682  -3.834  0.00  0.00     0.219 HD
ENDBRANCH   3  21
TORSDOF 6
ENDMDL
MODEL 9
REMARK VINA RESULT:      -5.3     23.145     26.201
REMARK  6 active torsions:
REMARK  status: ('A' for Active; 'I' for Inactive)
REMARK    1  A    between atoms: C_6  and  C_2 
REMARK    2  A    between atoms: C_8  and  C_5 
REMARK    3  A    between atoms: O_15  and  C_5 
REMARK    4  A    between atoms: C_7  and  O_16 
REMARK    5  A    between atoms: C_9  and  N_14 
REMARK    6  A    between atoms: O_17  and  C_10 
ROOT
HETATM    1  C   UNK N   1      28.908  23.050  -5.057  0.00  0.00     0.110 A 
HETATM    2  C   UNK N   1      29.849  22.824  -4.056  0.00  0.00     0.008 A 
HETATM    3  C   UNK N   1      29.552  23.232  -2.753  0.00  0.00     0.151 A 
HETATM    4  C   UNK N   1      27.440  24.048  -3.482  0.00  0.00     0.330 A 
HETATM    5  N   UNK N   1      28.360  23.819  -2.490  0.00  0.00    -0.288 N 
ATOM      6  HN  UNK N   1      28.143  24.098  -1.534  1.00  0.00     0.172 HD
HETATM    7  N   UNK N   1      27.723  23.670  -4.792  0.00  0.00    -0.282 N 
HETATM    8  O   UNK N   1      26.391  24.589  -3.192  0.00  0.00    -0.246 OA
ENDROOT
BRANCH   7   9
HETATM    9  C   UNK N   1      26.859  23.957  -5.964  0.00  0.00     0.235 C 
HETATM   10  C   UNK N   1      25.582  23.116  -6.090  0.00  0.00     0.088 C 
HETATM   11  C   UNK N   1      25.717  22.521  -7.456  0.00  0.00     0.153 C 
HETATM   12  C   UNK N   1      26.615  23.521  -8.150  0.00  0.00     0.176 C 
HETATM   13  O   UNK N   1      27.584  23.862  -7.182  0.00  0.00    -0.356 OA
BRANCH  11  14
HETATM   14  O   UNK N   1      24.482  22.356  -8.090  0.00  0.00    -0.393 OA
HETATM   15  H   UNK N   1      23.747  22.988  -8.059  0.00  0.00     0.210 HD
ENDBRANCH  11  14
BRANCH  12  16
HETATM   16  C   UNK N   1      25.858  24.780  -8.605  0.00  0.00     0.198 C 
BRANCH  16  17
HETATM   17  O   UNK N   1      25.028  24.483  -9.686  0.00  0.00    -0.398 OA
HETATM   18  H   UNK N   1      24.242  25.025  -9.863  0.00  0.00     0.209 HD
ENDBRANCH  16  17
ENDBRANCH  12  16
ENDBRANCH   7   9
BRANCH   2  19
HETATM   19  C   UNK N   1      31.148  22.170  -4.404  0.00  0.00     0.040 C 
HETATM   20  C   UNK N   1      31.043  20.662  -4.265  0.00  0.00     0.010 C 
ENDBRANCH   2  19
BRANCH   3  21
HETATM   21  O   UNK N   1      30.439  23.050  -1.757  0.00  0.00    -0.346 OA
HETATM   22  H   UNK N   1      30.421  23.571  -0.979  0.00  0.00     0.219 HD
ENDBRANCH   3  21
TORSDOF 6
ENDMDL
