MODEL 1
REMARK VINA RESULT:      -3.8      0.000      0.000
REMARK  9 active torsions:
REMARK  status: ('A' for Active; 'I' for Inactive)
REMARK    1  A    between atoms: C_4  and  C_1 
REMARK    2  A    between atoms: N_7  and  C_1 
REMARK    3  A    between atoms: C_5  and  C_2 
REMARK    4  A    between atoms: N_7  and  C_2 
REMARK    5  A    between atoms: C_6  and  C_3 
REMARK    6  A    between atoms: N_7  and  C_3 
REMARK    7  A    between atoms: O_8  and  C_4 
REMARK    8  A    between atoms: O_9  and  C_5 
REMARK    9  A    between atoms: O_10  and  C_6 
ROOT
HETATM    1  N   UNK N   1      21.164  19.061   2.732  0.00  0.00    -0.406 N 
ENDROOT
BRANCH   1   2
HETATM    2  C   UNK N   1      21.568  20.350   2.157  0.00  0.00     0.143 C 
BRANCH   2   3
HETATM    3  C   UNK N   1      20.517  21.020   1.284  0.00  0.00     0.183 C 
BRANCH   3   4
HETATM    4  O   UNK N   1      20.840  20.805  -0.056  0.00  0.00    -0.399 OA
HETATM    5  H   UNK N   1      21.541  21.328  -0.476  0.00  0.00     0.209 HD
ENDBRANCH   3   4
ENDBRANCH   2   3
ENDBRANCH   1   2
BRANCH   1   6
HETATM    6  C   UNK N   1      22.111  18.629   3.777  0.00  0.00     0.143 C 
BRANCH   6   7
HETATM    7  C   UNK N   1      21.555  18.391   5.168  0.00  0.00     0.183 C 
BRANCH   7   8
HETATM    8  O   UNK N   1      22.604  18.083   6.032  0.00  0.00    -0.399 OA
HETATM    9  H   UNK N   1      23.055  17.226   5.961  0.00  0.00     0.209 HD
ENDBRANCH   7   8
ENDBRANCH   6   7
ENDBRANCH   1   6
BRANCH   1  10
HETATM   10  C   UNK N   1      19.941  18.397   2.229  0.00  0.00     0.143 C 
BRANCH  10  11
HETATM   11  C   UNK N   1      20.148  17.275   1.222  0.00  0.00     0.183 C 
BRANCH  11  12
HETATM   12  O   UNK N   1      20.309  17.804  -0.057  0.00  0.00    -0.399 OA
HETATM   13  H   UNK N   1      20.520  18.744  -0.169  0.00  0.00     0.209 HD
ENDBRANCH  11  12
ENDBRANCH  10  11
ENDBRANCH   1  10
TORSDOF 9
ENDMDL
MODEL 2
REMARK VINA RESULT:      -3.8      0.662      4.100
REMARK  9 active torsions:
REMARK  status: ('A' for Active; 'I' for Inactive)
REMARK    1  A    between atoms: C_4  and  C_1 
REMARK    2  A    between atoms: N_7  and  C_1 
REMARK    3  A    between atoms: C_5  and  C_2 
REMARK    4  A    between atoms: N_7  and  C_2 
REMARK    5  A    between atoms: C_6  and  C_3 
REMARK    6  A    between atoms: N_7  and  C_3 
REMARK    7  A    between atoms: O_8  and  C_4 
REMARK    8  A    between atoms: O_9  and  C_5 
REMARK    9  A    between atoms: O_10  and  C_6 
ROOT
HETATM    1  N   UNK N   1      21.050  18.840   2.622  0.00  0.00    -0.406 N 
ENDROOT
BRANCH   1   2
HETATM    2  C   UNK N   1      21.830  18.086   3.611  0.00  0.00     0.143 C 
BRANCH   2   3
HETATM    3  C   UNK N   1      23.076  18.795   4.120  0.00  0.00     0.183 C 
BRANCH   3   4
HETATM    4  O   UNK N   1      23.348  18.356   5.416  0.00  0.00    -0.399 OA
HETATM    5  H   UNK N   1      22.856  18.725   6.166  0.00  0.00     0.209 HD
ENDBRANCH   3   4
ENDBRANCH   2   3
ENDBRANCH   1   2
BRANCH   1   6
HETATM    6  C   UNK N   1      19.859  18.079   2.198  0.00  0.00     0.143 C 
BRANCH   6   7
HETATM    7  C   UNK N   1      20.044  17.049   1.101  0.00  0.00     0.183 C 
BRANCH   7   8
HETATM    8  O   UNK N   1      20.302  17.703  -0.102  0.00  0.00    -0.399 OA
HETATM    9  H   UNK N   1      21.112  17.505  -0.598  0.00  0.00     0.209 HD
ENDBRANCH   7   8
ENDBRANCH   6   7
ENDBRANCH   1   6
BRANCH   1  10
HETATM   10  C   UNK N   1      21.517  20.179   2.200  0.00  0.00     0.143 C 
BRANCH  10  11
HETATM   11  C   UNK N   1      20.573  20.973   1.308  0.00  0.00     0.183 C 
BRANCH  11  12
HETATM   12  O   UNK N   1      20.724  20.578  -0.019  0.00  0.00    -0.399 OA
HETATM   13  H   UNK N   1      20.206  21.013  -0.716  0.00  0.00     0.209 HD
ENDBRANCH  11  12
ENDBRANCH  10  11
ENDBRANCH   1  10
TORSDOF 9
ENDMDL
MODEL 3
REMARK VINA RESULT:      -3.6      1.398      4.048
REMARK  9 active torsions:
REMARK  status: ('A' for Active; 'I' for Inactive)
REMARK    1  A    between atoms: C_4  and  C_1 
REMARK    2  A    between atoms: N_7  and  C_1 
REMARK    3  A    between atoms: C_5  and  C_2 
REMARK    4  A    between atoms: N_7  and  C_2 
REMARK    5  A    between atoms: C_6  and  C_3 
REMARK    6  A    between atoms: N_7  and  C_3 
REMARK    7  A    between atoms: O_8  and  C_4 
REMARK    8  A    between atoms: O_9  and  C_5 
REMARK    9  A    between atoms: O_10  and  C_6 
ROOT
HETATM    1  N   UNK N   1      20.456  18.536   3.588  0.00  0.00    -0.406 N 
ENDROOT
BRANCH   1   2
HETATM    2  C   UNK N   1      20.770  19.969   3.622  0.00  0.00     0.143 C 
BRANCH   2   3
HETATM    3  C   UNK N   1      21.787  20.428   2.588  0.00  0.00     0.183 C 
BRANCH   3   4
HETATM    4  O   UNK N   1      22.005  21.797   2.746  0.00  0.00    -0.399 OA
HETATM    5  H   UNK N   1      22.853  22.116   3.091  0.00  0.00     0.209 HD
ENDBRANCH   3   4
ENDBRANCH   2   3
ENDBRANCH   1   2
BRANCH   1   6
HETATM    6  C   UNK N   1      19.551  18.220   2.467  0.00  0.00     0.143 C 
BRANCH   6   7
HETATM    7  C   UNK N   1      20.111  17.388   1.329  0.00  0.00     0.183 C 
BRANCH   7   8
HETATM    8  O   UNK N   1      20.277  18.200   0.209  0.00  0.00    -0.399 OA
HETATM    9  H   UNK N   1      19.632  18.899   0.017  0.00  0.00     0.209 HD
ENDBRANCH   7   8
ENDBRANCH   6   7
ENDBRANCH   1   6
BRANCH   1  10
HETATM   10  C   UNK N   1      21.044  17.642   4.610  0.00  0.00     0.143 C 
BRANCH  10  11
HETATM   11  C   UNK N   1      21.953  18.299   5.639  0.00  0.00     0.183 C 
BRANCH  11  12
HETATM   12  O   UNK N   1      21.251  18.527   6.820  0.00  0.00    -0.399 OA
HETATM   13  H   UNK N   1      21.446  17.999   7.610  0.00  0.00     0.209 HD
ENDBRANCH  11  12
ENDBRANCH  10  11
ENDBRANCH   1  10
TORSDOF 9
ENDMDL
MODEL 4
REMARK VINA RESULT:      -3.6     17.381     18.605
REMARK  9 active torsions:
REMARK  status: ('A' for Active; 'I' for Inactive)
REMARK    1  A    between atoms: C_4  and  C_1 
REMARK    2  A    between atoms: N_7  and  C_1 
REMARK    3  A    between atoms: C_5  and  C_2 
REMARK    4  A    between atoms: N_7  and  C_2 
REMARK    5  A    between atoms: C_6  and  C_3 
REMARK    6  A    between atoms: N_7  and  C_3 
REMARK    7  A    between atoms: O_8  and  C_4 
REMARK    8  A    between atoms: O_9  and  C_5 
REMARK    9  A    between atoms: O_10  and  C_6 
ROOT
HETATM    1  N   UNK N   1      35.270  13.686  11.491  0.00  0.00    -0.406 N 
ENDROOT
BRANCH   1   2
HETATM    2  C   UNK N   1      35.978  12.862  10.504  0.00  0.00     0.143 C 
BRANCH   2   3
HETATM    3  C   UNK N   1      37.353  12.378  10.940  0.00  0.00     0.183 C 
BRANCH   3   4
HETATM    4  O   UNK N   1      38.181  13.484  11.131  0.00  0.00    -0.399 OA
HETATM    5  H   UNK N   1      37.993  14.114  11.844  0.00  0.00     0.209 HD
ENDBRANCH   3   4
ENDBRANCH   2   3
ENDBRANCH   1   2
BRANCH   1   6
HETATM    6  C   UNK N   1      35.230  13.017  12.806  0.00  0.00     0.143 C 
BRANCH   6   7
HETATM    7  C   UNK N   1      35.728  13.802  14.004  0.00  0.00     0.183 C 
BRANCH   7   8
HETATM    8  O   UNK N   1      36.870  14.513  13.641  0.00  0.00    -0.399 OA
HETATM    9  H   UNK N   1      37.013  14.760  12.714  0.00  0.00     0.209 HD
ENDBRANCH   7   8
ENDBRANCH   6   7
ENDBRANCH   1   6
BRANCH   1  10
HETATM   10  C   UNK N   1      34.720  14.996  11.079  0.00  0.00     0.143 C 
BRANCH  10  11
HETATM   11  C   UNK N   1      35.665  15.917  10.322  0.00  0.00     0.183 C 
BRANCH  11  12
HETATM   12  O   UNK N   1      36.845  16.088  11.042  0.00  0.00    -0.399 OA
HETATM   13  H   UNK N   1      36.846  15.973  12.006  0.00  0.00     0.209 HD
ENDBRANCH  11  12
ENDBRANCH  10  11
ENDBRANCH   1  10
TORSDOF 9
ENDMDL
MODEL 5
REMARK VINA RESULT:      -3.6     14.024     15.423
REMARK  9 active torsions:
REMARK  status: ('A' for Active; 'I' for Inactive)
REMARK    1  A    between atoms: C_4  and  C_1 
REMARK    2  A    between atoms: N_7  and  C_1 
REMARK    3  A    between atoms: C_5  and  C_2 
REMARK    4  A    between atoms: N_7  and  C_2 
REMARK    5  A    between atoms: C_6  and  C_3 
REMARK    6  A    between atoms: N_7  and  C_3 
REMARK    7  A    between atoms: O_8  and  C_4 
REMARK    8  A    between atoms: O_9  and  C_5 
REMARK    9  A    between atoms: O_10  and  C_6 
ROOT
HETATM    1  N   UNK N   1      34.307  15.879   8.792  0.00  0.00    -0.406 N 
ENDROOT
BRANCH   1   2
HETATM    2  C   UNK N   1      35.303  15.387   9.750  0.00  0.00     0.143 C 
BRANCH   2   3
HETATM    3  C   UNK N   1      34.878  15.453  11.209  0.00  0.00     0.183 C 
BRANCH   3   4
HETATM    4  O   UNK N   1      33.623  14.858  11.341  0.00  0.00    -0.399 OA
HETATM    5  H   UNK N   1      33.108  14.986  12.153  0.00  0.00     0.209 HD
ENDBRANCH   3   4
ENDBRANCH   2   3
ENDBRANCH   1   2
BRANCH   1   6
HETATM    6  C   UNK N   1      33.918  14.820   7.842  0.00  0.00     0.143 C 
BRANCH   6   7
HETATM    7  C   UNK N   1      32.482  14.336   7.885  0.00  0.00     0.183 C 
BRANCH   7   8
HETATM    8  O   UNK N   1      32.263  13.660   9.083  0.00  0.00    -0.399 OA
HETATM    9  H   UNK N   1      32.292  14.143   9.925  0.00  0.00     0.209 HD
ENDBRANCH   7   8
ENDBRANCH   6   7
ENDBRANCH   1   6
BRANCH   1  10
HETATM   10  C   UNK N   1      33.844  17.282   8.886  0.00  0.00     0.143 C 
BRANCH  10  11
HETATM   11  C   UNK N   1      34.443  18.259   7.885  0.00  0.00     0.183 C 
BRANCH  11  12
HETATM   12  O   UNK N   1      35.267  19.170   8.541  0.00  0.00    -0.399 OA
HETATM   13  H   UNK N   1      34.897  19.999   8.885  0.00  0.00     0.209 HD
ENDBRANCH  11  12
ENDBRANCH  10  11
ENDBRANCH   1  10
TORSDOF 9
ENDMDL
MODEL 6
REMARK VINA RESULT:      -3.5      0.822      3.822
REMARK  9 active torsions:
REMARK  status: ('A' for Active; 'I' for Inactive)
REMARK    1  A    between atoms: C_4  and  C_1 
REMARK    2  A    between atoms: N_7  and  C_1 
REMARK    3  A    between atoms: C_5  and  C_2 
REMARK    4  A    between atoms: N_7  and  C_2 
REMARK    5  A    between atoms: C_6  and  C_3 
REMARK    6  A    between atoms: N_7  and  C_3 
REMARK    7  A    between atoms: O_8  and  C_4 
REMARK    8  A    between atoms: O_9  and  C_5 
REMARK    9  A    between atoms: O_10  and  C_6 
ROOT
HETATM    1  N   UNK N   1      20.921  18.767   2.611  0.00  0.00    -0.406 N 
ENDROOT
BRANCH   1   2
HETATM    2  C   UNK N   1      22.073  19.114   3.451  0.00  0.00     0.143 C 
BRANCH   2   3
HETATM    3  C   UNK N   1      22.606  17.978   4.312  0.00  0.00     0.183 C 
BRANCH   3   4
HETATM    4  O   UNK N   1      22.256  18.217   5.641  0.00  0.00    -0.399 OA
HETATM    5  H   UNK N   1      21.480  17.778   6.025  0.00  0.00     0.209 HD
ENDBRANCH   3   4
ENDBRANCH   2   3
ENDBRANCH   1   2
BRANCH   1   6
HETATM    6  C   UNK N   1      20.141  19.969   2.261  0.00  0.00     0.143 C 
BRANCH   6   7
HETATM    7  C   UNK N   1      20.763  20.944   1.280  0.00  0.00     0.183 C 
BRANCH   7   8
HETATM    8  O   UNK N   1      20.577  20.468  -0.016  0.00  0.00    -0.399 OA
HETATM    9  H   UNK N   1      19.752  20.659  -0.489  0.00  0.00     0.209 HD
ENDBRANCH   7   8
ENDBRANCH   6   7
ENDBRANCH   1   6
BRANCH   1  10
HETATM   10  C   UNK N   1      20.695  17.352   2.242  0.00  0.00     0.143 C 
BRANCH  10  11
HETATM   11  C   UNK N   1      19.768  17.102   1.061  0.00  0.00     0.183 C 
BRANCH  11  12
HETATM   12  O   UNK N   1      20.358  17.561  -0.115  0.00  0.00    -0.399 OA
HETATM   13  H   UNK N   1      19.923  17.405  -0.968  0.00  0.00     0.209 HD
ENDBRANCH  11  12
ENDBRANCH  10  11
ENDBRANCH   1  10
TORSDOF 9
ENDMDL
MODEL 7
REMARK VINA RESULT:      -3.5      7.069      8.369
REMARK  9 active torsions:
REMARK  status: ('A' for Active; 'I' for Inactive)
REMARK    1  A    between atoms: C_4  and  C_1 
REMARK    2  A    between atoms: N_7  and  C_1 
REMARK    3  A    between atoms: C_5  and  C_2 
REMARK    4  A    between atoms: N_7  and  C_2 
REMARK    5  A    between atoms: C_6  and  C_3 
REMARK    6  A    between atoms: N_7  and  C_3 
REMARK    7  A    between atoms: O_8  and  C_4 
REMARK    8  A    between atoms: O_9  and  C_5 
REMARK    9  A    between atoms: O_10  and  C_6 
ROOT
HETATM    1  N   UNK N   1      27.732  19.117   6.439  0.00  0.00    -0.406 N 
ENDROOT
BRANCH   1   2
HETATM    2  C   UNK N   1      26.813  18.559   5.441  0.00  0.00     0.143 C 
BRANCH   2   3
HETATM    3  C   UNK N   1      27.173  18.867   3.995  0.00  0.00     0.183 C 
BRANCH   3   4
HETATM    4  O   UNK N   1      28.422  18.314   3.712  0.00  0.00    -0.399 OA
HETATM    5  H   UNK N   1      29.155  18.428   4.337  0.00  0.00     0.209 HD
ENDBRANCH   3   4
ENDBRANCH   2   3
ENDBRANCH   1   2
BRANCH   1   6
HETATM    6  C   UNK N   1      27.667  20.591   6.452  0.00  0.00     0.143 C 
BRANCH   6   7
HETATM    7  C   UNK N   1      26.352  21.228   6.856  0.00  0.00     0.183 C 
BRANCH   7   8
HETATM    8  O   UNK N   1      26.021  20.814   8.144  0.00  0.00    -0.399 OA
HETATM    9  H   UNK N   1      25.763  19.893   8.307  0.00  0.00     0.209 HD
ENDBRANCH   7   8
ENDBRANCH   6   7
ENDBRANCH   1   6
BRANCH   1  10
HETATM   10  C   UNK N   1      28.557  18.200   7.256  0.00  0.00     0.143 C 
BRANCH  10  11
HETATM   11  C   UNK N   1      28.640  18.511   8.744  0.00  0.00     0.183 C 
BRANCH  11  12
HETATM   12  O   UNK N   1      27.390  18.352   9.336  0.00  0.00    -0.399 OA
HETATM   13  H   UNK N   1      26.722  17.785   8.916  0.00  0.00     0.209 HD
ENDBRANCH  11  12
ENDBRANCH  10  11
ENDBRANCH   1  10
TORSDOF 9
ENDMDL
MODEL 8
REMARK VINA RESULT:      -3.5     17.495     18.607
REMARK  9 active torsions:
REMARK  status: ('A' for Active; 'I' for Inactive)
REMARK    1  A    between atoms: C_4  and  C_1 
REMARK    2  A    between atoms: N_7  and  C_1 
REMARK    3  A    between atoms: C_5  and  C_2 
REMARK    4  A    between atoms: N_7  and  C_2 
REMARK    5  A    between atoms: C_6  and  C_3 
REMARK    6  A    between atoms: N_7  and  C_3 
REMARK    7  A    between atoms: O_8  and  C_4 
REMARK    8  A    between atoms: O_9  and  C_5 
REMARK    9  A    between atoms: O_10  and  C_6 
ROOT
HETATM    1  N   UNK N   1      35.598  13.539  10.863  0.00  0.00    -0.406 N 
ENDROOT
BRANCH   1   2
HETATM    2  C   UNK N   1      35.435  14.650   9.918  0.00  0.00     0.143 C 
BRANCH   2   3
HETATM    3  C   UNK N   1      35.705  16.030  10.498  0.00  0.00     0.183 C 
BRANCH   3   4
HETATM    4  O   UNK N   1      37.040  16.097  10.899  0.00  0.00    -0.399 OA
HETATM    5  H   UNK N   1      37.689  16.565  10.350  0.00  0.00     0.209 HD
ENDBRANCH   3   4
ENDBRANCH   2   3
ENDBRANCH   1   2
BRANCH   1   6
HETATM    6  C   UNK N   1      36.446  12.476  10.288  0.00  0.00     0.143 C 
BRANCH   6   7
HETATM    7  C   UNK N   1      37.880  12.833   9.951  0.00  0.00     0.183 C 
BRANCH   7   8
HETATM    8  O   UNK N   1      38.480  13.414  11.067  0.00  0.00    -0.399 OA
HETATM    9  H   UNK N   1      39.447  13.470  11.123  0.00  0.00     0.209 HD
ENDBRANCH   7   8
ENDBRANCH   6   7
ENDBRANCH   1   6
BRANCH   1  10
HETATM   10  C   UNK N   1      34.940  13.611  12.186  0.00  0.00     0.143 C 
BRANCH  10  11
HETATM   11  C   UNK N   1      35.845  13.454  13.400  0.00  0.00     0.183 C 
BRANCH  11  12
HETATM   12  O   UNK N   1      36.865  14.402  13.361  0.00  0.00    -0.399 OA
HETATM   13  H   UNK N   1      37.791  14.116  13.307  0.00  0.00     0.209 HD
ENDBRANCH  11  12
ENDBRANCH  10  11
ENDBRANCH   1  10
TORSDOF 9
ENDMDL
MODEL 9
REMARK VINA RESULT:      -3.5      1.872      2.028
REMARK  9 active torsions:
REMARK  status: ('A' for Active; 'I' for Inactive)
REMARK    1  A    between atoms: C_4  and  C_1 
REMARK    2  A    between atoms: N_7  and  C_1 
REMARK    3  A    between atoms: C_5  and  C_2 
REMARK    4  A    between atoms: N_7  and  C_2 
REMARK    5  A    between atoms: C_6  and  C_3 
REMARK    6  A    between atoms: N_7  and  C_3 
REMARK    7  A    between atoms: O_8  and  C_4 
REMARK    8  A    between atoms: O_9  and  C_5 
REMARK    9  A    between atoms: O_10  and  C_6 
ROOT
HETATM    1  N   UNK N   1      21.150  19.459   2.616  0.00  0.00    -0.406 N 
ENDROOT
BRANCH   1   2
HETATM    2  C   UNK N   1      20.865  20.880   2.389  0.00  0.00     0.143 C 
BRANCH   2   3
HETATM    3  C   UNK N   1      20.473  21.236   0.962  0.00  0.00     0.183 C 
BRANCH   3   4
HETATM    4  O   UNK N   1      21.430  20.718   0.089  0.00  0.00    -0.399 OA
HETATM    5  H   UNK N   1      22.363  20.962   0.191  0.00  0.00     0.209 HD
ENDBRANCH   3   4
ENDBRANCH   2   3
ENDBRANCH   1   2
BRANCH   1   6
HETATM    6  C   UNK N   1      22.544  19.264   3.060  0.00  0.00     0.143 C 
BRANCH   6   7
HETATM    7  C   UNK N   1      23.445  20.483   3.089  0.00  0.00     0.183 C 
BRANCH   7   8
HETATM    8  O   UNK N   1      24.068  20.620   1.851  0.00  0.00    -0.399 OA
HETATM    9  H   UNK N   1      24.779  21.270   1.734  0.00  0.00     0.209 HD
ENDBRANCH   7   8
ENDBRANCH   6   7
ENDBRANCH   1   6
BRANCH   1  10
HETATM   10  C   UNK N   1      20.081  18.462   2.389  0.00  0.00     0.143 C 
BRANCH  10  11
HETATM   11  C   UNK N   1      20.377  17.377   1.363  0.00  0.00     0.183 C 
BRANCH  11  12
HETATM   12  O   UNK N   1      20.333  17.911   0.077  0.00  0.00    -0.399 OA
HETATM   13  H   UNK N   1      19.483  17.998  -0.384  0.00  0.00     0.209 HD
ENDBRANCH  11  12
ENDBRANCH  10  11
ENDBRANCH   1  10
TORSDOF 9
ENDMDL
