REMARK  4 active torsions:
REMARK  status: ('A' for Active; 'I' for Inactive)
REMARK    1  A    between atoms: C_8  and  C_5 
REMARK    2  A    between atoms: C_13  and  C_5 
REMARK    3  A    between atoms: S_22  and  C_11 
REMARK    4  A    between atoms: S_22  and  N_15 
ROOT
HETATM    1  C   UNK N   1      -0.507   0.750   0.045  0.00  0.00     0.056 A 
HETATM    2  C   UNK N   1      -0.526  -2.036   0.210  0.00  0.00     0.054 A 
HETATM    3  C   UNK N   1      -1.724   0.060  -0.033  0.00  0.00     0.059 A 
HETATM    4  C   UNK N   1       0.694   0.057   0.227  0.00  0.00     0.054 A 
HETATM    5  C   UNK N   1      -1.736  -1.351   0.073  0.00  0.00     0.102 A 
HETATM    6  C   UNK N   1       0.674  -1.332   0.277  0.00  0.00     0.107 A 
HETATM    7  C   UNK N   1       3.157   0.301   0.999  0.00  0.00     0.192 C 
HETATM    8 Cl   UNK N   1      -3.194   1.004  -0.216  0.00  0.00    -0.083 Cl
HETATM    9  N   UNK N   1       1.907   0.787   0.403  0.00  0.00    -0.367 N 
HETATM   10  N   UNK N   1       3.206  -1.089   1.490  0.00  0.00    -0.293 N 
HETATM   11  O   UNK N   1       2.157  -3.478   1.259  0.00  0.00    -0.200 OA
HETATM   12  O   UNK N   1       3.021  -2.430  -0.773  0.00  0.00    -0.200 OA
HETATM   13  S   UNK N   1       2.207  -2.144   0.499  0.00  0.00     0.262 S 
HETATM   14  H   UNK N   1       1.905   1.721   0.090  0.00  0.00     0.161 HD
HETATM   15  H   UNK N   1       3.747  -1.398   2.297  0.00  0.00     0.174 HD
ENDROOT
BRANCH   5  16
HETATM   16  S   UNK N   1      -3.251  -2.324   0.102  0.00  0.00     0.258 S 
HETATM   17  O   UNK N   1      -4.557  -1.532   0.251  0.00  0.00    -0.201 OA
HETATM   18  O   UNK N   1      -3.292  -3.210   1.357  0.00  0.00    -0.201 OA
BRANCH  16  19
HETATM   19  N   UNK N   1      -3.530  -3.455  -1.223  0.00  0.00    -0.324 N 
HETATM   20  H   UNK N   1      -4.177  -3.642  -1.989  0.00  0.00     0.169 HD
HETATM   21  H   UNK N   1      -2.795  -4.162  -1.223  0.00  0.00     0.169 HD
ENDBRANCH  16  19
ENDBRANCH   5  16
BRANCH   7  22
HETATM   22  C   UNK N   1       4.429   0.798   0.306  0.00  0.00     0.052 C 
BRANCH  22  23
HETATM   23  C   UNK N   1       5.134  -0.222  -0.577  0.00  0.00    -0.011 C 
HETATM   24  C   UNK N   1       5.839  -1.278   0.246  0.00  0.00     0.005 C 
HETATM   25  C   UNK N   1       6.930  -1.803  -0.662  0.00  0.00     0.000 C 
HETATM   26  C   UNK N   1       7.241  -0.676  -1.634  0.00  0.00     0.000 C 
HETATM   27  C   UNK N   1       6.263   0.443  -1.326  0.00  0.00     0.005 C 
ENDBRANCH  22  23
ENDBRANCH   7  22
TORSDOF 4
