REMARK  21 active torsions:
REMARK  status: ('A' for Active; 'I' for Inactive)
REMARK    1  A    between atoms: C_1  and  C_2 
REMARK    2  A    between atoms: C_1  and  O_13 
REMARK    3  A    between atoms: C_2  and  C_3 
REMARK    4  A    between atoms: C_2  and  O_12 
REMARK    5  A    between atoms: C_3  and  C_4 
REMARK    6  A    between atoms: C_3  and  O_11 
REMARK    7  A    between atoms: C_4  and  C_5 
REMARK    8  A    between atoms: C_4  and  O_10 
REMARK    9  A    between atoms: C_5  and  C_6 
REMARK   10  A    between atoms: C_5  and  O_9 
REMARK   11  A    between atoms: C_14  and  C_15 
REMARK   12  A    between atoms: C_14  and  O_26 
REMARK   13  A    between atoms: C_15  and  C_16 
REMARK   14  A    between atoms: C_15  and  O_25 
REMARK   15  A    between atoms: C_16  and  C_17 
REMARK   16  A    between atoms: C_16  and  O_24 
REMARK   17  A    between atoms: C_17  and  C_18 
REMARK   18  A    between atoms: C_17  and  O_23 
REMARK   19  A    between atoms: C_18  and  C_19 
REMARK   20  A    between atoms: C_18  and  O_22 
REMARK   21  A    between atoms: Mg_29  and  Mg_29 
ROOT
HETATM    1  O   UNK N   1      -0.216  -4.525  -0.000  0.00  0.00    -0.411 OA
HETATM    2  H   UNK N   1       0.754  -4.525  -0.000  0.00  0.00     0.205 HD
HETATM    3  H   UNK N   1      -0.701  -3.685  -0.000  0.00  0.00     0.205 HD
ENDROOT
TORSDOF 21
