REMARK  4 active torsions:
REMARK  status: ('A' for Active; 'I' for Inactive)
REMARK    1  A    between atoms: O_2  and  C_3 
REMARK    2  A    between atoms: C_7  and  C_8 
REMARK    3  A    between atoms: N_9  and  C_11 
REMARK    4  A    between atoms: C_18  and  O_19 
ROOT
HETATM    1  C   UNK N   1       3.788  -0.460   0.000  0.00  0.00     0.102 A 
HETATM    2  C   UNK N   1       4.479   0.764   0.000  0.00  0.00     0.040 A 
HETATM    3  C   UNK N   1       3.777   1.971  -0.000  0.00  0.00     0.004 A 
HETATM    4  C   UNK N   1       2.379   1.971  -0.000  0.00  0.00     0.016 A 
HETATM    5  C   UNK N   1       1.671   0.763  -0.000  0.00  0.00     0.015 A 
HETATM    6  C   UNK N   1       2.388  -0.458   0.000  0.00  0.00     0.110 A 
ENDROOT
BRANCH   5   7
HETATM    7  C   UNK N   1       0.190   0.807  -0.000  0.00  0.00     0.102 C 
HETATM    8  N   UNK N   1      -0.483  -0.289  -0.000  0.00  0.00    -0.365 N 
ATOM      9  HN  UNK N   1       0.040  -1.164  -0.000  1.00  0.00     0.165 HD
BRANCH   8  10
HETATM   10  C   UNK N   1      -1.895  -0.372  -0.000  0.00  0.00     0.031 A 
HETATM   11  C   UNK N   1      -2.717   0.768   0.000  0.00  0.00     0.030 A 
HETATM   12  C   UNK N   1      -4.110   0.623   0.000  0.00  0.00     0.009 A 
HETATM   13  C   UNK N   1      -4.682  -0.655   0.000  0.00  0.00    -0.062 A 
HETATM   14  C   UNK N   1      -6.159  -0.815   0.000  0.00  0.00     0.048 C 
HETATM   15  C   UNK N   1      -3.865  -1.786  -0.000  0.00  0.00     0.009 A 
HETATM   16  C   UNK N   1      -2.479  -1.643  -0.000  0.00  0.00     0.030 A 
ENDBRANCH   8  10
ENDBRANCH   5   7
BRANCH   6  17
HETATM   17  O   UNK N   1       1.740  -1.640   0.000  0.00  0.00    -0.357 OA
HETATM   18  H   UNK N   1       0.803  -1.661   0.000  0.00  0.00     0.217 HD
ENDBRANCH   6  17
BRANCH   1  19
HETATM   19  O   UNK N   1       4.443  -1.645   0.000  0.00  0.00    -0.353 OA
HETATM   20  C   UNK N   1       5.814  -1.757   0.000  0.00  0.00     0.210 C 
ENDBRANCH   1  19
TORSDOF 4
