MODEL 1
REMARK VINA RESULT:      -7.0      0.000      0.000
REMARK  12 active torsions:
REMARK  status: ('A' for Active; 'I' for Inactive)
REMARK    1  A    between atoms: O_1  and  C_2 
REMARK    2  A    between atoms: C_3  and  O_4 
REMARK    3  A    between atoms: C_5  and  O_6 
REMARK    4  A    between atoms: O_6  and  C_7 
REMARK    5  A    between atoms: C_10  and  O_11 
REMARK    6  A    between atoms: C_12  and  O_13 
REMARK    7  A    between atoms: O_13  and  P_14 
REMARK    8  A    between atoms: C_16  and  C_17 
REMARK    9  A    between atoms: C_17  and  O_18 
REMARK   10  A    between atoms: C_21  and  C_24 
REMARK   11  A    between atoms: C_22  and  P_23 
REMARK   12  A    between atoms: C_24  and  O_25 
ROOT
HETATM    1  C   UNK N   1      33.231  16.317   8.485  0.00  0.00     0.195 C 
HETATM    2  C   UNK N   1      33.211  14.899   9.084  0.00  0.00     0.183 C 
HETATM    3  O   UNK N   1      33.598  14.010   8.083  0.00  0.00    -0.390 OA
HETATM    4  C   UNK N   1      34.132  14.697  10.302  0.00  0.00     0.204 C 
HETATM    5  C   UNK N   1      35.275  15.721  10.397  0.00  0.00     0.295 C 
HETATM    6  O   UNK N   1      35.510  16.352   9.167  0.00  0.00    -0.340 OA
HETATM    7  C   UNK N   1      34.392  17.179   8.995  0.00  0.00     0.253 C 
HETATM    8  H   UNK N   1      33.935  13.400   7.408  0.00  0.00     0.210 HD
ENDROOT
BRANCH   1   9
HETATM    9  O   UNK N   1      31.984  16.945   8.589  0.00  0.00    -0.347 OA
BRANCH   9  10
HETATM   10  C   UNK N   1      31.227  16.387   7.548  0.00  0.00     0.292 C 
HETATM   11  C   UNK N   1      31.452  17.099   6.202  0.00  0.00     0.202 C 
HETATM   12  C   UNK N   1      30.123  17.334   5.489  0.00  0.00     0.162 C 
HETATM   13  C   UNK N   1      29.229  18.130   6.432  0.00  0.00     0.080 C 
HETATM   14  C   UNK N   1      29.129  17.385   7.764  0.00  0.00     0.232 C 
HETATM   15  O   UNK N   1      29.870  16.194   7.918  0.00  0.00    -0.342 OA
BRANCH  11  16
HETATM   16  O   UNK N   1      32.302  16.334   5.403  0.00  0.00    -0.388 OA
HETATM   17  H   UNK N   1      33.216  16.141   5.664  0.00  0.00     0.210 HD
ENDBRANCH  11  16
BRANCH  12  18
HETATM   18  O   UNK N   1      30.333  18.046   4.307  0.00  0.00    -0.392 OA
HETATM   19  H   UNK N   1      30.313  19.004   4.158  0.00  0.00     0.210 HD
ENDBRANCH  12  18
BRANCH  13  20
HETATM   20  P   UNK N   1      27.528  18.356   5.710  0.00  0.00    -0.131 P 
HETATM   21  H   UNK N   1      27.276  18.306   4.353  0.00  0.00     0.055 HD
HETATM   22  H   UNK N   1      26.471  18.584   6.568  0.00  0.00     0.055 HD
ENDBRANCH  13  20
BRANCH  14  23
HETATM   23  C   UNK N   1      28.751  18.122   9.009  0.00  0.00     0.171 C 
HETATM   24  O   UNK N   1      29.591  18.749   9.634  0.00  0.00    -0.648 OA
BRANCH  23  25
HETATM   25  O   UNK N   1      27.479  18.087   9.447  0.00  0.00    -0.774 OA
HETATM   26  H   UNK N   1      26.774  18.412   8.923  0.00  0.00     0.167 HD
ENDBRANCH  23  25
ENDBRANCH  14  23
ENDBRANCH   9  10
ENDBRANCH   1   9
BRANCH   4  27
HETATM   27  O   UNK N   1      33.393  14.707  11.485  0.00  0.00    -0.388 OA
HETATM   28  H   UNK N   1      33.292  14.321  12.369  0.00  0.00     0.210 HD
ENDBRANCH   4  27
BRANCH   7  29
HETATM   29  C   UNK N   1      34.732  18.320   8.077  0.00  0.00     0.172 C 
HETATM   30  O   UNK N   1      34.440  18.250   6.895  0.00  0.00    -0.648 OA
BRANCH  29  31
HETATM   31  O   UNK N   1      35.343  19.426   8.547  0.00  0.00    -0.774 OA
HETATM   32  H   UNK N   1      34.921  20.230   8.773  0.00  0.00     0.167 HD
ENDBRANCH  29  31
ENDBRANCH   7  29
BRANCH   5  33
HETATM   33  O   UNK N   1      36.438  15.093  10.847  0.00  0.00    -0.337 OA
BRANCH  33  34
HETATM   34  P   UNK N   1      36.987  14.138   9.503  0.00  0.00     0.004 P 
HETATM   35  H   UNK N   1      38.173  13.802   8.883  0.00  0.00     0.084 HD
HETATM   36  H   UNK N   1      35.920  13.537   8.868  0.00  0.00     0.084 HD
ENDBRANCH  33  34
ENDBRANCH   5  33
TORSDOF 12
ENDMDL
MODEL 2
REMARK VINA RESULT:      -6.7      1.619      6.988
REMARK  12 active torsions:
REMARK  status: ('A' for Active; 'I' for Inactive)
REMARK    1  A    between atoms: O_1  and  C_2 
REMARK    2  A    between atoms: C_3  and  O_4 
REMARK    3  A    between atoms: C_5  and  O_6 
REMARK    4  A    between atoms: O_6  and  C_7 
REMARK    5  A    between atoms: C_10  and  O_11 
REMARK    6  A    between atoms: C_12  and  O_13 
REMARK    7  A    between atoms: O_13  and  P_14 
REMARK    8  A    between atoms: C_16  and  C_17 
REMARK    9  A    between atoms: C_17  and  O_18 
REMARK   10  A    between atoms: C_21  and  C_24 
REMARK   11  A    between atoms: C_22  and  P_23 
REMARK   12  A    between atoms: C_24  and  O_25 
ROOT
HETATM    1  C   UNK N   1      30.125  16.753   7.290  0.00  0.00     0.195 C 
HETATM    2  C   UNK N   1      30.018  16.428   5.789  0.00  0.00     0.183 C 
HETATM    3  O   UNK N   1      29.319  15.230   5.663  0.00  0.00    -0.390 OA
HETATM    4  C   UNK N   1      29.308  17.501   4.942  0.00  0.00     0.204 C 
HETATM    5  C   UNK N   1      28.383  18.425   5.752  0.00  0.00     0.295 C 
HETATM    6  O   UNK N   1      28.040  17.860   6.989  0.00  0.00    -0.340 OA
HETATM    7  C   UNK N   1      29.230  17.919   7.727  0.00  0.00     0.253 C 
HETATM    8  H   UNK N   1      28.772  14.433   5.572  0.00  0.00     0.210 HD
ENDROOT
BRANCH   1   9
HETATM    9  O   UNK N   1      31.456  16.889   7.700  0.00  0.00    -0.347 OA
BRANCH   9  10
HETATM   10  C   UNK N   1      31.787  15.630   8.226  0.00  0.00     0.292 C 
HETATM   11  C   UNK N   1      32.173  15.691   9.715  0.00  0.00     0.202 C 
HETATM   12  C   UNK N   1      33.414  14.844   9.984  0.00  0.00     0.162 C 
HETATM   13  C   UNK N   1      34.523  15.349   9.069  0.00  0.00     0.080 C 
HETATM   14  C   UNK N   1      34.020  15.326   7.624  0.00  0.00     0.232 C 
HETATM   15  O   UNK N   1      32.689  14.922   7.389  0.00  0.00    -0.342 OA
BRANCH  11  16
HETATM   16  O   UNK N   1      31.104  15.247  10.495  0.00  0.00    -0.388 OA
HETATM   17  H   UNK N   1      30.390  14.704  10.126  0.00  0.00     0.210 HD
ENDBRANCH  11  16
BRANCH  12  18
HETATM   18  O   UNK N   1      33.797  14.966  11.321  0.00  0.00    -0.392 OA
HETATM   19  H   UNK N   1      34.298  15.676  11.750  0.00  0.00     0.210 HD
ENDBRANCH  12  18
BRANCH  13  20
HETATM   20  P   UNK N   1      36.049  14.292   9.221  0.00  0.00    -0.131 P 
HETATM   21  H   UNK N   1      36.245  13.404  10.259  0.00  0.00     0.055 HD
HETATM   22  H   UNK N   1      37.026  14.402   8.253  0.00  0.00     0.055 HD
ENDBRANCH  13  20
BRANCH  14  23
HETATM   23  C   UNK N   1      34.666  16.194   6.592  0.00  0.00     0.171 C 
HETATM   24  O   UNK N   1      35.433  15.712   5.774  0.00  0.00    -0.648 OA
BRANCH  23  25
HETATM   25  O   UNK N   1      34.407  17.514   6.570  0.00  0.00    -0.774 OA
HETATM   26  H   UNK N   1      34.581  18.057   7.313  0.00  0.00     0.167 HD
ENDBRANCH  23  25
ENDBRANCH  14  23
ENDBRANCH   9  10
ENDBRANCH   1   9
BRANCH   4  27
HETATM   27  O   UNK N   1      30.236  18.267   4.238  0.00  0.00    -0.388 OA
HETATM   28  H   UNK N   1      30.783  19.068   4.245  0.00  0.00     0.210 HD
ENDBRANCH   4  27
BRANCH   7  29
HETATM   29  C   UNK N   1      28.924  17.913   9.199  0.00  0.00     0.172 C 
HETATM   30  O   UNK N   1      27.788  17.682   9.578  0.00  0.00    -0.648 OA
BRANCH  29  31
HETATM   31  O   UNK N   1      29.893  18.146  10.106  0.00  0.00    -0.774 OA
HETATM   32  H   UNK N   1      30.788  18.342   9.913  0.00  0.00     0.167 HD
ENDBRANCH  29  31
ENDBRANCH   7  29
BRANCH   5  33
HETATM   33  O   UNK N   1      27.231  18.708   5.016  0.00  0.00    -0.337 OA
BRANCH  33  34
HETATM   34  P   UNK N   1      26.806  20.336   5.447  0.00  0.00     0.004 P 
HETATM   35  H   UNK N   1      26.473  21.523   4.826  0.00  0.00     0.084 HD
HETATM   36  H   UNK N   1      26.798  20.488   6.819  0.00  0.00     0.084 HD
ENDBRANCH  33  34
ENDBRANCH   5  33
TORSDOF 12
ENDMDL
MODEL 3
REMARK VINA RESULT:      -6.7      2.254      6.851
REMARK  12 active torsions:
REMARK  status: ('A' for Active; 'I' for Inactive)
REMARK    1  A    between atoms: O_1  and  C_2 
REMARK    2  A    between atoms: C_3  and  O_4 
REMARK    3  A    between atoms: C_5  and  O_6 
REMARK    4  A    between atoms: O_6  and  C_7 
REMARK    5  A    between atoms: C_10  and  O_11 
REMARK    6  A    between atoms: C_12  and  O_13 
REMARK    7  A    between atoms: O_13  and  P_14 
REMARK    8  A    between atoms: C_16  and  C_17 
REMARK    9  A    between atoms: C_17  and  O_18 
REMARK   10  A    between atoms: C_21  and  C_24 
REMARK   11  A    between atoms: C_22  and  P_23 
REMARK   12  A    between atoms: C_24  and  O_25 
ROOT
HETATM    1  C   UNK N   1      33.671  15.755   9.139  0.00  0.00     0.195 C 
HETATM    2  C   UNK N   1      32.340  14.985   9.052  0.00  0.00     0.183 C 
HETATM    3  O   UNK N   1      31.660  15.177  10.252  0.00  0.00    -0.390 OA
HETATM    4  C   UNK N   1      31.420  15.411   7.893  0.00  0.00     0.204 C 
HETATM    5  C   UNK N   1      31.703  16.825   7.358  0.00  0.00     0.295 C 
HETATM    6  O   UNK N   1      32.428  17.593   8.281  0.00  0.00    -0.340 OA
HETATM    7  C   UNK N   1      33.705  17.016   8.267  0.00  0.00     0.253 C 
HETATM    8  H   UNK N   1      31.155  15.368  11.059  0.00  0.00     0.210 HD
ENDROOT
BRANCH   1   9
HETATM    9  O   UNK N   1      34.774  14.914   8.944  0.00  0.00    -0.347 OA
BRANCH   9  10
HETATM   10  C   UNK N   1      35.297  14.724  10.233  0.00  0.00     0.292 C 
HETATM   11  C   UNK N   1      36.827  14.559  10.234  0.00  0.00     0.202 C 
HETATM   12  C   UNK N   1      37.243  13.413  11.152  0.00  0.00     0.162 C 
HETATM   13  C   UNK N   1      36.518  12.159  10.680  0.00  0.00     0.080 C 
HETATM   14  C   UNK N   1      35.015  12.444  10.637  0.00  0.00     0.232 C 
HETATM   15  O   UNK N   1      34.576  13.744  10.964  0.00  0.00    -0.342 OA
BRANCH  11  16
HETATM   16  O   UNK N   1      37.428  15.750  10.643  0.00  0.00    -0.388 OA
HETATM   17  H   UNK N   1      37.191  16.605  10.251  0.00  0.00     0.210 HD
ENDBRANCH  11  16
BRANCH  12  18
HETATM   18  O   UNK N   1      38.625  13.224  11.087  0.00  0.00    -0.392 OA
HETATM   19  H   UNK N   1      39.146  12.439  11.314  0.00  0.00     0.210 HD
ENDBRANCH  12  18
BRANCH  13  20
HETATM   20  P   UNK N   1      36.852  10.724  11.820  0.00  0.00    -0.131 P 
HETATM   21  H   UNK N   1      37.405   9.535  11.387  0.00  0.00     0.055 HD
HETATM   22  H   UNK N   1      36.533  10.855  13.157  0.00  0.00     0.055 HD
ENDBRANCH  13  20
BRANCH  14  23
HETATM   23  C   UNK N   1      34.118  11.613   9.776  0.00  0.00     0.171 C 
HETATM   24  O   UNK N   1      34.262  11.604   8.565  0.00  0.00    -0.648 OA
BRANCH  23  25
HETATM   25  O   UNK N   1      33.143  10.878  10.340  0.00  0.00    -0.774 OA
HETATM   26  H   UNK N   1      32.830  11.064  11.203  0.00  0.00     0.167 HD
ENDBRANCH  23  25
ENDBRANCH  14  23
ENDBRANCH   9  10
ENDBRANCH   1   9
BRANCH   4  27
HETATM   27  O   UNK N   1      31.488  14.492   6.847  0.00  0.00    -0.388 OA
HETATM   28  H   UNK N   1      31.500  13.552   6.607  0.00  0.00     0.210 HD
ENDBRANCH   4  27
BRANCH   7  29
HETATM   29  C   UNK N   1      34.729  18.020   8.718  0.00  0.00     0.172 C 
HETATM   30  O   UNK N   1      34.940  19.011   8.039  0.00  0.00    -0.648 OA
BRANCH  29  31
HETATM   31  O   UNK N   1      35.408  17.846   9.869  0.00  0.00    -0.774 OA
HETATM   32  H   UNK N   1      35.750  17.034  10.185  0.00  0.00     0.167 HD
ENDBRANCH  29  31
ENDBRANCH   7  29
BRANCH   5  33
HETATM   33  O   UNK N   1      30.502  17.462   7.040  0.00  0.00    -0.337 OA
BRANCH  33  34
HETATM   34  P   UNK N   1      29.832  17.955   8.566  0.00  0.00     0.004 P 
HETATM   35  H   UNK N   1      29.292  19.083   9.147  0.00  0.00     0.084 HD
HETATM   36  H   UNK N   1      29.844  16.906   9.463  0.00  0.00     0.084 HD
ENDBRANCH  33  34
ENDBRANCH   5  33
TORSDOF 12
ENDMDL
MODEL 4
REMARK VINA RESULT:      -6.4      2.985      7.143
REMARK  12 active torsions:
REMARK  status: ('A' for Active; 'I' for Inactive)
REMARK    1  A    between atoms: O_1  and  C_2 
REMARK    2  A    between atoms: C_3  and  O_4 
REMARK    3  A    between atoms: C_5  and  O_6 
REMARK    4  A    between atoms: O_6  and  C_7 
REMARK    5  A    between atoms: C_10  and  O_11 
REMARK    6  A    between atoms: C_12  and  O_13 
REMARK    7  A    between atoms: O_13  and  P_14 
REMARK    8  A    between atoms: C_16  and  C_17 
REMARK    9  A    between atoms: C_17  and  O_18 
REMARK   10  A    between atoms: C_21  and  C_24 
REMARK   11  A    between atoms: C_22  and  P_23 
REMARK   12  A    between atoms: C_24  and  O_25 
ROOT
HETATM    1  C   UNK N   1      34.771  15.607   9.127  0.00  0.00     0.195 C 
HETATM    2  C   UNK N   1      34.282  17.053   9.329  0.00  0.00     0.183 C 
HETATM    3  O   UNK N   1      35.394  17.840   9.618  0.00  0.00    -0.390 OA
HETATM    4  C   UNK N   1      33.550  17.664   8.118  0.00  0.00     0.204 C 
HETATM    5  C   UNK N   1      33.877  16.980   6.780  0.00  0.00     0.295 C 
HETATM    6  O   UNK N   1      35.067  16.241   6.853  0.00  0.00    -0.340 OA
HETATM    7  C   UNK N   1      34.734  15.147   7.665  0.00  0.00     0.253 C 
HETATM    8  H   UNK N   1      36.175  18.401   9.750  0.00  0.00     0.210 HD
ENDROOT
BRANCH   1   9
HETATM    9  O   UNK N   1      34.143  14.717  10.006  0.00  0.00    -0.347 OA
BRANCH   9  10
HETATM   10  C   UNK N   1      35.028  14.618  11.091  0.00  0.00     0.292 C 
HETATM   11  C   UNK N   1      36.504  14.604  10.653  0.00  0.00     0.202 C 
HETATM   12  C   UNK N   1      37.280  13.532  11.413  0.00  0.00     0.162 C 
HETATM   13  C   UNK N   1      36.583  12.199  11.169  0.00  0.00     0.080 C 
HETATM   14  C   UNK N   1      35.110  12.334  11.559  0.00  0.00     0.232 C 
HETATM   15  O   UNK N   1      34.650  13.593  11.998  0.00  0.00    -0.342 OA
BRANCH  11  16
HETATM   16  O   UNK N   1      37.071  15.860  10.873  0.00  0.00    -0.388 OA
HETATM   17  H   UNK N   1      37.942  16.099  10.519  0.00  0.00     0.210 HD
ENDBRANCH  11  16
BRANCH  12  18
HETATM   18  O   UNK N   1      38.598  13.479  10.955  0.00  0.00    -0.392 OA
HETATM   19  H   UNK N   1      39.423  13.555  11.457  0.00  0.00     0.210 HD
ENDBRANCH  12  18
BRANCH  13  20
HETATM   20  P   UNK N   1      37.374  10.838  12.165  0.00  0.00    -0.131 P 
HETATM   21  H   UNK N   1      38.724  10.555  12.108  0.00  0.00     0.055 HD
HETATM   22  H   UNK N   1      36.576  10.080  12.997  0.00  0.00     0.055 HD
ENDBRANCH  13  20
BRANCH  14  23
HETATM   23  C   UNK N   1      34.095  11.393  10.991  0.00  0.00     0.171 C 
HETATM   24  O   UNK N   1      33.848  10.340  11.555  0.00  0.00    -0.648 OA
BRANCH  23  25
HETATM   25  O   UNK N   1      33.458  11.706   9.848  0.00  0.00    -0.774 OA
HETATM   26  H   UNK N   1      33.697  12.461   9.348  0.00  0.00     0.167 HD
ENDBRANCH  23  25
ENDBRANCH  14  23
ENDBRANCH   9  10
ENDBRANCH   1   9
BRANCH   4  27
HETATM   27  O   UNK N   1      32.171  17.659   8.323  0.00  0.00    -0.388 OA
HETATM   28  H   UNK N   1      31.370  17.112   8.365  0.00  0.00     0.210 HD
ENDBRANCH   4  27
BRANCH   7  29
HETATM   29  C   UNK N   1      35.657  13.995   7.381  0.00  0.00     0.172 C 
HETATM   30  O   UNK N   1      36.669  14.180   6.727  0.00  0.00    -0.648 OA
BRANCH  29  31
HETATM   31  O   UNK N   1      35.386  12.762   7.852  0.00  0.00    -0.774 OA
HETATM   32  H   UNK N   1      34.540  12.442   8.096  0.00  0.00     0.167 HD
ENDBRANCH  29  31
ENDBRANCH   7  29
BRANCH   5  33
HETATM   33  O   UNK N   1      33.965  17.936   5.767  0.00  0.00    -0.337 OA
BRANCH  33  34
HETATM   34  P   UNK N   1      32.840  17.414   4.551  0.00  0.00     0.004 P 
HETATM   35  H   UNK N   1      31.834  16.483   4.398  0.00  0.00     0.084 HD
HETATM   36  H   UNK N   1      33.001  18.150   3.394  0.00  0.00     0.084 HD
ENDBRANCH  33  34
ENDBRANCH   5  33
TORSDOF 12
ENDMDL
MODEL 5
REMARK VINA RESULT:      -6.1     12.256     15.974
REMARK  12 active torsions:
REMARK  status: ('A' for Active; 'I' for Inactive)
REMARK    1  A    between atoms: O_1  and  C_2 
REMARK    2  A    between atoms: C_3  and  O_4 
REMARK    3  A    between atoms: C_5  and  O_6 
REMARK    4  A    between atoms: O_6  and  C_7 
REMARK    5  A    between atoms: C_10  and  O_11 
REMARK    6  A    between atoms: C_12  and  O_13 
REMARK    7  A    between atoms: O_13  and  P_14 
REMARK    8  A    between atoms: C_16  and  C_17 
REMARK    9  A    between atoms: C_17  and  O_18 
REMARK   10  A    between atoms: C_21  and  C_24 
REMARK   11  A    between atoms: C_22  and  P_23 
REMARK   12  A    between atoms: C_24  and  O_25 
ROOT
HETATM    1  C   UNK N   1      28.877  24.765  -3.833  0.00  0.00     0.195 C 
HETATM    2  C   UNK N   1      27.474  24.132  -3.853  0.00  0.00     0.183 C 
HETATM    3  O   UNK N   1      27.100  23.888  -2.534  0.00  0.00    -0.390 OA
HETATM    4  C   UNK N   1      26.384  24.993  -4.520  0.00  0.00     0.204 C 
HETATM    5  C   UNK N   1      26.719  26.493  -4.574  0.00  0.00     0.295 C 
HETATM    6  O   UNK N   1      27.718  26.835  -3.650  0.00  0.00    -0.340 OA
HETATM    7  C   UNK N   1      28.879  26.258  -4.183  0.00  0.00     0.253 C 
HETATM    8  H   UNK N   1      26.811  23.783  -1.613  0.00  0.00     0.210 HD
ENDROOT
BRANCH   1   9
HETATM    9  O   UNK N   1      29.797  24.018  -4.579  0.00  0.00    -0.347 OA
BRANCH   9  10
HETATM   10  C   UNK N   1      29.864  22.785  -3.912  0.00  0.00     0.292 C 
HETATM   11  C   UNK N   1      30.982  22.741  -2.855  0.00  0.00     0.202 C 
HETATM   12  C   UNK N   1      31.751  21.424  -2.940  0.00  0.00     0.162 C 
HETATM   13  C   UNK N   1      32.280  21.292  -4.363  0.00  0.00     0.080 C 
HETATM   14  C   UNK N   1      31.111  21.426  -5.340  0.00  0.00     0.232 C 
HETATM   15  O   UNK N   1      29.829  21.687  -4.812  0.00  0.00    -0.342 OA
BRANCH  11  16
HETATM   16  O   UNK N   1      30.433  22.900  -1.583  0.00  0.00    -0.388 OA
HETATM   17  H   UNK N   1      29.654  23.456  -1.426  0.00  0.00     0.210 HD
ENDBRANCH  11  16
BRANCH  12  18
HETATM   18  O   UNK N   1      32.808  21.427  -2.029  0.00  0.00    -0.392 OA
HETATM   19  H   UNK N   1      32.791  21.591  -1.074  0.00  0.00     0.210 HD
ENDBRANCH  12  18
BRANCH  13  20
HETATM   20  P   UNK N   1      33.122  19.649  -4.612  0.00  0.00    -0.131 P 
HETATM   21  H   UNK N   1      32.676  18.481  -4.025  0.00  0.00     0.055 HD
HETATM   22  H   UNK N   1      34.240  19.596  -5.419  0.00  0.00     0.055 HD
ENDBRANCH  13  20
BRANCH  14  23
HETATM   23  C   UNK N   1      31.362  21.824  -6.759  0.00  0.00     0.171 C 
HETATM   24  O   UNK N   1      31.455  20.975  -7.631  0.00  0.00    -0.648 OA
BRANCH  23  25
HETATM   25  O   UNK N   1      31.496  23.125  -7.076  0.00  0.00    -0.774 OA
HETATM   26  H   UNK N   1      32.298  23.462  -7.422  0.00  0.00     0.167 HD
ENDBRANCH  23  25
ENDBRANCH  14  23
ENDBRANCH   9  10
ENDBRANCH   1   9
BRANCH   4  27
HETATM   27  O   UNK N   1      26.108  24.527  -5.805  0.00  0.00    -0.388 OA
HETATM   28  H   UNK N   1      25.665  24.718  -6.647  0.00  0.00     0.210 HD
ENDBRANCH   4  27
BRANCH   7  29
HETATM   29  C   UNK N   1      30.094  26.985  -3.676  0.00  0.00     0.172 C 
HETATM   30  O   UNK N   1      30.190  28.189  -3.845  0.00  0.00    -0.648 OA
BRANCH  29  31
HETATM   31  O   UNK N   1      31.072  26.324  -3.027  0.00  0.00    -0.774 OA
HETATM   32  H   UNK N   1      31.352  25.448  -3.203  0.00  0.00     0.167 HD
ENDBRANCH  29  31
ENDBRANCH   7  29
BRANCH   5  33
HETATM   33  O   UNK N   1      25.567  27.245  -4.338  0.00  0.00    -0.337 OA
BRANCH  33  34
HETATM   34  P   UNK N   1      26.139  28.822  -3.888  0.00  0.00     0.004 P 
HETATM   35  H   UNK N   1      25.645  30.101  -3.729  0.00  0.00     0.084 HD
HETATM   36  H   UNK N   1      27.489  28.786  -3.604  0.00  0.00     0.084 HD
ENDBRANCH  33  34
ENDBRANCH   5  33
TORSDOF 12
ENDMDL
MODEL 6
REMARK VINA RESULT:      -6.1      3.453      5.542
REMARK  12 active torsions:
REMARK  status: ('A' for Active; 'I' for Inactive)
REMARK    1  A    between atoms: O_1  and  C_2 
REMARK    2  A    between atoms: C_3  and  O_4 
REMARK    3  A    between atoms: C_5  and  O_6 
REMARK    4  A    between atoms: O_6  and  C_7 
REMARK    5  A    between atoms: C_10  and  O_11 
REMARK    6  A    between atoms: C_12  and  O_13 
REMARK    7  A    between atoms: O_13  and  P_14 
REMARK    8  A    between atoms: C_16  and  C_17 
REMARK    9  A    between atoms: C_17  and  O_18 
REMARK   10  A    between atoms: C_21  and  C_24 
REMARK   11  A    between atoms: C_22  and  P_23 
REMARK   12  A    between atoms: C_24  and  O_25 
ROOT
HETATM    1  C   UNK N   1      35.298  13.469  11.200  0.00  0.00     0.195 C 
HETATM    2  C   UNK N   1      35.062  12.218  10.334  0.00  0.00     0.183 C 
HETATM    3  O   UNK N   1      36.265  11.904   9.705  0.00  0.00    -0.390 OA
HETATM    4  C   UNK N   1      34.574  10.977  11.106  0.00  0.00     0.204 C 
HETATM    5  C   UNK N   1      34.899  11.009  12.608  0.00  0.00     0.295 C 
HETATM    6  O   UNK N   1      35.923  11.923  12.898  0.00  0.00    -0.340 OA
HETATM    7  C   UNK N   1      35.320  13.174  12.705  0.00  0.00     0.253 C 
HETATM    8  H   UNK N   1      37.118  11.644   9.324  0.00  0.00     0.210 HD
ENDROOT
BRANCH   1   9
HETATM    9  O   UNK N   1      34.436  14.516  10.851  0.00  0.00    -0.347 OA
BRANCH   9  10
HETATM   10  C   UNK N   1      35.127  15.212   9.847  0.00  0.00     0.292 C 
HETATM   11  C   UNK N   1      34.870  16.729   9.893  0.00  0.00     0.202 C 
HETATM   12  C   UNK N   1      34.621  17.275   8.489  0.00  0.00     0.162 C 
HETATM   13  C   UNK N   1      33.453  16.499   7.894  0.00  0.00     0.080 C 
HETATM   14  C   UNK N   1      33.767  15.003   7.963  0.00  0.00     0.232 C 
HETATM   15  O   UNK N   1      34.976  14.605   8.573  0.00  0.00    -0.342 OA
BRANCH  11  16
HETATM   16  O   UNK N   1      35.960  17.374  10.477  0.00  0.00    -0.388 OA
HETATM   17  H   UNK N   1      35.950  17.662  11.403  0.00  0.00     0.210 HD
ENDBRANCH  11  16
BRANCH  12  18
HETATM   18  O   UNK N   1      34.315  18.636   8.551  0.00  0.00    -0.392 OA
HETATM   19  H   UNK N   1      33.479  19.084   8.353  0.00  0.00     0.210 HD
ENDBRANCH  12  18
BRANCH  13  20
HETATM   20  P   UNK N   1      33.153  16.995   6.124  0.00  0.00    -0.131 P 
HETATM   21  H   UNK N   1      33.501  18.234   5.623  0.00  0.00     0.055 HD
HETATM   22  H   UNK N   1      32.556  16.085   5.275  0.00  0.00     0.055 HD
ENDBRANCH  13  20
BRANCH  14  23
HETATM   23  C   UNK N   1      32.658  14.001   7.920  0.00  0.00     0.171 C 
HETATM   24  O   UNK N   1      32.092  13.753   6.868  0.00  0.00    -0.648 OA
BRANCH  23  25
HETATM   25  O   UNK N   1      32.276  13.376   9.049  0.00  0.00    -0.774 OA
HETATM   26  H   UNK N   1      32.871  13.253   9.762  0.00  0.00     0.167 HD
ENDBRANCH  23  25
ENDBRANCH  14  23
ENDBRANCH   9  10
ENDBRANCH   1   9
BRANCH   4  27
HETATM   27  O   UNK N   1      33.203  10.794  10.926  0.00  0.00    -0.388 OA
HETATM   28  H   UNK N   1      32.483  10.723  10.280  0.00  0.00     0.210 HD
ENDBRANCH   4  27
BRANCH   7  29
HETATM   29  C   UNK N   1      36.042  14.223  13.505  0.00  0.00     0.172 C 
HETATM   30  O   UNK N   1      36.290  14.019  14.681  0.00  0.00    -0.648 OA
BRANCH  29  31
HETATM   31  O   UNK N   1      36.430  15.380  12.934  0.00  0.00    -0.774 OA
HETATM   32  H   UNK N   1      36.392  16.227  13.333  0.00  0.00     0.167 HD
ENDBRANCH  29  31
ENDBRANCH   7  29
BRANCH   5  33
HETATM   33  O   UNK N   1      35.257   9.732  13.043  0.00  0.00    -0.337 OA
BRANCH  33  34
HETATM   34  P   UNK N   1      36.932   9.559  12.614  0.00  0.00     0.004 P 
HETATM   35  H   UNK N   1      37.692   9.191  11.523  0.00  0.00     0.084 HD
HETATM   36  H   UNK N   1      37.743   9.888  13.681  0.00  0.00     0.084 HD
ENDBRANCH  33  34
ENDBRANCH   5  33
TORSDOF 12
ENDMDL
MODEL 7
REMARK VINA RESULT:      -6.1      2.529      7.202
REMARK  12 active torsions:
REMARK  status: ('A' for Active; 'I' for Inactive)
REMARK    1  A    between atoms: O_1  and  C_2 
REMARK    2  A    between atoms: C_3  and  O_4 
REMARK    3  A    between atoms: C_5  and  O_6 
REMARK    4  A    between atoms: O_6  and  C_7 
REMARK    5  A    between atoms: C_10  and  O_11 
REMARK    6  A    between atoms: C_12  and  O_13 
REMARK    7  A    between atoms: O_13  and  P_14 
REMARK    8  A    between atoms: C_16  and  C_17 
REMARK    9  A    between atoms: C_17  and  O_18 
REMARK   10  A    between atoms: C_21  and  C_24 
REMARK   11  A    between atoms: C_22  and  P_23 
REMARK   12  A    between atoms: C_24  and  O_25 
ROOT
HETATM    1  C   UNK N   1      33.810  15.723   9.244  0.00  0.00     0.195 C 
HETATM    2  C   UNK N   1      32.488  14.943   9.127  0.00  0.00     0.183 C 
HETATM    3  O   UNK N   1      31.810  15.075  10.337  0.00  0.00    -0.390 OA
HETATM    4  C   UNK N   1      31.558  15.409   7.991  0.00  0.00     0.204 C 
HETATM    5  C   UNK N   1      31.823  16.848   7.518  0.00  0.00     0.295 C 
HETATM    6  O   UNK N   1      32.542  17.583   8.471  0.00  0.00    -0.340 OA
HETATM    7  C   UNK N   1      33.826  17.022   8.427  0.00  0.00     0.253 C 
HETATM    8  H   UNK N   1      31.306  15.225  11.153  0.00  0.00     0.210 HD
ENDROOT
BRANCH   1   9
HETATM    9  O   UNK N   1      34.921  14.905   9.008  0.00  0.00    -0.347 OA
BRANCH   9  10
HETATM   10  C   UNK N   1      34.657  13.741   9.747  0.00  0.00     0.292 C 
HETATM   11  C   UNK N   1      35.248  13.793  11.168  0.00  0.00     0.202 C 
HETATM   12  C   UNK N   1      35.926  12.471  11.517  0.00  0.00     0.162 C 
HETATM   13  C   UNK N   1      36.980  12.198  10.451  0.00  0.00     0.080 C 
HETATM   14  C   UNK N   1      36.314  12.244   9.075  0.00  0.00     0.232 C 
HETATM   15  O   UNK N   1      34.941  12.562   9.010  0.00  0.00    -0.342 OA
BRANCH  11  16
HETATM   16  O   UNK N   1      34.239  14.078  12.087  0.00  0.00    -0.388 OA
HETATM   17  H   UNK N   1      34.050  13.495  12.839  0.00  0.00     0.210 HD
ENDBRANCH  11  16
BRANCH  12  18
HETATM   18  O   UNK N   1      36.522  12.555  12.776  0.00  0.00    -0.392 OA
HETATM   19  H   UNK N   1      36.578  11.883  13.473  0.00  0.00     0.210 HD
ENDBRANCH  12  18
BRANCH  13  20
HETATM   20  P   UNK N   1      37.777  10.534  10.708  0.00  0.00    -0.131 P 
HETATM   21  H   UNK N   1      37.060   9.355  10.727  0.00  0.00     0.055 HD
HETATM   22  H   UNK N   1      39.144  10.478  10.887  0.00  0.00     0.055 HD
ENDBRANCH  13  20
BRANCH  14  23
HETATM   23  C   UNK N   1      37.136  12.502   7.852  0.00  0.00     0.171 C 
HETATM   24  O   UNK N   1      37.540  11.572   7.173  0.00  0.00    -0.648 OA
BRANCH  23  25
HETATM   25  O   UNK N   1      37.440  13.766   7.504  0.00  0.00    -0.774 OA
HETATM   26  H   UNK N   1      37.886  13.956   6.702  0.00  0.00     0.167 HD
ENDBRANCH  23  25
ENDBRANCH  14  23
ENDBRANCH   9  10
ENDBRANCH   1   9
BRANCH   4  27
HETATM   27  O   UNK N   1      31.632  14.537   6.906  0.00  0.00    -0.388 OA
HETATM   28  H   UNK N   1      31.575  14.453   5.941  0.00  0.00     0.210 HD
ENDBRANCH   4  27
BRANCH   7  29
HETATM   29  C   UNK N   1      34.840  18.018   8.918  0.00  0.00     0.172 C 
HETATM   30  O   UNK N   1      35.004  19.061   8.308  0.00  0.00    -0.648 OA
BRANCH  29  31
HETATM   31  O   UNK N   1      35.562  17.777  10.030  0.00  0.00    -0.774 OA
HETATM   32  H   UNK N   1      35.225  17.732  10.902  0.00  0.00     0.167 HD
ENDBRANCH  29  31
ENDBRANCH   7  29
BRANCH   5  33
HETATM   33  O   UNK N   1      30.613  17.484   7.232  0.00  0.00    -0.337 OA
BRANCH  33  34
HETATM   34  P   UNK N   1      29.984  17.977   8.775  0.00  0.00     0.004 P 
HETATM   35  H   UNK N   1      30.191  17.713  10.113  0.00  0.00     0.084 HD
HETATM   36  H   UNK N   1      28.980  18.910   8.614  0.00  0.00     0.084 HD
ENDBRANCH  33  34
ENDBRANCH   5  33
TORSDOF 12
ENDMDL
MODEL 8
REMARK VINA RESULT:      -6.0      5.590      8.284
REMARK  12 active torsions:
REMARK  status: ('A' for Active; 'I' for Inactive)
REMARK    1  A    between atoms: O_1  and  C_2 
REMARK    2  A    between atoms: C_3  and  O_4 
REMARK    3  A    between atoms: C_5  and  O_6 
REMARK    4  A    between atoms: O_6  and  C_7 
REMARK    5  A    between atoms: C_10  and  O_11 
REMARK    6  A    between atoms: C_12  and  O_13 
REMARK    7  A    between atoms: O_13  and  P_14 
REMARK    8  A    between atoms: C_16  and  C_17 
REMARK    9  A    between atoms: C_17  and  O_18 
REMARK   10  A    between atoms: C_21  and  C_24 
REMARK   11  A    between atoms: C_22  and  P_23 
REMARK   12  A    between atoms: C_24  and  O_25 
ROOT
HETATM    1  C   UNK N   1      26.142  18.152   4.924  0.00  0.00     0.195 C 
HETATM    2  C   UNK N   1      26.205  16.645   5.235  0.00  0.00     0.183 C 
HETATM    3  O   UNK N   1      26.655  15.994   4.089  0.00  0.00    -0.390 OA
HETATM    4  C   UNK N   1      27.126  16.264   6.409  0.00  0.00     0.204 C 
HETATM    5  C   UNK N   1      28.202  17.316   6.726  0.00  0.00     0.295 C 
HETATM    6  O   UNK N   1      28.408  18.188   5.646  0.00  0.00    -0.340 OA
HETATM    7  C   UNK N   1      27.242  18.965   5.616  0.00  0.00     0.253 C 
HETATM    8  H   UNK N   1      27.036  15.549   3.315  0.00  0.00     0.210 HD
ENDROOT
BRANCH   1   9
HETATM    9  O   UNK N   1      24.857  18.672   5.123  0.00  0.00    -0.347 OA
BRANCH   9  10
HETATM   10  C   UNK N   1      24.310  18.748   3.833  0.00  0.00     0.292 C 
HETATM   11  C   UNK N   1      23.902  20.180   3.443  0.00  0.00     0.202 C 
HETATM   12  C   UNK N   1      22.532  20.185   2.771  0.00  0.00     0.162 C 
HETATM   13  C   UNK N   1      21.545  19.534   3.732  0.00  0.00     0.080 C 
HETATM   14  C   UNK N   1      22.073  18.153   4.122  0.00  0.00     0.232 C 
HETATM   15  O   UNK N   1      23.325  17.750   3.610  0.00  0.00    -0.342 OA
BRANCH  11  16
HETATM   16  O   UNK N   1      24.862  20.727   2.591  0.00  0.00    -0.388 OA
HETATM   17  H   UNK N   1      25.531  21.355   2.907  0.00  0.00     0.210 HD
ENDBRANCH  11  16
BRANCH  12  18
HETATM   18  O   UNK N   1      22.141  21.495   2.490  0.00  0.00    -0.392 OA
HETATM   19  H   UNK N   1      22.639  22.319   2.603  0.00  0.00     0.210 HD
ENDBRANCH  12  18
BRANCH  13  20
HETATM   20  P   UNK N   1      19.863  19.367   2.952  0.00  0.00    -0.131 P 
HETATM   21  H   UNK N   1      19.143  18.189   2.966  0.00  0.00     0.055 HD
HETATM   22  H   UNK N   1      19.310  20.469   2.331  0.00  0.00     0.055 HD
ENDBRANCH  13  20
BRANCH  14  23
HETATM   23  C   UNK N   1      21.605  17.499   5.383  0.00  0.00     0.171 C 
HETATM   24  O   UNK N   1      20.682  16.703   5.359  0.00  0.00    -0.648 OA
BRANCH  23  25
HETATM   25  O   UNK N   1      22.201  17.798   6.552  0.00  0.00    -0.774 OA
HETATM   26  H   UNK N   1      21.752  18.279   7.219  0.00  0.00     0.167 HD
ENDBRANCH  23  25
ENDBRANCH  14  23
ENDBRANCH   9  10
ENDBRANCH   1   9
BRANCH   4  27
HETATM   27  O   UNK N   1      26.378  15.999   7.556  0.00  0.00    -0.388 OA
HETATM   28  H   UNK N   1      25.862  16.384   8.282  0.00  0.00     0.210 HD
ENDBRANCH   4  27
BRANCH   7  29
HETATM   29  C   UNK N   1      27.518  20.282   4.945  0.00  0.00     0.172 C 
HETATM   30  O   UNK N   1      27.576  21.300   5.614  0.00  0.00    -0.648 OA
BRANCH  29  31
HETATM   31  O   UNK N   1      27.716  20.350   3.613  0.00  0.00    -0.774 OA
HETATM   32  H   UNK N   1      27.846  19.620   3.041  0.00  0.00     0.167 HD
ENDBRANCH  29  31
ENDBRANCH   7  29
BRANCH   5  33
HETATM   33  O   UNK N   1      29.399  16.683   7.068  0.00  0.00    -0.337 OA
BRANCH  33  34
HETATM   34  P   UNK N   1      30.039  16.082   5.569  0.00  0.00     0.004 P 
HETATM   35  H   UNK N   1      29.598  15.418   4.443  0.00  0.00     0.084 HD
HETATM   36  H   UNK N   1      31.390  16.348   5.478  0.00  0.00     0.084 HD
ENDBRANCH  33  34
ENDBRANCH   5  33
TORSDOF 12
ENDMDL
MODEL 9
REMARK VINA RESULT:      -6.0      2.719      3.947
REMARK  12 active torsions:
REMARK  status: ('A' for Active; 'I' for Inactive)
REMARK    1  A    between atoms: O_1  and  C_2 
REMARK    2  A    between atoms: C_3  and  O_4 
REMARK    3  A    between atoms: C_5  and  O_6 
REMARK    4  A    between atoms: O_6  and  C_7 
REMARK    5  A    between atoms: C_10  and  O_11 
REMARK    6  A    between atoms: C_12  and  O_13 
REMARK    7  A    between atoms: O_13  and  P_14 
REMARK    8  A    between atoms: C_16  and  C_17 
REMARK    9  A    between atoms: C_17  and  O_18 
REMARK   10  A    between atoms: C_21  and  C_24 
REMARK   11  A    between atoms: C_22  and  P_23 
REMARK   12  A    between atoms: C_24  and  O_25 
ROOT
HETATM    1  C   UNK N   1      34.646  13.854  10.108  0.00  0.00     0.195 C 
HETATM    2  C   UNK N   1      34.894  12.383  10.487  0.00  0.00     0.183 C 
HETATM    3  O   UNK N   1      35.960  11.921   9.719  0.00  0.00    -0.390 OA
HETATM    4  C   UNK N   1      35.219  12.142  11.973  0.00  0.00     0.204 C 
HETATM    5  C   UNK N   1      35.756  13.384  12.704  0.00  0.00     0.295 C 
HETATM    6  O   UNK N   1      36.240  14.346  11.805  0.00  0.00    -0.340 OA
HETATM    7  C   UNK N   1      35.082  14.846  11.194  0.00  0.00     0.253 C 
HETATM    8  H   UNK N   1      36.747  11.620   9.236  0.00  0.00     0.210 HD
ENDROOT
BRANCH   1   9
HETATM    9  O   UNK N   1      33.337  14.064   9.657  0.00  0.00    -0.347 OA
BRANCH   9  10
HETATM   10  C   UNK N   1      33.412  13.855   8.271  0.00  0.00     0.292 C 
HETATM   11  C   UNK N   1      34.680  14.463   7.646  0.00  0.00     0.202 C 
HETATM   12  C   UNK N   1      34.342  15.196   6.350  0.00  0.00     0.162 C 
HETATM   13  C   UNK N   1      33.287  16.246   6.677  0.00  0.00     0.080 C 
HETATM   14  C   UNK N   1      32.104  15.560   7.363  0.00  0.00     0.232 C 
HETATM   15  O   UNK N   1      32.193  14.175   7.616  0.00  0.00    -0.342 OA
BRANCH  11  16
HETATM   16  O   UNK N   1      35.614  13.456   7.403  0.00  0.00    -0.388 OA
HETATM   17  H   UNK N   1      35.859  13.188   6.504  0.00  0.00     0.210 HD
ENDBRANCH  11  16
BRANCH  12  18
HETATM   18  O   UNK N   1      35.486  15.806   5.833  0.00  0.00    -0.392 OA
HETATM   19  H   UNK N   1      35.568  16.645   5.353  0.00  0.00     0.210 HD
ENDBRANCH  12  18
BRANCH  13  20
HETATM   20  P   UNK N   1      32.703  17.110   5.133  0.00  0.00    -0.131 P 
HETATM   21  H   UNK N   1      33.533  17.373   4.062  0.00  0.00     0.055 HD
HETATM   22  H   UNK N   1      31.383  17.505   5.057  0.00  0.00     0.055 HD
ENDBRANCH  13  20
BRANCH  14  23
HETATM   23  C   UNK N   1      31.170  16.355   8.218  0.00  0.00     0.171 C 
HETATM   24  O   UNK N   1      30.164  16.850   7.737  0.00  0.00    -0.648 OA
BRANCH  23  25
HETATM   25  O   UNK N   1      31.444  16.531   9.524  0.00  0.00    -0.774 OA
HETATM   26  H   UNK N   1      32.285  16.318   9.878  0.00  0.00     0.167 HD
ENDBRANCH  23  25
ENDBRANCH  14  23
ENDBRANCH   9  10
ENDBRANCH   1   9
BRANCH   4  27
HETATM   27  O   UNK N   1      34.104  11.646  12.647  0.00  0.00    -0.388 OA
HETATM   28  H   UNK N   1      33.560  11.708  13.448  0.00  0.00     0.210 HD
ENDBRANCH   4  27
BRANCH   7  29
HETATM   29  C   UNK N   1      35.335  16.231  10.666  0.00  0.00     0.172 C 
HETATM   30  O   UNK N   1      36.469  16.681  10.674  0.00  0.00    -0.648 OA
BRANCH  29  31
HETATM   31  O   UNK N   1      34.328  16.975  10.170  0.00  0.00    -0.774 OA
HETATM   32  H   UNK N   1      34.413  17.821   9.778  0.00  0.00     0.167 HD
ENDBRANCH  29  31
ENDBRANCH   7  29
BRANCH   5  33
HETATM   33  O   UNK N   1      36.762  13.011  13.598  0.00  0.00    -0.337 OA
BRANCH  33  34
HETATM   34  P   UNK N   1      36.182  13.497  15.162  0.00  0.00     0.004 P 
HETATM   35  H   UNK N   1      36.632  13.552  16.465  0.00  0.00     0.084 HD
HETATM   36  H   UNK N   1      34.888  13.969  15.074  0.00  0.00     0.084 HD
ENDBRANCH  33  34
ENDBRANCH   5  33
TORSDOF 12
ENDMDL
