REMARK  5 active torsions:
REMARK  status: ('A' for Active; 'I' for Inactive)
REMARK    1  A    between atoms: C_6  and  C_3 
REMARK    2  A    between atoms: S_21  and  C_6 
REMARK    3  A    between atoms: S_21  and  C_8 
REMARK       I    between atoms: N_16  and  C_11 
REMARK    4  A    between atoms: O_18  and  C_12 
REMARK    5  A    between atoms: O_20  and  C_12 
ROOT
HETATM    1  C   UNK N   1       5.047   0.741   0.177  0.00  0.00     0.023 A 
HETATM    2  C   UNK N   1       3.911   1.544  -0.027  0.00  0.00     0.034 A 
HETATM    3  C   UNK N   1       3.655  -1.274   0.237  0.00  0.00     0.053 A 
HETATM    4  C   UNK N   1       4.929  -0.669   0.305  0.00  0.00     0.033 A 
HETATM    5  C   UNK N   1       2.680   0.905  -0.080  0.00  0.00     0.076 A 
HETATM    6  C   UNK N   1       2.557  -0.445   0.039  0.00  0.00     0.077 A 
HETATM    7  C   UNK N   1       0.620   0.401  -0.143  0.00  0.00     0.686 A 
HETATM    8  C   UNK N   1      -1.452   1.622  -0.028  0.00  0.00     0.276 C 
HETATM    9  N   UNK N   1       1.468   1.462  -0.196  0.00  0.00    -0.189 N 
ATOM     10  HN  UNK N   1       1.235   2.450  -0.300  1.00  0.00     0.184 HD
HETATM   11  N   UNK N   1       1.261  -0.787  -0.004  0.00  0.00    -0.189 N 
HETATM   12  N   UNK N   1      -0.798   0.507  -0.118  0.00  0.00    -0.149 N 
ATOM     13  HN  UNK N   1      -1.338  -0.356  -0.176  1.00  0.00     0.188 HD
HETATM   14  H   UNK N   1       0.868  -1.688   0.051  0.00  0.00     0.184 HD
ENDROOT
BRANCH   8  15
HETATM   15  O   UNK N   1      -0.804   2.802   0.052  0.00  0.00    -0.326 OA
HETATM   16  H   UNK N   1       0.131   2.822   0.107  0.00  0.00     0.221 HD
ENDBRANCH   8  15
BRANCH   8  17
HETATM   17  O   UNK N   1      -2.807   1.620   0.020  0.00  0.00    -0.321 OA
HETATM   18  C   UNK N   1      -3.552   0.463   0.004  0.00  0.00     0.213 C 
ENDBRANCH   8  17
BRANCH   4  19
HETATM   19  S   UNK N   1       6.378  -1.677   0.685  0.00  0.00     0.050 S 
HETATM   20  O   UNK N   1       6.082  -2.693  -0.429  0.00  0.00    -0.253 OA
BRANCH  19  21
HETATM   21  C   UNK N   1       7.522  -0.758  -0.390  0.00  0.00     0.114 C 
BRANCH  21  22
HETATM   22  C   UNK N   1       8.244   0.295   0.426  0.00  0.00     0.008 C 
HETATM   23  C   UNK N   1       9.069   1.167  -0.495  0.00  0.00     0.006 C 
ENDBRANCH  21  22
ENDBRANCH  19  21
ENDBRANCH   4  19
TORSDOF 5
