MODEL 1
REMARK VINA RESULT:      -7.1      0.000      0.000
REMARK  6 active torsions:
REMARK  status: ('A' for Active; 'I' for Inactive)
REMARK    1  A    between atoms: C_18  and  C_13 
REMARK    2  A    between atoms: N_26  and  C_13 
REMARK    3  A    between atoms: C_17  and  C_16 
REMARK    4  A    between atoms: O_31  and  C_16 
REMARK    5  A    between atoms: O_30  and  C_25 
REMARK    6  A    between atoms: O_31  and  C_25 
ROOT
HETATM    1  C   UNK N   1      26.214  15.157   5.418  0.00  0.00     0.310 C 
HETATM    2  C   UNK N   1      33.507  12.636   3.971  0.00  0.00     0.155 C 
HETATM    3  C   UNK N   1      33.172  17.139   3.963  0.00  0.00     0.003 A 
HETATM    4  C   UNK N   1      31.871  17.606   4.296  0.00  0.00     0.008 A 
HETATM    5  C   UNK N   1      33.450  15.749   3.903  0.00  0.00     0.030 A 
HETATM    6  C   UNK N   1      28.890  18.316   4.453  0.00  0.00     0.019 C 
HETATM    7  C   UNK N   1      28.898  14.476   5.082  0.00  0.00     0.077 C 
HETATM    8  C   UNK N   1      26.898  17.408   5.781  0.00  0.00     0.278 C 
HETATM    9  C   UNK N   1      31.123  13.139   4.558  0.00  0.00     0.098 A 
HETATM   10  C   UNK N   1      27.570  18.657   5.169  0.00  0.00     0.032 C 
HETATM   11  C   UNK N   1      30.348  14.287   4.721  0.00  0.00    -0.027 A 
HETATM   12  C   UNK N   1      30.841  16.675   4.541  0.00  0.00    -0.039 A 
HETATM   13  C   UNK N   1      29.443  17.008   4.996  0.00  0.00     0.053 C 
HETATM   14  C   UNK N   1      32.400  14.873   4.182  0.00  0.00     0.045 A 
HETATM   15  C   UNK N   1      28.432  15.882   4.573  0.00  0.00     0.235 C 
HETATM   16  C   UNK N   1      31.170  15.341   4.482  0.00  0.00     0.005 A 
HETATM   17  N   UNK N   1      27.019  16.250   4.889  0.00  0.00     0.090 N 
HETATM   18  N   UNK N   1      32.385  13.524   4.223  0.00  0.00    -0.360 N 
ENDROOT
BRANCH  10  19
HETATM   19  C   UNK N   1      27.870  19.642   6.301  0.00  0.00     0.130 C 
BRANCH  19  20
HETATM   20  N   UNK N   1      27.391  19.145   7.572  0.00  0.00    -0.350 N 
HETATM   21  C   UNK N   1      28.110  18.526   8.454  0.00  0.00     0.258 C 
ATOM     22  HN  UNK N   1      26.406  19.295   7.792  1.00  0.00     0.163 HD
BRANCH  21  23
HETATM   23  O   UNK N   1      27.547  18.208   9.633  0.00  0.00    -0.327 OA
HETATM   24  H   UNK N   1      26.960  17.484   9.733  0.00  0.00     0.221 HD
ENDBRANCH  21  23
BRANCH  21  25
HETATM   25  O   UNK N   1      29.419  18.206   8.255  0.00  0.00    -0.312 OA
BRANCH  25  26
HETATM   26  C   UNK N   1      30.001  17.037   8.695  0.00  0.00     0.218 C 
BRANCH  26  27
HETATM   27  C   UNK N   1      31.423  16.975   8.251  0.00  0.00    -0.034 A 
HETATM   28  C   UNK N   1      32.015  15.737   7.979  0.00  0.00     0.009 A 
HETATM   29  C   UNK N   1      33.354  15.676   7.577  0.00  0.00     0.001 A 
HETATM   30  C   UNK N   1      34.098  16.851   7.437  0.00  0.00     0.000 A 
HETATM   31  C   UNK N   1      33.508  18.089   7.704  0.00  0.00     0.001 A 
HETATM   32  C   UNK N   1      32.175  18.151   8.117  0.00  0.00     0.009 A 
ENDBRANCH  26  27
ENDBRANCH  25  26
ENDBRANCH  21  25
ENDBRANCH  19  20
ENDBRANCH  10  19
TORSDOF 6
ENDMDL
MODEL 2
REMARK VINA RESULT:      -6.9     14.817     17.389
REMARK  6 active torsions:
REMARK  status: ('A' for Active; 'I' for Inactive)
REMARK    1  A    between atoms: C_18  and  C_13 
REMARK    2  A    between atoms: N_26  and  C_13 
REMARK    3  A    between atoms: C_17  and  C_16 
REMARK    4  A    between atoms: O_31  and  C_16 
REMARK    5  A    between atoms: O_30  and  C_25 
REMARK    6  A    between atoms: O_31  and  C_25 
ROOT
HETATM    1  C   UNK N   1      30.570  28.079  -9.792  0.00  0.00     0.310 C 
HETATM    2  C   UNK N   1      27.260  30.090  -2.963  0.00  0.00     0.155 C 
HETATM    3  C   UNK N   1      24.738  27.206  -5.354  0.00  0.00     0.003 A 
HETATM    4  C   UNK N   1      25.362  26.780  -6.559  0.00  0.00     0.008 A 
HETATM    5  C   UNK N   1      25.385  28.126  -4.489  0.00  0.00     0.030 A 
HETATM    6  C   UNK N   1      26.653  26.494  -9.328  0.00  0.00     0.019 C 
HETATM    7  C   UNK N   1      29.319  28.511  -7.336  0.00  0.00     0.077 C 
HETATM    8  C   UNK N   1      29.061  26.277 -10.170  0.00  0.00     0.278 C 
HETATM    9  C   UNK N   1      28.601  29.555  -5.012  0.00  0.00     0.098 A 
HETATM   10  C   UNK N   1      27.587  25.862 -10.376  0.00  0.00     0.032 C 
HETATM   11  C   UNK N   1      28.431  28.763  -6.147  0.00  0.00    -0.027 A 
HETATM   12  C   UNK N   1      26.624  27.300  -6.908  0.00  0.00    -0.039 A 
HETATM   13  C   UNK N   1      27.454  26.879  -8.095  0.00  0.00     0.053 C 
HETATM   14  C   UNK N   1      26.645  28.588  -4.871  0.00  0.00     0.045 A 
HETATM   15  C   UNK N   1      28.431  28.028  -8.534  0.00  0.00     0.235 C 
HETATM   16  C   UNK N   1      27.211  28.179  -6.026  0.00  0.00     0.005 A 
HETATM   17  N   UNK N   1      29.165  27.689  -9.790  0.00  0.00     0.090 N 
HETATM   18  N   UNK N   1      27.486  29.434  -4.240  0.00  0.00    -0.360 N 
ENDROOT
BRANCH  10  19
HETATM   19  C   UNK N   1      27.498  24.339 -10.254  0.00  0.00     0.130 C 
BRANCH  19  20
HETATM   20  N   UNK N   1      26.152  23.913  -9.940  0.00  0.00    -0.350 N 
HETATM   21  C   UNK N   1      25.791  23.316  -8.849  0.00  0.00     0.258 C 
ATOM     22  HN  UNK N   1      25.428  24.099 -10.635  1.00  0.00     0.163 HD
BRANCH  21  23
HETATM   23  O   UNK N   1      24.483  23.066  -8.656  0.00  0.00    -0.327 OA
HETATM   24  H   UNK N   1      23.813  23.677  -8.891  0.00  0.00     0.221 HD
ENDBRANCH  21  23
BRANCH  21  25
HETATM   25  O   UNK N   1      26.669  22.952  -7.873  0.00  0.00    -0.312 OA
BRANCH  25  26
HETATM   26  C   UNK N   1      26.320  22.770  -6.553  0.00  0.00     0.218 C 
BRANCH  26  27
HETATM   27  C   UNK N   1      27.094  23.704  -5.686  0.00  0.00    -0.034 A 
HETATM   28  C   UNK N   1      28.365  24.133  -6.084  0.00  0.00     0.009 A 
HETATM   29  C   UNK N   1      29.099  24.998  -5.265  0.00  0.00     0.001 A 
HETATM   30  C   UNK N   1      28.561  25.440  -4.053  0.00  0.00     0.000 A 
HETATM   31  C   UNK N   1      27.291  25.016  -3.655  0.00  0.00     0.001 A 
HETATM   32  C   UNK N   1      26.561  24.144  -4.465  0.00  0.00     0.009 A 
ENDBRANCH  26  27
ENDBRANCH  25  26
ENDBRANCH  21  25
ENDBRANCH  19  20
ENDBRANCH  10  19
TORSDOF 6
ENDMDL
MODEL 3
REMARK VINA RESULT:      -6.6      8.390     11.389
REMARK  6 active torsions:
REMARK  status: ('A' for Active; 'I' for Inactive)
REMARK    1  A    between atoms: C_18  and  C_13 
REMARK    2  A    between atoms: N_26  and  C_13 
REMARK    3  A    between atoms: C_17  and  C_16 
REMARK    4  A    between atoms: O_31  and  C_16 
REMARK    5  A    between atoms: O_30  and  C_25 
REMARK    6  A    between atoms: O_31  and  C_25 
ROOT
HETATM    1  C   UNK N   1      36.507   9.913  12.239  0.00  0.00     0.310 C 
HETATM    2  C   UNK N   1      35.002   9.377  19.926  0.00  0.00     0.155 C 
HETATM    3  C   UNK N   1      35.228  13.647  18.475  0.00  0.00     0.003 A 
HETATM    4  C   UNK N   1      35.428  13.753  17.071  0.00  0.00     0.008 A 
HETATM    5  C   UNK N   1      35.149  12.377  19.101  0.00  0.00     0.030 A 
HETATM    6  C   UNK N   1      36.438  13.698  14.174  0.00  0.00     0.019 C 
HETATM    7  C   UNK N   1      35.777   9.939  14.931  0.00  0.00     0.077 C 
HETATM    8  C   UNK N   1      35.955  12.227  12.135  0.00  0.00     0.278 C 
HETATM    9  C   UNK N   1      35.383   9.233  17.453  0.00  0.00     0.098 A 
HETATM   10  C   UNK N   1      36.288  13.648  12.643  0.00  0.00     0.032 C 
HETATM   11  C   UNK N   1      35.552  10.139  16.406  0.00  0.00    -0.027 A 
HETATM   12  C   UNK N   1      35.577  12.583  16.301  0.00  0.00    -0.039 A 
HETATM   13  C   UNK N   1      35.699  12.526  14.799  0.00  0.00     0.053 C 
HETATM   14  C   UNK N   1      35.276  11.251  18.286  0.00  0.00     0.045 A 
HETATM   15  C   UNK N   1      36.454  11.225  14.346  0.00  0.00     0.235 C 
HETATM   16  C   UNK N   1      35.479  11.378  16.958  0.00  0.00     0.005 A 
HETATM   17  N   UNK N   1      36.709  11.210  12.874  0.00  0.00     0.090 N 
HETATM   18  N   UNK N   1      35.217   9.941  18.604  0.00  0.00    -0.360 N 
ENDROOT
BRANCH  10  19
HETATM   19  C   UNK N   1      35.147  14.582  12.233  0.00  0.00     0.130 C 
BRANCH  19  20
HETATM   20  N   UNK N   1      35.652  15.812  11.664  0.00  0.00    -0.350 N 
HETATM   21  C   UNK N   1      35.190  16.391  10.602  0.00  0.00     0.258 C 
ATOM     22  HN  UNK N   1      36.435  16.260  12.140  1.00  0.00     0.163 HD
BRANCH  21  23
HETATM   23  O   UNK N   1      35.700  17.585  10.248  0.00  0.00    -0.327 OA
HETATM   24  H   UNK N   1      35.205  18.223   9.773  0.00  0.00     0.221 HD
ENDBRANCH  21  23
BRANCH  21  25
HETATM   25  O   UNK N   1      34.192  15.863   9.840  0.00  0.00    -0.312 OA
BRANCH  25  26
HETATM   26  C   UNK N   1      34.395  15.259   8.618  0.00  0.00     0.218 C 
BRANCH  26  27
HETATM   27  C   UNK N   1      33.579  15.937   7.571  0.00  0.00    -0.034 A 
HETATM   28  C   UNK N   1      32.218  15.637   7.444  0.00  0.00     0.009 A 
HETATM   29  C   UNK N   1      31.454  16.261   6.452  0.00  0.00     0.001 A 
HETATM   30  C   UNK N   1      32.046  17.191   5.592  0.00  0.00     0.000 A 
HETATM   31  C   UNK N   1      33.404  17.496   5.720  0.00  0.00     0.001 A 
HETATM   32  C   UNK N   1      34.171  16.865   6.702  0.00  0.00     0.009 A 
ENDBRANCH  26  27
ENDBRANCH  25  26
ENDBRANCH  21  25
ENDBRANCH  19  20
ENDBRANCH  10  19
TORSDOF 6
ENDMDL
MODEL 4
REMARK VINA RESULT:      -6.5      6.933      8.979
REMARK  6 active torsions:
REMARK  status: ('A' for Active; 'I' for Inactive)
REMARK    1  A    between atoms: C_18  and  C_13 
REMARK    2  A    between atoms: N_26  and  C_13 
REMARK    3  A    between atoms: C_17  and  C_16 
REMARK    4  A    between atoms: O_31  and  C_16 
REMARK    5  A    between atoms: O_30  and  C_25 
REMARK    6  A    between atoms: O_31  and  C_25 
ROOT
HETATM    1  C   UNK N   1      33.662  10.770   9.028  0.00  0.00     0.310 C 
HETATM    2  C   UNK N   1      32.672  17.062   4.438  0.00  0.00     0.155 C 
HETATM    3  C   UNK N   1      34.497  18.079   8.441  0.00  0.00     0.003 A 
HETATM    4  C   UNK N   1      34.748  16.937   9.250  0.00  0.00     0.008 A 
HETATM    5  C   UNK N   1      33.911  17.942   7.156  0.00  0.00     0.030 A 
HETATM    6  C   UNK N   1      34.631  14.413  10.992  0.00  0.00     0.019 C 
HETATM    7  C   UNK N   1      33.576  13.094   7.487  0.00  0.00     0.077 C 
HETATM    8  C   UNK N   1      35.058  11.924  10.573  0.00  0.00     0.278 C 
HETATM    9  C   UNK N   1      32.961  14.874   5.626  0.00  0.00     0.098 A 
HETATM   10  C   UNK N   1      35.166  13.093  11.577  0.00  0.00     0.032 C 
HETATM   11  C   UNK N   1      33.445  14.459   6.866  0.00  0.00    -0.027 A 
HETATM   12  C   UNK N   1      34.382  15.660   8.780  0.00  0.00    -0.039 A 
HETATM   13  C   UNK N   1      34.666  14.351   9.474  0.00  0.00     0.053 C 
HETATM   14  C   UNK N   1      33.594  16.651   6.730  0.00  0.00     0.045 A 
HETATM   15  C   UNK N   1      33.629  13.251   9.045  0.00  0.00     0.235 C 
HETATM   16  C   UNK N   1      33.830  15.585   7.522  0.00  0.00     0.005 A 
HETATM   17  N   UNK N   1      33.802  11.986   9.819  0.00  0.00     0.090 N 
HETATM   18  N   UNK N   1      33.061  16.231   5.564  0.00  0.00    -0.360 N 
ENDROOT
BRANCH  10  19
HETATM   19  C   UNK N   1      36.641  13.280  11.937  0.00  0.00     0.130 C 
BRANCH  19  20
HETATM   20  N   UNK N   1      36.809  14.281  12.967  0.00  0.00    -0.350 N 
HETATM   21  C   UNK N   1      36.754  14.060  14.242  0.00  0.00     0.258 C 
ATOM     22  HN  UNK N   1      36.987  15.239  12.665  1.00  0.00     0.163 HD
BRANCH  21  23
HETATM   23  O   UNK N   1      37.026  15.074  15.083  0.00  0.00    -0.327 OA
HETATM   24  H   UNK N   1      37.200  15.945  14.782  0.00  0.00     0.221 HD
ENDBRANCH  21  23
BRANCH  21  25
HETATM   25  O   UNK N   1      36.459  12.841  14.775  0.00  0.00    -0.312 OA
BRANCH  25  26
HETATM   26  C   UNK N   1      35.214  12.488  15.248  0.00  0.00     0.218 C 
BRANCH  26  27
HETATM   27  C   UNK N   1      35.257  12.328  16.729  0.00  0.00    -0.034 A 
HETATM   28  C   UNK N   1      35.383  11.052  17.289  0.00  0.00     0.009 A 
HETATM   29  C   UNK N   1      35.408  10.897  18.679  0.00  0.00     0.001 A 
HETATM   30  C   UNK N   1      35.316  12.018  19.511  0.00  0.00     0.000 A 
HETATM   31  C   UNK N   1      35.194  13.294  18.954  0.00  0.00     0.001 A 
HETATM   32  C   UNK N   1      35.157  13.448  17.567  0.00  0.00     0.009 A 
ENDBRANCH  26  27
ENDBRANCH  25  26
ENDBRANCH  21  25
ENDBRANCH  19  20
ENDBRANCH  10  19
TORSDOF 6
ENDMDL
MODEL 5
REMARK VINA RESULT:      -6.5      6.301      9.519
REMARK  6 active torsions:
REMARK  status: ('A' for Active; 'I' for Inactive)
REMARK    1  A    between atoms: C_18  and  C_13 
REMARK    2  A    between atoms: N_26  and  C_13 
REMARK    3  A    between atoms: C_17  and  C_16 
REMARK    4  A    between atoms: O_31  and  C_16 
REMARK    5  A    between atoms: O_30  and  C_25 
REMARK    6  A    between atoms: O_31  and  C_25 
ROOT
HETATM    1  C   UNK N   1      24.414  20.349   2.519  0.00  0.00     0.310 C 
HETATM    2  C   UNK N   1      26.072  13.689   6.331  0.00  0.00     0.155 C 
HETATM    3  C   UNK N   1      21.727  14.871   6.671  0.00  0.00     0.003 A 
HETATM    4  C   UNK N   1      21.402  16.037   5.924  0.00  0.00     0.008 A 
HETATM    5  C   UNK N   1      23.053  14.369   6.689  0.00  0.00     0.030 A 
HETATM    6  C   UNK N   1      21.110  18.850   4.733  0.00  0.00     0.019 C 
HETATM    7  C   UNK N   1      24.751  17.876   3.766  0.00  0.00     0.077 C 
HETATM    8  C   UNK N   1      22.059  20.031   2.670  0.00  0.00     0.278 C 
HETATM    9  C   UNK N   1      25.824  15.764   4.947  0.00  0.00     0.098 A 
HETATM   10  C   UNK N   1      20.846  19.872   3.613  0.00  0.00     0.032 C 
HETATM   11  C   UNK N   1      24.788  16.639   4.623  0.00  0.00    -0.027 A 
HETATM   12  C   UNK N   1      22.416  16.713   5.217  0.00  0.00    -0.039 A 
HETATM   13  C   UNK N   1      22.216  17.899   4.307  0.00  0.00     0.053 C 
HETATM   14  C   UNK N   1      24.012  15.063   5.949  0.00  0.00     0.045 A 
HETATM   15  C   UNK N   1      23.530  18.755   4.203  0.00  0.00     0.235 C 
HETATM   16  C   UNK N   1      23.682  16.174   5.259  0.00  0.00     0.005 A 
HETATM   17  N   UNK N   1      23.319  20.009   3.419  0.00  0.00     0.090 N 
HETATM   18  N   UNK N   1      25.324  14.800   5.769  0.00  0.00    -0.360 N 
ENDROOT
BRANCH  10  19
HETATM   19  C   UNK N   1      19.654  19.391   2.782  0.00  0.00     0.130 C 
BRANCH  19  20
HETATM   20  N   UNK N   1      20.077  18.907   1.486  0.00  0.00    -0.350 N 
HETATM   21  C   UNK N   1      20.185  17.660   1.152  0.00  0.00     0.258 C 
ATOM     22  HN  UNK N   1      20.308  19.604   0.779  1.00  0.00     0.163 HD
BRANCH  21  23
HETATM   23  O   UNK N   1      20.497  17.362  -0.122  0.00  0.00    -0.327 OA
HETATM   24  H   UNK N   1      20.035  17.723  -0.853  0.00  0.00     0.221 HD
ENDBRANCH  21  23
BRANCH  21  25
HETATM   25  O   UNK N   1      19.970  16.634   2.021  0.00  0.00    -0.312 OA
BRANCH  25  26
HETATM   26  C   UNK N   1      19.885  15.311   1.645  0.00  0.00     0.218 C 
BRANCH  26  27
HETATM   27  C   UNK N   1      21.076  14.562   2.138  0.00  0.00    -0.034 A 
HETATM   28  C   UNK N   1      20.913  13.529   3.068  0.00  0.00     0.009 A 
HETATM   29  C   UNK N   1      22.031  12.835   3.544  0.00  0.00     0.001 A 
HETATM   30  C   UNK N   1      23.309  13.166   3.085  0.00  0.00     0.000 A 
HETATM   31  C   UNK N   1      23.474  14.195   2.154  0.00  0.00     0.001 A 
HETATM   32  C   UNK N   1      22.361  14.897   1.686  0.00  0.00     0.009 A 
ENDBRANCH  26  27
ENDBRANCH  25  26
ENDBRANCH  21  25
ENDBRANCH  19  20
ENDBRANCH  10  19
TORSDOF 6
ENDMDL
MODEL 6
REMARK VINA RESULT:      -6.5      5.155      7.606
REMARK  6 active torsions:
REMARK  status: ('A' for Active; 'I' for Inactive)
REMARK    1  A    between atoms: C_18  and  C_13 
REMARK    2  A    between atoms: N_26  and  C_13 
REMARK    3  A    between atoms: C_17  and  C_16 
REMARK    4  A    between atoms: O_31  and  C_16 
REMARK    5  A    between atoms: O_30  and  C_25 
REMARK    6  A    between atoms: O_31  and  C_25 
ROOT
HETATM    1  C   UNK N   1      34.078  14.680   5.557  0.00  0.00     0.310 C 
HETATM    2  C   UNK N   1      27.524  18.988   5.207  0.00  0.00     0.155 C 
HETATM    3  C   UNK N   1      28.759  18.012   9.440  0.00  0.00     0.003 A 
HETATM    4  C   UNK N   1      29.985  17.295   9.516  0.00  0.00     0.008 A 
HETATM    5  C   UNK N   1      28.216  18.387   8.184  0.00  0.00     0.030 A 
HETATM    6  C   UNK N   1      32.290  15.275   9.368  0.00  0.00     0.019 C 
HETATM    7  C   UNK N   1      31.858  16.367   5.658  0.00  0.00     0.077 C 
HETATM    8  C   UNK N   1      34.369  15.032   7.894  0.00  0.00     0.278 C 
HETATM    9  C   UNK N   1      29.674  17.714   5.009  0.00  0.00     0.098 A 
HETATM   10  C   UNK N   1      33.766  14.841   9.303  0.00  0.00     0.032 C 
HETATM   11  C   UNK N   1      30.575  17.118   5.891  0.00  0.00    -0.027 A 
HETATM   12  C   UNK N   1      30.649  16.928   8.328  0.00  0.00    -0.039 A 
HETATM   13  C   UNK N   1      31.995  16.254   8.244  0.00  0.00     0.053 C 
HETATM   14  C   UNK N   1      28.930  18.021   7.042  0.00  0.00     0.045 A 
HETATM   15  C   UNK N   1      32.139  15.453   6.899  0.00  0.00     0.235 C 
HETATM   16  C   UNK N   1      30.083  17.329   7.139  0.00  0.00     0.005 A 
HETATM   17  N   UNK N   1      33.407  14.665   6.851  0.00  0.00     0.090 N 
HETATM   18  N   UNK N   1      28.665  18.264   5.741  0.00  0.00    -0.360 N 
ENDROOT
BRANCH  10  19
HETATM   19  C   UNK N   1      34.570  15.694  10.287  0.00  0.00     0.130 C 
BRANCH  19  20
HETATM   20  N   UNK N   1      35.894  15.152  10.495  0.00  0.00    -0.350 N 
HETATM   21  C   UNK N   1      36.251  14.409  11.494  0.00  0.00     0.258 C 
ATOM     22  HN  UNK N   1      36.605  15.372   9.797  1.00  0.00     0.163 HD
BRANCH  21  23
HETATM   23  O   UNK N   1      37.496  13.898  11.502  0.00  0.00    -0.327 OA
HETATM   24  H   UNK N   1      37.889  13.517  10.741  0.00  0.00     0.221 HD
ENDBRANCH  21  23
BRANCH  21  25
HETATM   25  O   UNK N   1      35.418  14.096  12.525  0.00  0.00    -0.312 OA
BRANCH  25  26
HETATM   26  C   UNK N   1      35.827  13.971  13.835  0.00  0.00     0.218 C 
BRANCH  26  27
HETATM   27  C   UNK N   1      35.299  12.705  14.417  0.00  0.00    -0.034 A 
HETATM   28  C   UNK N   1      34.479  11.872  13.647  0.00  0.00     0.009 A 
HETATM   29  C   UNK N   1      33.970  10.691  14.197  0.00  0.00     0.001 A 
HETATM   30  C   UNK N   1      34.286  10.336  15.512  0.00  0.00     0.000 A 
HETATM   31  C   UNK N   1      35.108  11.164  16.281  0.00  0.00     0.001 A 
HETATM   32  C   UNK N   1      35.608  12.349  15.738  0.00  0.00     0.009 A 
ENDBRANCH  26  27
ENDBRANCH  25  26
ENDBRANCH  21  25
ENDBRANCH  19  20
ENDBRANCH  10  19
TORSDOF 6
ENDMDL
MODEL 7
REMARK VINA RESULT:      -6.4     13.740     15.796
REMARK  6 active torsions:
REMARK  status: ('A' for Active; 'I' for Inactive)
REMARK    1  A    between atoms: C_18  and  C_13 
REMARK    2  A    between atoms: N_26  and  C_13 
REMARK    3  A    between atoms: C_17  and  C_16 
REMARK    4  A    between atoms: O_31  and  C_16 
REMARK    5  A    between atoms: O_30  and  C_25 
REMARK    6  A    between atoms: O_31  and  C_25 
ROOT
HETATM    1  C   UNK N   1      32.691  26.476  -7.104  0.00  0.00     0.310 C 
HETATM    2  C   UNK N   1      26.342  21.877  -7.509  0.00  0.00     0.155 C 
HETATM    3  C   UNK N   1      26.430  24.423  -3.780  0.00  0.00     0.003 A 
HETATM    4  C   UNK N   1      27.539  25.312  -3.734  0.00  0.00     0.008 A 
HETATM    5  C   UNK N   1      26.256  23.539  -4.876  0.00  0.00     0.030 A 
HETATM    6  C   UNK N   1      30.285  26.675  -3.605  0.00  0.00     0.019 C 
HETATM    7  C   UNK N   1      30.280  25.073  -7.151  0.00  0.00     0.077 C 
HETATM    8  C   UNK N   1      31.813  27.796  -5.327  0.00  0.00     0.278 C 
HETATM    9  C   UNK N   1      28.399  23.295  -7.706  0.00  0.00     0.098 A 
HETATM   10  C   UNK N   1      31.299  27.803  -3.870  0.00  0.00     0.032 C 
HETATM   11  C   UNK N   1      29.025  24.272  -6.931  0.00  0.00    -0.027 A 
HETATM   12  C   UNK N   1      28.489  25.292  -4.774  0.00  0.00    -0.039 A 
HETATM   13  C   UNK N   1      29.659  26.231  -4.917  0.00  0.00     0.053 C 
HETATM   14  C   UNK N   1      27.213  23.580  -5.891  0.00  0.00     0.045 A 
HETATM   15  C   UNK N   1      30.808  25.573  -5.763  0.00  0.00     0.235 C 
HETATM   16  C   UNK N   1      28.263  24.423  -5.817  0.00  0.00     0.005 A 
HETATM   17  N   UNK N   1      32.033  26.427  -5.804  0.00  0.00     0.090 N 
HETATM   18  N   UNK N   1      27.283  22.880  -7.043  0.00  0.00    -0.360 N 
ENDROOT
BRANCH  10  19
HETATM   19  C   UNK N   1      30.614  29.147  -3.611  0.00  0.00     0.130 C 
BRANCH  19  20
HETATM   20  N   UNK N   1      29.781  29.095  -2.430  0.00  0.00    -0.350 N 
HETATM   21  C   UNK N   1      28.525  29.409  -2.386  0.00  0.00     0.258 C 
ATOM     22  HN  UNK N   1      30.218  28.785  -1.562  1.00  0.00     0.163 HD
BRANCH  21  23
HETATM   23  O   UNK N   1      27.855  29.217  -1.235  0.00  0.00    -0.327 OA
HETATM   24  H   UNK N   1      28.012  28.480  -0.677  0.00  0.00     0.221 HD
ENDBRANCH  21  23
BRANCH  21  25
HETATM   25  O   UNK N   1      27.841  29.897  -3.457  0.00  0.00    -0.312 OA
BRANCH  25  26
HETATM   26  C   UNK N   1      26.525  29.594  -3.734  0.00  0.00     0.218 C 
BRANCH  26  27
HETATM   27  C   UNK N   1      26.447  28.697  -4.923  0.00  0.00    -0.034 A 
HETATM   28  C   UNK N   1      27.454  28.735  -5.893  0.00  0.00     0.009 A 
HETATM   29  C   UNK N   1      27.375  27.905  -7.016  0.00  0.00     0.001 A 
HETATM   30  C   UNK N   1      26.295  27.031  -7.166  0.00  0.00     0.000 A 
HETATM   31  C   UNK N   1      25.289  26.987  -6.197  0.00  0.00     0.001 A 
HETATM   32  C   UNK N   1      25.361  27.824  -5.081  0.00  0.00     0.009 A 
ENDBRANCH  26  27
ENDBRANCH  25  26
ENDBRANCH  21  25
ENDBRANCH  19  20
ENDBRANCH  10  19
TORSDOF 6
ENDMDL
MODEL 8
REMARK VINA RESULT:      -6.3      2.396      5.194
REMARK  6 active torsions:
REMARK  status: ('A' for Active; 'I' for Inactive)
REMARK    1  A    between atoms: C_18  and  C_13 
REMARK    2  A    between atoms: N_26  and  C_13 
REMARK    3  A    between atoms: C_17  and  C_16 
REMARK    4  A    between atoms: O_31  and  C_16 
REMARK    5  A    between atoms: O_30  and  C_25 
REMARK    6  A    between atoms: O_31  and  C_25 
ROOT
HETATM    1  C   UNK N   1      32.663  12.374   3.890  0.00  0.00     0.310 C 
HETATM    2  C   UNK N   1      34.386  14.650  11.203  0.00  0.00     0.155 C 
HETATM    3  C   UNK N   1      34.267  18.088   8.277  0.00  0.00     0.003 A 
HETATM    4  C   UNK N   1      33.884  17.695   6.965  0.00  0.00     0.008 A 
HETATM    5  C   UNK N   1      34.371  17.130   9.318  0.00  0.00     0.030 A 
HETATM    6  C   UNK N   1      33.622  16.508   4.148  0.00  0.00     0.019 C 
HETATM    7  C   UNK N   1      33.094  13.411   6.444  0.00  0.00     0.077 C 
HETATM    8  C   UNK N   1      32.261  14.594   3.128  0.00  0.00     0.278 C 
HETATM    9  C   UNK N   1      33.718  13.647   9.006  0.00  0.00     0.098 A 
HETATM   10  C   UNK N   1      32.859  16.002   2.910  0.00  0.00     0.032 C 
HETATM   11  C   UNK N   1      33.502  14.115   7.710  0.00  0.00    -0.027 A 
HETATM   12  C   UNK N   1      33.634  16.335   6.693  0.00  0.00    -0.039 A 
HETATM   13  C   UNK N   1      33.130  15.777   5.386  0.00  0.00     0.053 C 
HETATM   14  C   UNK N   1      34.085  15.802   8.999  0.00  0.00     0.045 A 
HETATM   15  C   UNK N   1      33.553  14.273   5.218  0.00  0.00     0.235 C 
HETATM   16  C   UNK N   1      33.737  15.452   7.743  0.00  0.00     0.005 A 
HETATM   17  N   UNK N   1      33.186  13.735   3.874  0.00  0.00     0.090 N 
HETATM   18  N   UNK N   1      34.079  14.704   9.784  0.00  0.00    -0.360 N 
ENDROOT
BRANCH  10  19
HETATM   19  C   UNK N   1      31.710  16.969   2.615  0.00  0.00     0.130 C 
BRANCH  19  20
HETATM   20  N   UNK N   1      30.425  16.333   2.802  0.00  0.00    -0.350 N 
HETATM   21  C   UNK N   1      29.537  16.684   3.677  0.00  0.00     0.258 C 
ATOM     22  HN  UNK N   1      30.200  15.544   2.196  1.00  0.00     0.163 HD
BRANCH  21  23
HETATM   23  O   UNK N   1      28.346  16.059   3.670  0.00  0.00    -0.327 OA
HETATM   24  H   UNK N   1      28.202  15.255   3.211  0.00  0.00     0.221 HD
ENDBRANCH  21  23
BRANCH  21  25
HETATM   25  O   UNK N   1      29.739  17.676   4.588  0.00  0.00    -0.312 OA
BRANCH  25  26
HETATM   26  C   UNK N   1      28.742  18.221   5.367  0.00  0.00     0.218 C 
BRANCH  26  27
HETATM   27  C   UNK N   1      29.046  18.007   6.811  0.00  0.00    -0.034 A 
HETATM   28  C   UNK N   1      28.244  18.605   7.789  0.00  0.00     0.009 A 
HETATM   29  C   UNK N   1      28.537  18.417   9.144  0.00  0.00     0.001 A 
HETATM   30  C   UNK N   1      29.625  17.625   9.523  0.00  0.00     0.000 A 
HETATM   31  C   UNK N   1      30.426  17.023   8.548  0.00  0.00     0.001 A 
HETATM   32  C   UNK N   1      30.142  17.220   7.195  0.00  0.00     0.009 A 
ENDBRANCH  26  27
ENDBRANCH  25  26
ENDBRANCH  21  25
ENDBRANCH  19  20
ENDBRANCH  10  19
TORSDOF 6
ENDMDL
MODEL 9
REMARK VINA RESULT:      -6.3     13.243     15.667
REMARK  6 active torsions:
REMARK  status: ('A' for Active; 'I' for Inactive)
REMARK    1  A    between atoms: C_18  and  C_13 
REMARK    2  A    between atoms: N_26  and  C_13 
REMARK    3  A    between atoms: C_17  and  C_16 
REMARK    4  A    between atoms: O_31  and  C_16 
REMARK    5  A    between atoms: O_30  and  C_25 
REMARK    6  A    between atoms: O_31  and  C_25 
ROOT
HETATM    1  C   UNK N   1      25.924  25.152 -10.642  0.00  0.00     0.310 C 
HETATM    2  C   UNK N   1      27.465  29.064  -4.011  0.00  0.00     0.155 C 
HETATM    3  C   UNK N   1      26.686  24.670  -3.317  0.00  0.00     0.003 A 
HETATM    4  C   UNK N   1      26.479  23.940  -4.519  0.00  0.00     0.008 A 
HETATM    5  C   UNK N   1      26.929  26.067  -3.351  0.00  0.00     0.030 A 
HETATM    6  C   UNK N   1      25.493  22.742  -7.166  0.00  0.00     0.019 C 
HETATM    7  C   UNK N   1      26.638  26.312  -8.207  0.00  0.00     0.077 C 
HETATM    8  C   UNK N   1      26.169  23.015  -9.621  0.00  0.00     0.278 C 
HETATM    9  C   UNK N   1      27.114  28.070  -6.285  0.00  0.00     0.098 A 
HETATM   10  C   UNK N   1      25.652  22.048  -8.532  0.00  0.00     0.032 C 
HETATM   11  C   UNK N   1      26.831  26.804  -6.797  0.00  0.00    -0.027 A 
HETATM   12  C   UNK N   1      26.486  24.619  -5.754  0.00  0.00    -0.039 A 
HETATM   13  C   UNK N   1      26.377  23.977  -7.114  0.00  0.00     0.053 C 
HETATM   14  C   UNK N   1      26.953  26.684  -4.603  0.00  0.00     0.045 A 
HETATM   15  C   UNK N   1      25.800  24.989  -8.168  0.00  0.00     0.235 C 
HETATM   16  C   UNK N   1      26.739  25.971  -5.728  0.00  0.00     0.005 A 
HETATM   17  N   UNK N   1      25.553  24.339  -9.490  0.00  0.00     0.090 N 
HETATM   18  N   UNK N   1      27.182  27.973  -4.929  0.00  0.00    -0.360 N 
ENDROOT
BRANCH  10  19
HETATM   19  C   UNK N   1      26.662  20.908  -8.386  0.00  0.00     0.130 C 
BRANCH  19  20
HETATM   20  N   UNK N   1      27.981  21.313  -8.820  0.00  0.00    -0.350 N 
HETATM   21  C   UNK N   1      28.994  21.523  -8.041  0.00  0.00     0.258 C 
ATOM     22  HN  UNK N   1      28.124  21.443  -9.822  1.00  0.00     0.163 HD
BRANCH  21  23
HETATM   23  O   UNK N   1      30.186  21.803  -8.600  0.00  0.00    -0.327 OA
HETATM   24  H   UNK N   1      30.411  22.660  -8.905  0.00  0.00     0.221 HD
ENDBRANCH  21  23
BRANCH  21  25
HETATM   25  O   UNK N   1      28.918  21.448  -6.684  0.00  0.00    -0.312 OA
BRANCH  25  26
HETATM   26  C   UNK N   1      30.015  21.332  -5.857  0.00  0.00     0.218 C 
BRANCH  26  27
HETATM   27  C   UNK N   1      30.115  22.527  -4.971  0.00  0.00    -0.034 A 
HETATM   28  C   UNK N   1      30.195  23.806  -5.532  0.00  0.00     0.009 A 
HETATM   29  C   UNK N   1      30.305  24.927  -4.702  0.00  0.00     0.001 A 
HETATM   30  C   UNK N   1      30.326  24.772  -3.313  0.00  0.00     0.000 A 
HETATM   31  C   UNK N   1      30.243  23.495  -2.750  0.00  0.00     0.001 A 
HETATM   32  C   UNK N   1      30.145  22.374  -3.577  0.00  0.00     0.009 A 
ENDBRANCH  26  27
ENDBRANCH  25  26
ENDBRANCH  21  25
ENDBRANCH  19  20
ENDBRANCH  10  19
TORSDOF 6
ENDMDL
