REMARK  9 active torsions:
REMARK  status: ('A' for Active; 'I' for Inactive)
REMARK    1  A    between atoms: C_4  and  C_1 
REMARK    2  A    between atoms: N_7  and  C_1 
REMARK    3  A    between atoms: C_5  and  C_2 
REMARK    4  A    between atoms: N_7  and  C_2 
REMARK    5  A    between atoms: C_6  and  C_3 
REMARK    6  A    between atoms: N_7  and  C_3 
REMARK    7  A    between atoms: O_8  and  C_4 
REMARK    8  A    between atoms: O_9  and  C_5 
REMARK    9  A    between atoms: O_10  and  C_6 
ROOT
HETATM    1  N   UNK N   1       0.720   0.253  -0.000  0.00  0.00    -0.406 N 
ENDROOT
BRANCH   1   2
HETATM    2  C   UNK N   1       0.639  -1.212   0.000  0.00  0.00     0.143 C 
BRANCH   2   3
HETATM    3  C   UNK N   1       1.981  -1.929  -0.000  0.00  0.00     0.183 C 
BRANCH   3   4
HETATM    4  O   UNK N   1       1.757  -3.306   0.000  0.00  0.00    -0.399 OA
HETATM    5  H   UNK N   1       0.850  -3.650   0.000  0.00  0.00     0.209 HD
ENDBRANCH   3   4
ENDBRANCH   2   3
ENDBRANCH   1   2
BRANCH   1   6
HETATM    6  C   UNK N   1      -0.626   0.857   0.000  0.00  0.00     0.143 C 
BRANCH   6   7
HETATM    7  C   UNK N   1      -0.712   2.371  -0.000  0.00  0.00     0.183 C 
BRANCH   7   8
HETATM    8  O   UNK N   1      -2.052   2.752   0.000  0.00  0.00    -0.399 OA
HETATM    9  H   UNK N   1      -2.289   3.693   0.000  0.00  0.00     0.209 HD
ENDBRANCH   7   8
ENDBRANCH   6   7
ENDBRANCH   1   6
BRANCH   1  10
HETATM   10  C   UNK N   1       2.049   0.904   0.000  0.00  0.00     0.143 C 
BRANCH  10  11
HETATM   11  C   UNK N   1       2.055   2.426  -0.000  0.00  0.00     0.183 C 
BRANCH  11  12
HETATM   12  O   UNK N   1       3.365   2.899   0.000  0.00  0.00    -0.399 OA
HETATM   13  H   UNK N   1       4.107   2.273   0.000  0.00  0.00     0.209 HD
ENDBRANCH  11  12
ENDBRANCH  10  11
ENDBRANCH   1  10
TORSDOF 9
