MODEL 1
REMARK VINA RESULT:      -7.5      0.000      0.000
REMARK  4 active torsions:
REMARK  status: ('A' for Active; 'I' for Inactive)
REMARK    1  A    between atoms: C_8  and  C_5 
REMARK    2  A    between atoms: C_13  and  C_5 
REMARK    3  A    between atoms: S_22  and  C_11 
REMARK    4  A    between atoms: S_22  and  N_15 
ROOT
HETATM    1  C   UNK N   1      23.250  17.460   5.378  0.00  0.00     0.056 A 
HETATM    2  C   UNK N   1      20.697  17.652   4.265  0.00  0.00     0.054 A 
HETATM    3  C   UNK N   1      22.989  18.436   4.407  0.00  0.00     0.059 A 
HETATM    4  C   UNK N   1      22.237  16.597   5.810  0.00  0.00     0.054 A 
HETATM    5  C   UNK N   1      21.689  18.548   3.859  0.00  0.00     0.102 A 
HETATM    6  C   UNK N   1      20.979  16.684   5.226  0.00  0.00     0.107 A 
HETATM    7  C   UNK N   1      21.517  15.006   7.725  0.00  0.00     0.192 C 
HETATM    8 Cl   UNK N   1      24.301  19.511   3.950  0.00  0.00    -0.083 Cl
HETATM    9  N   UNK N   1      22.501  15.679   6.869  0.00  0.00    -0.367 N 
HETATM   10  N   UNK N   1      20.086  15.286   7.504  0.00  0.00    -0.293 N 
HETATM   11  O   UNK N   1      18.308  16.088   5.756  0.00  0.00    -0.200 OA
HETATM   12  O   UNK N   1      19.717  14.190   5.135  0.00  0.00    -0.200 OA
HETATM   13  S   UNK N   1      19.755  15.575   5.801  0.00  0.00     0.262 S 
HETATM   14  H   UNK N   1      23.448  15.475   7.046  0.00  0.00     0.161 HD
HETATM   15  H   UNK N   1      19.381  15.311   8.241  0.00  0.00     0.174 HD
ENDROOT
BRANCH   5  16
HETATM   16  S   UNK N   1      21.219  19.838   2.694  0.00  0.00     0.258 S 
HETATM   17  O   UNK N   1      22.372  20.643   2.079  0.00  0.00    -0.201 OA
HETATM   18  O   UNK N   1      20.431  20.945   3.413  0.00  0.00    -0.201 OA
BRANCH  16  19
HETATM   19  N   UNK N   1      20.179  19.389   1.341  0.00  0.00    -0.324 N 
HETATM   20  H   UNK N   1      20.024  18.637   0.670  0.00  0.00     0.169 HD
HETATM   21  H   UNK N   1      19.504  20.134   1.174  0.00  0.00     0.169 HD
ENDBRANCH  16  19
ENDBRANCH   5  16
BRANCH   7  22
HETATM   22  C   UNK N   1      21.856  13.551   8.064  0.00  0.00     0.052 C 
BRANCH  22  23
HETATM   23  C   UNK N   1      22.273  13.296   9.506  0.00  0.00    -0.011 C 
HETATM   24  C   UNK N   1      23.142  12.063   9.624  0.00  0.00     0.005 C 
HETATM   25  C   UNK N   1      22.963  11.606  11.056  0.00  0.00     0.000 C 
HETATM   26  C   UNK N   1      21.601  12.124  11.491  0.00  0.00     0.000 C 
HETATM   27  C   UNK N   1      21.061  12.944  10.334  0.00  0.00     0.005 C 
ENDBRANCH  22  23
ENDBRANCH   7  22
TORSDOF 4
ENDMDL
MODEL 2
REMARK VINA RESULT:      -7.4      4.592      6.347
REMARK  4 active torsions:
REMARK  status: ('A' for Active; 'I' for Inactive)
REMARK    1  A    between atoms: C_8  and  C_5 
REMARK    2  A    between atoms: C_13  and  C_5 
REMARK    3  A    between atoms: S_22  and  C_11 
REMARK    4  A    between atoms: S_22  and  N_15 
ROOT
HETATM    1  C   UNK N   1      23.222  17.007   4.940  0.00  0.00     0.056 A 
HETATM    2  C   UNK N   1      23.793  19.575   4.008  0.00  0.00     0.054 A 
HETATM    3  C   UNK N   1      22.231  17.736   4.270  0.00  0.00     0.059 A 
HETATM    4  C   UNK N   1      24.499  17.545   5.127  0.00  0.00     0.054 A 
HETATM    5  C   UNK N   1      22.527  19.029   3.777  0.00  0.00     0.102 A 
HETATM    6  C   UNK N   1      24.761  18.837   4.685  0.00  0.00     0.107 A 
HETATM    7  C   UNK N   1      26.970  16.948   5.638  0.00  0.00     0.192 C 
HETATM    8 Cl   UNK N   1      20.666  16.974   4.035  0.00  0.00    -0.083 Cl
HETATM    9  N   UNK N   1      25.519  16.746   5.724  0.00  0.00    -0.367 N 
HETATM   10  N   UNK N   1      27.473  18.090   4.852  0.00  0.00    -0.293 N 
HETATM   11  O   UNK N   1      26.888  20.463   3.909  0.00  0.00    -0.200 OA
HETATM   12  O   UNK N   1      26.636  20.118   6.315  0.00  0.00    -0.200 OA
HETATM   13  S   UNK N   1      26.373  19.459   4.952  0.00  0.00     0.262 S 
HETATM   14  H   UNK N   1      25.215  15.971   6.251  0.00  0.00     0.161 HD
HETATM   15  H   UNK N   1      28.344  18.087   4.321  0.00  0.00     0.174 HD
ENDROOT
BRANCH   5  16
HETATM   16  S   UNK N   1      21.367  20.002   2.803  0.00  0.00     0.258 S 
HETATM   17  O   UNK N   1      21.933  21.272   2.152  0.00  0.00    -0.201 OA
HETATM   18  O   UNK N   1      20.273  20.591   3.708  0.00  0.00    -0.201 OA
BRANCH  16  19
HETATM   19  N   UNK N   1      20.464  19.178   1.531  0.00  0.00    -0.324 N 
HETATM   20  H   UNK N   1      20.601  18.595   0.705  0.00  0.00     0.169 HD
HETATM   21  H   UNK N   1      19.466  19.339   1.667  0.00  0.00     0.169 HD
ENDBRANCH  16  19
ENDBRANCH   5  16
BRANCH   7  22
HETATM   22  C   UNK N   1      27.731  16.656   6.934  0.00  0.00     0.052 C 
BRANCH  22  23
HETATM   23  C   UNK N   1      28.829  17.651   7.286  0.00  0.00    -0.011 C 
HETATM   24  C   UNK N   1      30.160  16.961   7.491  0.00  0.00     0.005 C 
HETATM   25  C   UNK N   1      30.942  17.900   8.384  0.00  0.00     0.000 C 
HETATM   26  C   UNK N   1      29.906  18.698   9.159  0.00  0.00     0.000 C 
HETATM   27  C   UNK N   1      28.548  18.267   8.635  0.00  0.00     0.005 C 
ENDBRANCH  22  23
ENDBRANCH   7  22
TORSDOF 4
ENDMDL
MODEL 3
REMARK VINA RESULT:      -7.3      8.399     10.574
REMARK  4 active torsions:
REMARK  status: ('A' for Active; 'I' for Inactive)
REMARK    1  A    between atoms: C_8  and  C_5 
REMARK    2  A    between atoms: C_13  and  C_5 
REMARK    3  A    between atoms: S_22  and  C_11 
REMARK    4  A    between atoms: S_22  and  N_15 
ROOT
HETATM    1  C   UNK N   1      30.921  16.951   5.160  0.00  0.00     0.056 A 
HETATM    2  C   UNK N   1      31.196  17.565   7.869  0.00  0.00     0.054 A 
HETATM    3  C   UNK N   1      32.200  17.021   5.728  0.00  0.00     0.059 A 
HETATM    4  C   UNK N   1      29.782  17.163   5.943  0.00  0.00     0.054 A 
HETATM    5  C   UNK N   1      32.338  17.311   7.106  0.00  0.00     0.102 A 
HETATM    6  C   UNK N   1      29.933  17.498   7.284  0.00  0.00     0.107 A 
HETATM    7  C   UNK N   1      27.224  16.758   6.073  0.00  0.00     0.192 C 
HETATM    8 Cl   UNK N   1      33.579  16.698   4.690  0.00  0.00    -0.083 Cl
HETATM    9  N   UNK N   1      28.489  16.988   5.365  0.00  0.00    -0.367 N 
HETATM   10  N   UNK N   1      27.247  16.686   7.546  0.00  0.00    -0.293 N 
HETATM   11  O   UNK N   1      28.552  17.400   9.702  0.00  0.00    -0.200 OA
HETATM   12  O   UNK N   1      27.874  19.173   8.162  0.00  0.00    -0.200 OA
HETATM   13  S   UNK N   1      28.473  17.758   8.210  0.00  0.00     0.262 S 
HETATM   14  H   UNK N   1      28.441  17.025   4.382  0.00  0.00     0.161 HD
HETATM   15  H   UNK N   1      26.634  16.094   8.105  0.00  0.00     0.174 HD
ENDROOT
BRANCH   5  16
HETATM   16  S   UNK N   1      33.925  17.311   7.959  0.00  0.00     0.258 S 
HETATM   17  O   UNK N   1      34.853  18.494   7.654  0.00  0.00    -0.201 OA
HETATM   18  O   UNK N   1      34.783  16.127   7.488  0.00  0.00    -0.201 OA
BRANCH  16  19
HETATM   19  N   UNK N   1      33.916  17.154   9.716  0.00  0.00    -0.324 N 
HETATM   20  H   UNK N   1      33.315  16.868  10.488  0.00  0.00     0.169 HD
HETATM   21  H   UNK N   1      34.820  17.450  10.085  0.00  0.00     0.169 HD
ENDBRANCH  16  19
ENDBRANCH   5  16
BRANCH   7  22
HETATM   22  C   UNK N   1      26.016  17.480   5.469  0.00  0.00     0.052 C 
BRANCH  22  23
HETATM   23  C   UNK N   1      26.326  18.418   4.311  0.00  0.00    -0.011 C 
HETATM   24  C   UNK N   1      26.682  19.806   4.798  0.00  0.00     0.005 C 
HETATM   25  C   UNK N   1      26.365  20.713   3.630  0.00  0.00     0.000 C 
HETATM   26  C   UNK N   1      25.294  19.995   2.823  0.00  0.00     0.000 C 
HETATM   27  C   UNK N   1      25.080  18.649   3.492  0.00  0.00     0.005 C 
ENDBRANCH  22  23
ENDBRANCH   7  22
TORSDOF 4
ENDMDL
MODEL 4
REMARK VINA RESULT:      -7.1     12.282     14.241
REMARK  4 active torsions:
REMARK  status: ('A' for Active; 'I' for Inactive)
REMARK    1  A    between atoms: C_8  and  C_5 
REMARK    2  A    between atoms: C_13  and  C_5 
REMARK    3  A    between atoms: S_22  and  C_11 
REMARK    4  A    between atoms: S_22  and  N_15 
ROOT
HETATM    1  C   UNK N   1      33.318  14.030   9.112  0.00  0.00     0.056 A 
HETATM    2  C   UNK N   1      35.580  15.656   8.942  0.00  0.00     0.054 A 
HETATM    3  C   UNK N   1      34.557  13.541   9.546  0.00  0.00     0.059 A 
HETATM    4  C   UNK N   1      33.201  15.332   8.616  0.00  0.00     0.054 A 
HETATM    5  C   UNK N   1      35.700  14.373   9.481  0.00  0.00     0.102 A 
HETATM    6  C   UNK N   1      34.341  16.121   8.508  0.00  0.00     0.107 A 
HETATM    7  C   UNK N   1      31.522  17.249   8.138  0.00  0.00     0.192 C 
HETATM    8 Cl   UNK N   1      34.614  11.911  10.200  0.00  0.00    -0.083 Cl
HETATM    9  N   UNK N   1      31.913  15.841   8.274  0.00  0.00    -0.367 N 
HETATM   10  N   UNK N   1      32.542  18.287   8.381  0.00  0.00    -0.293 N 
HETATM   11  O   UNK N   1      35.111  18.798   8.405  0.00  0.00    -0.200 OA
HETATM   12  O   UNK N   1      34.167  17.883   6.344  0.00  0.00    -0.200 OA
HETATM   13  S   UNK N   1      34.134  17.738   7.874  0.00  0.00     0.262 S 
HETATM   14  H   UNK N   1      31.208  15.173   8.110  0.00  0.00     0.161 HD
HETATM   15  H   UNK N   1      32.350  19.201   8.789  0.00  0.00     0.174 HD
ENDROOT
BRANCH   5  16
HETATM   16  S   UNK N   1      37.312  13.885  10.118  0.00  0.00     0.258 S 
HETATM   17  O   UNK N   1      38.469  14.851   9.831  0.00  0.00    -0.201 OA
HETATM   18  O   UNK N   1      37.801  12.611   9.411  0.00  0.00    -0.201 OA
BRANCH  16  19
HETATM   19  N   UNK N   1      37.436  13.490  11.833  0.00  0.00    -0.324 N 
HETATM   20  H   UNK N   1      37.783  13.867  12.715  0.00  0.00     0.169 HD
HETATM   21  H   UNK N   1      37.018  12.575  11.999  0.00  0.00     0.169 HD
ENDBRANCH  16  19
ENDBRANCH   5  16
BRANCH   7  22
HETATM   22  C   UNK N   1      30.557  17.535   6.984  0.00  0.00     0.052 C 
BRANCH  22  23
HETATM   23  C   UNK N   1      30.704  16.630   5.769  0.00  0.00    -0.011 C 
HETATM   24  C   UNK N   1      31.181  17.399   4.557  0.00  0.00     0.005 C 
HETATM   25  C   UNK N   1      30.707  16.580   3.375  0.00  0.00     0.000 C 
HETATM   26  C   UNK N   1      29.496  15.803   3.866  0.00  0.00     0.000 C 
HETATM   27  C   UNK N   1      29.349  16.120   5.343  0.00  0.00     0.005 C 
ENDBRANCH  22  23
ENDBRANCH   7  22
TORSDOF 4
ENDMDL
MODEL 5
REMARK VINA RESULT:      -7.0     12.110     14.067
REMARK  4 active torsions:
REMARK  status: ('A' for Active; 'I' for Inactive)
REMARK    1  A    between atoms: C_8  and  C_5 
REMARK    2  A    between atoms: C_13  and  C_5 
REMARK    3  A    between atoms: S_22  and  C_11 
REMARK    4  A    between atoms: S_22  and  N_15 
ROOT
HETATM    1  C   UNK N   1      33.273  13.680   8.891  0.00  0.00     0.056 A 
HETATM    2  C   UNK N   1      35.506  15.337   9.135  0.00  0.00     0.054 A 
HETATM    3  C   UNK N   1      34.446  13.181   9.473  0.00  0.00     0.059 A 
HETATM    4  C   UNK N   1      33.205  15.006   8.452  0.00  0.00     0.054 A 
HETATM    5  C   UNK N   1      35.571  14.027   9.617  0.00  0.00     0.102 A 
HETATM    6  C   UNK N   1      34.334  15.812   8.552  0.00  0.00     0.107 A 
HETATM    7  C   UNK N   1      31.577  16.929   7.839  0.00  0.00     0.192 C 
HETATM    8 Cl   UNK N   1      34.439  11.519  10.041  0.00  0.00    -0.083 Cl
HETATM    9  N   UNK N   1      31.970  15.519   7.955  0.00  0.00    -0.367 N 
HETATM   10  N   UNK N   1      32.532  17.962   8.281  0.00  0.00    -0.293 N 
HETATM   11  O   UNK N   1      35.061  18.498   8.702  0.00  0.00    -0.200 OA
HETATM   12  O   UNK N   1      34.440  17.687   6.481  0.00  0.00    -0.200 OA
HETATM   13  S   UNK N   1      34.190  17.459   7.980  0.00  0.00     0.262 S 
HETATM   14  H   UNK N   1      31.308  14.854   7.657  0.00  0.00     0.161 HD
HETATM   15  H   UNK N   1      32.267  18.851   8.704  0.00  0.00     0.174 HD
ENDROOT
BRANCH   5  16
HETATM   16  S   UNK N   1      37.083  13.522  10.454  0.00  0.00     0.258 S 
HETATM   17  O   UNK N   1      37.513  12.064  10.245  0.00  0.00    -0.201 OA
HETATM   18  O   UNK N   1      36.890  13.564  11.977  0.00  0.00    -0.201 OA
BRANCH  16  19
HETATM   19  N   UNK N   1      38.535  14.488  10.186  0.00  0.00    -0.324 N 
HETATM   20  H   UNK N   1      39.112  15.201  10.632  0.00  0.00     0.169 HD
HETATM   21  H   UNK N   1      38.933  14.254   9.276  0.00  0.00     0.169 HD
ENDBRANCH  16  19
ENDBRANCH   5  16
BRANCH   7  22
HETATM   22  C   UNK N   1      30.782  17.266   6.574  0.00  0.00     0.052 C 
BRANCH  22  23
HETATM   23  C   UNK N   1      29.303  17.557   6.789  0.00  0.00    -0.011 C 
HETATM   24  C   UNK N   1      28.716  18.340   5.636  0.00  0.00     0.005 C 
HETATM   25  C   UNK N   1      27.517  19.048   6.227  0.00  0.00     0.000 C 
HETATM   26  C   UNK N   1      27.810  19.194   7.712  0.00  0.00     0.000 C 
HETATM   27  C   UNK N   1      29.130  18.489   7.964  0.00  0.00     0.005 C 
ENDBRANCH  22  23
ENDBRANCH   7  22
TORSDOF 4
ENDMDL
MODEL 6
REMARK VINA RESULT:      -7.0     14.047     15.206
REMARK  4 active torsions:
REMARK  status: ('A' for Active; 'I' for Inactive)
REMARK    1  A    between atoms: C_8  and  C_5 
REMARK    2  A    between atoms: C_13  and  C_5 
REMARK    3  A    between atoms: S_22  and  C_11 
REMARK    4  A    between atoms: S_22  and  N_15 
ROOT
HETATM    1  C   UNK N   1      35.770  13.935   8.023  0.00  0.00     0.056 A 
HETATM    2  C   UNK N   1      35.004  15.952   9.794  0.00  0.00     0.054 A 
HETATM    3  C   UNK N   1      35.219  15.123   7.524  0.00  0.00     0.059 A 
HETATM    4  C   UNK N   1      35.960  13.761   9.398  0.00  0.00     0.054 A 
HETATM    5  C   UNK N   1      34.852  16.154   8.420  0.00  0.00     0.102 A 
HETATM    6  C   UNK N   1      35.546  14.760  10.271  0.00  0.00     0.107 A 
HETATM    7  C   UNK N   1      37.263  12.396  11.176  0.00  0.00     0.192 C 
HETATM    8 Cl   UNK N   1      35.055  15.285   5.783  0.00  0.00    -0.083 Cl
HETATM    9  N   UNK N   1      36.614  12.586   9.873  0.00  0.00    -0.367 N 
HETATM   10  N   UNK N   1      37.269  13.524  12.127  0.00  0.00    -0.293 N 
HETATM   11  O   UNK N   1      36.055  15.735  12.832  0.00  0.00    -0.200 OA
HETATM   12  O   UNK N   1      34.705  13.700  12.718  0.00  0.00    -0.200 OA
HETATM   13  S   UNK N   1      35.803  14.483  11.979  0.00  0.00     0.262 S 
HETATM   14  H   UNK N   1      36.631  11.816   9.259  0.00  0.00     0.161 HD
HETATM   15  H   UNK N   1      38.024  13.722  12.783  0.00  0.00     0.174 HD
ENDROOT
BRANCH   5  16
HETATM   16  S   UNK N   1      34.245  17.761   7.879  0.00  0.00     0.258 S 
HETATM   17  O   UNK N   1      34.328  18.039   6.372  0.00  0.00    -0.201 OA
HETATM   18  O   UNK N   1      35.131  18.883   8.441  0.00  0.00    -0.201 OA
BRANCH  16  19
HETATM   19  N   UNK N   1      32.613  18.230   8.359  0.00  0.00    -0.324 N 
HETATM   20  H   UNK N   1      31.959  18.157   9.138  0.00  0.00     0.169 HD
HETATM   21  H   UNK N   1      32.175  18.751   7.599  0.00  0.00     0.169 HD
ENDBRANCH  16  19
ENDBRANCH   5  16
BRANCH   7  22
HETATM   22  C   UNK N   1      37.051  11.013  11.799  0.00  0.00     0.052 C 
BRANCH  22  23
HETATM   23  C   UNK N   1      36.739  11.008  13.289  0.00  0.00    -0.011 C 
HETATM   24  C   UNK N   1      37.789  10.255  14.075  0.00  0.00     0.005 C 
HETATM   25  C   UNK N   1      37.080   9.819  15.338  0.00  0.00     0.000 C 
HETATM   26  C   UNK N   1      35.604   9.737  14.980  0.00  0.00     0.000 C 
HETATM   27  C   UNK N   1      35.481  10.214  13.544  0.00  0.00     0.005 C 
ENDBRANCH  22  23
ENDBRANCH   7  22
TORSDOF 4
ENDMDL
MODEL 7
REMARK VINA RESULT:      -6.9     14.249     15.703
REMARK  4 active torsions:
REMARK  status: ('A' for Active; 'I' for Inactive)
REMARK    1  A    between atoms: C_8  and  C_5 
REMARK    2  A    between atoms: C_13  and  C_5 
REMARK    3  A    between atoms: S_22  and  C_11 
REMARK    4  A    between atoms: S_22  and  N_15 
ROOT
HETATM    1  C   UNK N   1      34.794  12.469  10.020  0.00  0.00     0.056 A 
HETATM    2  C   UNK N   1      35.019  14.921  11.334  0.00  0.00     0.054 A 
HETATM    3  C   UNK N   1      34.477  13.651   9.338  0.00  0.00     0.059 A 
HETATM    4  C   UNK N   1      35.243  12.509  11.344  0.00  0.00     0.054 A 
HETATM    5  C   UNK N   1      34.612  14.896   9.997  0.00  0.00     0.102 A 
HETATM    6  C   UNK N   1      35.321  13.734  11.996  0.00  0.00     0.107 A 
HETATM    7  C   UNK N   1      36.513  11.172  13.167  0.00  0.00     0.192 C 
HETATM    8 Cl   UNK N   1      33.964  13.522   7.663  0.00  0.00    -0.083 Cl
HETATM    9  N   UNK N   1      35.654  11.301  11.984  0.00  0.00    -0.367 N 
HETATM   10  N   UNK N   1      37.037  12.401  13.791  0.00  0.00    -0.293 N 
HETATM   11  O   UNK N   1      36.647  14.971  14.113  0.00  0.00    -0.200 OA
HETATM   12  O   UNK N   1      34.819  13.472  14.734  0.00  0.00    -0.200 OA
HETATM   13  S   UNK N   1      35.883  13.721  13.653  0.00  0.00     0.262 S 
HETATM   14  H   UNK N   1      35.325  10.462  11.587  0.00  0.00     0.161 HD
HETATM   15  H   UNK N   1      37.947  12.476  14.244  0.00  0.00     0.174 HD
ENDROOT
BRANCH   5  16
HETATM   16  S   UNK N   1      34.343  16.478   9.179  0.00  0.00     0.258 S 
HETATM   17  O   UNK N   1      34.822  16.573   7.724  0.00  0.00    -0.201 OA
HETATM   18  O   UNK N   1      35.189  17.574   9.847  0.00  0.00    -0.201 OA
BRANCH  16  19
HETATM   19  N   UNK N   1      32.709  17.142   9.186  0.00  0.00    -0.324 N 
HETATM   20  H   UNK N   1      31.978  17.467   8.554  0.00  0.00     0.169 HD
HETATM   21  H   UNK N   1      32.386  17.232  10.149  0.00  0.00     0.169 HD
ENDBRANCH  16  19
ENDBRANCH   5  16
BRANCH   7  22
HETATM   22  C   UNK N   1      36.093  10.067  14.141  0.00  0.00     0.052 C 
BRANCH  22  23
HETATM   23  C   UNK N   1      36.083  10.461  15.611  0.00  0.00    -0.011 C 
HETATM   24  C   UNK N   1      36.989   9.570  16.433  0.00  0.00     0.005 C 
HETATM   25  C   UNK N   1      36.435   9.656  17.839  0.00  0.00     0.000 C 
HETATM   26  C   UNK N   1      34.964  10.006  17.686  0.00  0.00     0.000 C 
HETATM   27  C   UNK N   1      34.718  10.203  16.201  0.00  0.00     0.005 C 
ENDBRANCH  22  23
ENDBRANCH   7  22
TORSDOF 4
ENDMDL
MODEL 8
REMARK VINA RESULT:      -6.8     16.372     17.234
REMARK  4 active torsions:
REMARK  status: ('A' for Active; 'I' for Inactive)
REMARK    1  A    between atoms: C_8  and  C_5 
REMARK    2  A    between atoms: C_13  and  C_5 
REMARK    3  A    between atoms: S_22  and  C_11 
REMARK    4  A    between atoms: S_22  and  N_15 
ROOT
HETATM    1  C   UNK N   1      38.112  11.637  11.095  0.00  0.00     0.056 A 
HETATM    2  C   UNK N   1      37.389  13.799   9.486  0.00  0.00     0.054 A 
HETATM    3  C   UNK N   1      38.550  11.687   9.765  0.00  0.00     0.059 A 
HETATM    4  C   UNK N   1      37.336  12.670  11.628  0.00  0.00     0.054 A 
HETATM    5  C   UNK N   1      38.202  12.795   8.955  0.00  0.00     0.102 A 
HETATM    6  C   UNK N   1      36.957  13.726  10.808  0.00  0.00     0.107 A 
HETATM    7  C   UNK N   1      36.556  13.776  13.839  0.00  0.00     0.192 C 
HETATM    8 Cl   UNK N   1      39.561  10.374   9.181  0.00  0.00    -0.083 Cl
HETATM    9  N   UNK N   1      36.986  12.644  13.011  0.00  0.00    -0.367 N 
HETATM   10  N   UNK N   1      36.468  15.109  13.214  0.00  0.00    -0.293 N 
HETATM   11  O   UNK N   1      36.170  16.396  10.952  0.00  0.00    -0.200 OA
HETATM   12  O   UNK N   1      34.461  14.750  11.542  0.00  0.00    -0.200 OA
HETATM   13  S   UNK N   1      35.980  14.985  11.529  0.00  0.00     0.262 S 
HETATM   14  H   UNK N   1      37.040  11.769  13.460  0.00  0.00     0.161 HD
HETATM   15  H   UNK N   1      36.664  15.987  13.694  0.00  0.00     0.174 HD
ENDROOT
BRANCH   5  16
HETATM   16  S   UNK N   1      38.807  13.015   7.274  0.00  0.00     0.258 S 
HETATM   17  O   UNK N   1      38.230  14.209   6.501  0.00  0.00    -0.201 OA
HETATM   18  O   UNK N   1      38.362  11.841   6.388  0.00  0.00    -0.201 OA
BRANCH  16  19
HETATM   19  N   UNK N   1      40.553  13.090   7.029  0.00  0.00    -0.324 N 
HETATM   20  H   UNK N   1      41.401  13.473   7.446  0.00  0.00     0.169 HD
HETATM   21  H   UNK N   1      40.797  12.578   6.182  0.00  0.00     0.169 HD
ENDBRANCH  16  19
ENDBRANCH   5  16
BRANCH   7  22
HETATM   22  C   UNK N   1      35.447  13.447  14.843  0.00  0.00     0.052 C 
BRANCH  22  23
HETATM   23  C   UNK N   1      35.917  12.884  16.176  0.00  0.00    -0.011 C 
HETATM   24  C   UNK N   1      35.638  11.400  16.283  0.00  0.00     0.005 C 
HETATM   25  C   UNK N   1      35.575  11.131  17.771  0.00  0.00     0.000 C 
HETATM   26  C   UNK N   1      35.171  12.447  18.416  0.00  0.00     0.000 C 
HETATM   27  C   UNK N   1      35.096  13.471  17.298  0.00  0.00     0.005 C 
ENDBRANCH  22  23
ENDBRANCH   7  22
TORSDOF 4
ENDMDL
MODEL 9
REMARK VINA RESULT:      -6.7     15.886     17.082
REMARK  4 active torsions:
REMARK  status: ('A' for Active; 'I' for Inactive)
REMARK    1  A    between atoms: C_8  and  C_5 
REMARK    2  A    between atoms: C_13  and  C_5 
REMARK    3  A    between atoms: S_22  and  C_11 
REMARK    4  A    between atoms: S_22  and  N_15 
ROOT
HETATM    1  C   UNK N   1      29.663  24.059  -4.761  0.00  0.00     0.056 A 
HETATM    2  C   UNK N   1      28.932  21.967  -6.458  0.00  0.00     0.054 A 
HETATM    3  C   UNK N   1      30.534  22.975  -4.940  0.00  0.00     0.059 A 
HETATM    4  C   UNK N   1      28.443  24.112  -5.443  0.00  0.00     0.054 A 
HETATM    5  C   UNK N   1      30.173  21.925  -5.817  0.00  0.00     0.102 A 
HETATM    6  C   UNK N   1      28.077  23.049  -6.261  0.00  0.00     0.107 A 
HETATM    7  C   UNK N   1      26.552  25.699  -6.231  0.00  0.00     0.192 C 
HETATM    8 Cl   UNK N   1      32.068  23.004  -4.085  0.00  0.00    -0.083 Cl
HETATM    9  N   UNK N   1      27.620  25.271  -5.322  0.00  0.00    -0.367 N 
HETATM   10  N   UNK N   1      26.268  24.873  -7.420  0.00  0.00    -0.293 N 
HETATM   11  O   UNK N   1      26.448  22.470  -8.446  0.00  0.00    -0.200 OA
HETATM   12  O   UNK N   1      25.305  22.690  -6.297  0.00  0.00    -0.200 OA
HETATM   13  S   UNK N   1      26.537  23.168  -7.081  0.00  0.00     0.262 S 
HETATM   14  H   UNK N   1      27.788  25.847  -4.541  0.00  0.00     0.161 HD
HETATM   15  H   UNK N   1      25.958  25.240  -8.318  0.00  0.00     0.174 HD
ENDROOT
BRANCH   5  16
HETATM   16  S   UNK N   1      31.265  20.547  -6.206  0.00  0.00     0.258 S 
HETATM   17  O   UNK N   1      30.680  19.462  -7.120  0.00  0.00    -0.201 OA
HETATM   18  O   UNK N   1      31.575  19.737  -4.938  0.00  0.00    -0.201 OA
BRANCH  16  19
HETATM   19  N   UNK N   1      32.857  20.919  -6.870  0.00  0.00    -0.324 N 
HETATM   20  H   UNK N   1      33.486  21.703  -7.042  0.00  0.00     0.169 HD
HETATM   21  H   UNK N   1      33.298  20.057  -7.191  0.00  0.00     0.169 HD
ENDBRANCH  16  19
ENDBRANCH   5  16
BRANCH   7  22
HETATM   22  C   UNK N   1      25.323  26.294  -5.537  0.00  0.00     0.052 C 
BRANCH  22  23
HETATM   23  C   UNK N   1      25.446  27.754  -5.126  0.00  0.00    -0.011 C 
HETATM   24  C   UNK N   1      26.687  28.394  -5.709  0.00  0.00     0.005 C 
HETATM   25  C   UNK N   1      26.993  29.549  -4.781  0.00  0.00     0.000 C 
HETATM   26  C   UNK N   1      26.392  29.172  -3.436  0.00  0.00     0.000 C 
HETATM   27  C   UNK N   1      25.676  27.850  -3.637  0.00  0.00     0.005 C 
ENDBRANCH  22  23
ENDBRANCH   7  22
TORSDOF 4
ENDMDL
