MODEL 1
REMARK VINA RESULT:      -2.1      0.000      0.000
REMARK  0 active torsions:
REMARK  status: ('A' for Active; 'I' for Inactive)
ROOT
HETATM    1  C   UNK N   1      21.828  12.188  11.094  0.00  0.00     0.021 C 
HETATM    2  C   UNK N   1      23.259  11.963  11.542  0.00  0.00     0.110 C 
HETATM    3 Cl   UNK N   1      23.319  11.953  13.318  0.00  0.00    -0.131 Cl
ENDROOT
TORSDOF 0
ENDMDL
MODEL 2
REMARK VINA RESULT:      -2.0      1.945      2.214
REMARK  0 active torsions:
REMARK  status: ('A' for Active; 'I' for Inactive)
ROOT
HETATM    1  C   UNK N   1      23.161  11.871  12.980  0.00  0.00     0.021 C 
HETATM    2  C   UNK N   1      22.927  12.058  11.494  0.00  0.00     0.110 C 
HETATM    3 Cl   UNK N   1      21.184  12.223  11.193  0.00  0.00    -0.131 Cl
ENDROOT
TORSDOF 0
ENDMDL
MODEL 3
REMARK VINA RESULT:      -2.0      1.867      2.170
REMARK  0 active torsions:
REMARK  status: ('A' for Active; 'I' for Inactive)
ROOT
HETATM    1  C   UNK N   1      23.241  11.884  13.089  0.00  0.00     0.021 C 
HETATM    2  C   UNK N   1      23.103  12.000  11.584  0.00  0.00     0.110 C 
HETATM    3 Cl   UNK N   1      24.716  12.188  10.862  0.00  0.00    -0.131 Cl
ENDROOT
TORSDOF 0
ENDMDL
MODEL 4
REMARK VINA RESULT:      -1.9     22.710     22.803
REMARK  0 active torsions:
REMARK  status: ('A' for Active; 'I' for Inactive)
ROOT
HETATM    1  C   UNK N   1      26.050  27.217  -3.272  0.00  0.00     0.021 C 
HETATM    2  C   UNK N   1      25.542  28.128  -4.372  0.00  0.00     0.110 C 
HETATM    3 Cl   UNK N   1      24.669  27.158  -5.577  0.00  0.00    -0.131 Cl
ENDROOT
TORSDOF 0
ENDMDL
MODEL 5
REMARK VINA RESULT:      -1.8     14.522     14.754
REMARK  0 active torsions:
REMARK  status: ('A' for Active; 'I' for Inactive)
ROOT
HETATM    1  C   UNK N   1      36.431  14.314  13.949  0.00  0.00     0.021 C 
HETATM    2  C   UNK N   1      36.875  14.183  15.392  0.00  0.00     0.110 C 
HETATM    3 Cl   UNK N   1      37.479  15.754  15.963  0.00  0.00    -0.131 Cl
ENDROOT
TORSDOF 0
ENDMDL
MODEL 6
REMARK VINA RESULT:      -1.8     14.462     14.778
REMARK  0 active torsions:
REMARK  status: ('A' for Active; 'I' for Inactive)
ROOT
HETATM    1  C   UNK N   1      37.412  15.615  16.101  0.00  0.00     0.021 C 
HETATM    2  C   UNK N   1      36.947  14.339  15.429  0.00  0.00     0.110 C 
HETATM    3 Cl   UNK N   1      35.765  13.525  16.477  0.00  0.00    -0.131 Cl
ENDROOT
TORSDOF 0
ENDMDL
MODEL 7
REMARK VINA RESULT:      -1.8     22.566     22.601
REMARK  0 active torsions:
REMARK  status: ('A' for Active; 'I' for Inactive)
ROOT
HETATM    1  C   UNK N   1      24.840  27.090  -5.578  0.00  0.00     0.021 C 
HETATM    2  C   UNK N   1      25.447  27.951  -4.488  0.00  0.00     0.110 C 
HETATM    3 Cl   UNK N   1      26.165  26.901  -3.247  0.00  0.00    -0.131 Cl
ENDROOT
TORSDOF 0
ENDMDL
MODEL 8
REMARK VINA RESULT:      -1.7      2.089      2.286
REMARK  0 active torsions:
REMARK  status: ('A' for Active; 'I' for Inactive)
ROOT
HETATM    1  C   UNK N   1      20.820  13.162  10.245  0.00  0.00     0.021 C 
HETATM    2  C   UNK N   1      21.526  12.177  11.157  0.00  0.00     0.110 C 
HETATM    3 Cl   UNK N   1      22.862  11.414  10.268  0.00  0.00    -0.131 Cl
ENDROOT
TORSDOF 0
ENDMDL
MODEL 9
REMARK VINA RESULT:      -1.7     11.944     12.005
REMARK  0 active torsions:
REMARK  status: ('A' for Active; 'I' for Inactive)
ROOT
HETATM    1  C   UNK N   1      27.164  21.531   6.203  0.00  0.00     0.021 C 
HETATM    2  C   UNK N   1      26.303  20.617   5.353  0.00  0.00     0.110 C 
HETATM    3 Cl   UNK N   1      27.223  20.116   3.918  0.00  0.00    -0.131 Cl
ENDROOT
TORSDOF 0
ENDMDL
