MODEL 1
REMARK VINA RESULT:      -8.3      0.000      0.000
REMARK  3 active torsions:
REMARK  status: ('A' for Active; 'I' for Inactive)
REMARK    1  A    between atoms: N_30  and  C_14 
REMARK    2  A    between atoms: N_32  and  C_15 
REMARK    3  A    between atoms: C_22  and  C_16 
ROOT
HETATM    1  C   UNK N   1      23.903  20.481   2.765  0.00  0.00     0.038 A 
HETATM    2  C   UNK N   1      24.996  19.774   3.217  0.00  0.00     0.033 A 
HETATM    3  C   UNK N   1      22.477  18.840   3.776  0.00  0.00     0.052 A 
HETATM    4  C   UNK N   1      25.397  15.692   4.959  0.00  0.00     0.197 C 
HETATM    5  C   UNK N   1      29.497  18.046   5.538  0.00  0.00     0.121 C 
HETATM    6  C   UNK N   1      22.629  20.039   3.072  0.00  0.00     0.103 A 
HETATM    7  C   UNK N   1      23.555  18.057   4.238  0.00  0.00     0.021 A 
HETATM    8  C   UNK N   1      28.186  17.867   5.317  0.00  0.00     0.118 A 
HETATM    9  C   UNK N   1      24.877  18.594   3.971  0.00  0.00     0.056 A 
HETATM   10  C   UNK N   1      26.277  16.835   5.156  0.00  0.00     0.110 A 
HETATM   11  C   UNK N   1      23.191  16.791   5.067  0.00  0.00     0.053 C 
HETATM   12  C   UNK N   1      27.276  18.722   4.603  0.00  0.00     0.282 A 
HETATM   13  N   UNK N   1      24.049  15.882   5.383  0.00  0.00    -0.381 N 
ATOM     14  HN  UNK N   1      23.708  15.184   6.044  1.00  0.00     0.160 HD
HETATM   15  N   UNK N   1      27.465  16.692   5.625  0.00  0.00    -0.339 N 
ATOM     16  HN  UNK N   1      27.821  15.880   6.129  1.00  0.00     0.167 HD
HETATM   17  N   UNK N   1      26.087  18.076   4.526  0.00  0.00    -0.264 N 
HETATM   18  O   UNK N   1      27.516  19.836   4.163  0.00  0.00    -0.265 OA
ENDROOT
BRANCH   5  19
HETATM   19  N   UNK N   1      30.255  17.066   6.235  0.00  0.00    -0.384 N 
HETATM   20  C   UNK N   1      30.370  17.131   7.673  0.00  0.00     0.152 C 
HETATM   21  C   UNK N   1      31.578  16.302   8.137  0.00  0.00     0.291 C 
HETATM   22  N   UNK N   1      32.741  16.513   7.259  0.00  0.00     0.087 N 
HETATM   23  C   UNK N   1      33.763  15.571   7.674  0.00  0.00     0.310 C 
HETATM   24  C   UNK N   1      32.485  16.216   5.842  0.00  0.00     0.291 C 
HETATM   25  C   UNK N   1      31.008  16.067   5.512  0.00  0.00     0.152 C 
ENDBRANCH   5  19
BRANCH  11  26
HETATM   26  C   UNK N   1      21.745  16.451   5.454  0.00  0.00     0.013 A 
HETATM   27  C   UNK N   1      21.279  16.705   6.758  0.00  0.00     0.015 A 
HETATM   28  C   UNK N   1      19.955  16.488   7.133  0.00  0.00     0.001 A 
HETATM   29  C   UNK N   1      19.041  16.006   6.205  0.00  0.00     0.002 A 
HETATM   30  C   UNK N   1      19.457  15.729   4.908  0.00  0.00     0.025 A 
HETATM   31  C   UNK N   1      20.783  15.941   4.512  0.00  0.00     0.046 A 
HETATM   32 Cl   UNK N   1      21.132  15.540   2.829  0.00  0.00    -0.083 Cl
ENDBRANCH  11  26
BRANCH   6  33
HETATM   33  N   UNK N   1      21.501  20.835   2.728  0.00  0.00    -0.116 N 
HETATM   34  O   UNK N   1      21.425  21.329   1.641  0.00  0.00    -0.532 OA
HETATM   35  O   UNK N   1      20.580  20.931   3.481  0.00  0.00    -0.532 OA
ENDBRANCH   6  33
TORSDOF 3
ENDMDL
MODEL 2
REMARK VINA RESULT:      -7.9      4.650      7.729
REMARK  3 active torsions:
REMARK  status: ('A' for Active; 'I' for Inactive)
REMARK    1  A    between atoms: N_30  and  C_14 
REMARK    2  A    between atoms: N_32  and  C_15 
REMARK    3  A    between atoms: C_22  and  C_16 
ROOT
HETATM    1  C   UNK N   1      30.861  16.832   8.528  0.00  0.00     0.038 A 
HETATM    2  C   UNK N   1      31.485  16.177   7.489  0.00  0.00     0.033 A 
HETATM    3  C   UNK N   1      29.315  17.768   6.952  0.00  0.00     0.052 A 
HETATM    4  C   UNK N   1      31.139  16.584   3.065  0.00  0.00     0.197 C 
HETATM    5  C   UNK N   1      33.627  12.652   4.080  0.00  0.00     0.121 C 
HETATM    6  C   UNK N   1      29.744  17.608   8.273  0.00  0.00     0.103 A 
HETATM    7  C   UNK N   1      29.930  17.147   5.844  0.00  0.00     0.021 A 
HETATM    8  C   UNK N   1      32.790  13.680   4.280  0.00  0.00     0.118 A 
HETATM    9  C   UNK N   1      31.046  16.274   6.157  0.00  0.00     0.056 A 
HETATM   10  C   UNK N   1      31.555  15.412   3.822  0.00  0.00     0.110 A 
HETATM   11  C   UNK N   1      29.266  17.385   4.456  0.00  0.00     0.053 C 
HETATM   12  C   UNK N   1      32.456  14.331   5.519  0.00  0.00     0.282 A 
HETATM   13  N   UNK N   1      29.820  17.050   3.341  0.00  0.00    -0.381 N 
ATOM     14  HN  UNK N   1      29.217  17.134   2.522  1.00  0.00     0.160 HD
HETATM   15  N   UNK N   1      32.177  14.437   3.259  0.00  0.00    -0.339 N 
ATOM     16  HN  UNK N   1      32.218  14.246   2.258  1.00  0.00     0.167 HD
HETATM   17  N   UNK N   1      31.672  15.395   5.221  0.00  0.00    -0.264 N 
HETATM   18  O   UNK N   1      32.794  13.982   6.640  0.00  0.00    -0.265 OA
ENDROOT
BRANCH   5  19
HETATM   19  N   UNK N   1      33.870  12.161   2.768  0.00  0.00    -0.384 N 
HETATM   20  C   UNK N   1      34.856  12.800   1.929  0.00  0.00     0.152 C 
HETATM   21  C   UNK N   1      34.608  12.430   0.458  0.00  0.00     0.291 C 
HETATM   22  N   UNK N   1      33.173  12.471   0.130  0.00  0.00     0.087 N 
HETATM   23  C   UNK N   1      33.030  11.948  -1.215  0.00  0.00     0.310 C 
HETATM   24  C   UNK N   1      32.339  11.605   0.979  0.00  0.00     0.291 C 
HETATM   25  C   UNK N   1      33.059  11.098   2.219  0.00  0.00     0.152 C 
ENDBRANCH   5  19
BRANCH  11  26
HETATM   26  C   UNK N   1      27.955  18.168   4.296  0.00  0.00     0.013 A 
HETATM   27  C   UNK N   1      27.970  19.573   4.221  0.00  0.00     0.015 A 
HETATM   28  C   UNK N   1      26.816  20.321   3.996  0.00  0.00     0.001 A 
HETATM   29  C   UNK N   1      25.595  19.680   3.834  0.00  0.00     0.002 A 
HETATM   30  C   UNK N   1      25.528  18.294   3.910  0.00  0.00     0.025 A 
HETATM   31  C   UNK N   1      26.676  17.526   4.136  0.00  0.00     0.046 A 
HETATM   32 Cl   UNK N   1      26.407  15.783   4.198  0.00  0.00    -0.083 Cl
ENDBRANCH  11  26
BRANCH   6  33
HETATM   33  N   UNK N   1      29.015  18.176   9.355  0.00  0.00    -0.116 N 
HETATM   34  O   UNK N   1      27.850  17.936   9.484  0.00  0.00    -0.532 OA
HETATM   35  O   UNK N   1      29.579  18.809  10.194  0.00  0.00    -0.532 OA
ENDBRANCH   6  33
TORSDOF 3
ENDMDL
MODEL 3
REMARK VINA RESULT:      -7.9      3.572      9.746
REMARK  3 active torsions:
REMARK  status: ('A' for Active; 'I' for Inactive)
REMARK    1  A    between atoms: N_30  and  C_14 
REMARK    2  A    between atoms: N_32  and  C_15 
REMARK    3  A    between atoms: C_22  and  C_16 
ROOT
HETATM    1  C   UNK N   1      30.944  18.001   8.630  0.00  0.00     0.038 A 
HETATM    2  C   UNK N   1      29.758  18.094   7.935  0.00  0.00     0.033 A 
HETATM    3  C   UNK N   1      31.737  16.446   6.985  0.00  0.00     0.052 A 
HETATM    4  C   UNK N   1      28.052  15.672   4.606  0.00  0.00     0.197 C 
HETATM    5  C   UNK N   1      25.436  19.612   5.169  0.00  0.00     0.121 C 
HETATM    6  C   UNK N   1      31.962  17.201   8.140  0.00  0.00     0.103 A 
HETATM    7  C   UNK N   1      30.534  16.475   6.248  0.00  0.00     0.021 A 
HETATM    8  C   UNK N   1      26.498  18.799   5.269  0.00  0.00     0.118 A 
HETATM    9  C   UNK N   1      29.520  17.388   6.742  0.00  0.00     0.056 A 
HETATM   10  C   UNK N   1      27.762  17.060   4.937  0.00  0.00     0.110 A 
HETATM   11  C   UNK N   1      30.494  15.621   4.947  0.00  0.00     0.053 C 
HETATM   12  C   UNK N   1      27.534  18.803   6.268  0.00  0.00     0.282 A 
HETATM   13  N   UNK N   1      29.413  15.394   4.283  0.00  0.00    -0.381 N 
ATOM     14  HN  UNK N   1      29.553  14.942   3.380  1.00  0.00     0.160 HD
HETATM   15  N   UNK N   1      26.723  17.656   4.472  0.00  0.00    -0.339 N 
ATOM     16  HN  UNK N   1      26.164  17.358   3.672  1.00  0.00     0.167 HD
HETATM   17  N   UNK N   1      28.324  17.726   6.038  0.00  0.00    -0.264 N 
HETATM   18  O   UNK N   1      27.693  19.633   7.150  0.00  0.00    -0.265 OA
ENDROOT
BRANCH   5  19
HETATM   19  N   UNK N   1      24.483  19.433   4.129  0.00  0.00    -0.384 N 
HETATM   20  C   UNK N   1      24.255  20.488   3.170  0.00  0.00     0.152 C 
HETATM   21  C   UNK N   1      22.901  20.276   2.475  0.00  0.00     0.291 C 
HETATM   22  N   UNK N   1      21.862  19.870   3.436  0.00  0.00     0.087 N 
HETATM   23  C   UNK N   1      20.680  19.534   2.667  0.00  0.00     0.310 C 
HETATM   24  C   UNK N   1      22.193  18.656   4.199  0.00  0.00     0.291 C 
HETATM   25  C   UNK N   1      23.654  18.250   4.087  0.00  0.00     0.152 C 
ENDBRANCH   5  19
BRANCH  11  26
HETATM   26  C   UNK N   1      31.722  14.860   4.427  0.00  0.00     0.013 A 
HETATM   27  C   UNK N   1      31.882  13.490   4.707  0.00  0.00     0.015 A 
HETATM   28  C   UNK N   1      32.936  12.740   4.190  0.00  0.00     0.001 A 
HETATM   29  C   UNK N   1      33.875  13.342   3.364  0.00  0.00     0.002 A 
HETATM   30  C   UNK N   1      33.766  14.696   3.067  0.00  0.00     0.025 A 
HETATM   31  C   UNK N   1      32.714  15.465   3.576  0.00  0.00     0.046 A 
HETATM   32 Cl   UNK N   1      32.729  17.162   3.093  0.00  0.00    -0.083 Cl
ENDBRANCH  11  26
BRANCH   6  33
HETATM   33  N   UNK N   1      33.235  17.207   8.776  0.00  0.00    -0.116 N 
HETATM   34  O   UNK N   1      33.643  16.216   9.309  0.00  0.00    -0.532 OA
HETATM   35  O   UNK N   1      33.944  18.163   8.694  0.00  0.00    -0.532 OA
ENDBRANCH   6  33
TORSDOF 3
ENDMDL
MODEL 4
REMARK VINA RESULT:      -7.8      9.668     15.448
REMARK  3 active torsions:
REMARK  status: ('A' for Active; 'I' for Inactive)
REMARK    1  A    between atoms: N_30  and  C_14 
REMARK    2  A    between atoms: N_32  and  C_15 
REMARK    3  A    between atoms: C_22  and  C_16 
ROOT
HETATM    1  C   UNK N   1      37.902  10.029  12.154  0.00  0.00     0.038 A 
HETATM    2  C   UNK N   1      37.370  10.893  11.223  0.00  0.00     0.033 A 
HETATM    3  C   UNK N   1      37.475  11.664  13.854  0.00  0.00     0.052 A 
HETATM    4  C   UNK N   1      36.283  15.209  11.436  0.00  0.00     0.197 C 
HETATM    5  C   UNK N   1      34.534  13.357   7.411  0.00  0.00     0.121 C 
HETATM    6  C   UNK N   1      37.927  10.393  13.488  0.00  0.00     0.103 A 
HETATM    7  C   UNK N   1      36.947  12.604  12.944  0.00  0.00     0.021 A 
HETATM    8  C   UNK N   1      35.033  13.380   8.656  0.00  0.00     0.118 A 
HETATM    9  C   UNK N   1      36.859  12.157  11.565  0.00  0.00     0.056 A 
HETATM   10  C   UNK N   1      35.732  14.195  10.549  0.00  0.00     0.110 A 
HETATM   11  C   UNK N   1      36.427  13.941  13.547  0.00  0.00     0.053 C 
HETATM   12  C   UNK N   1      35.759  12.347   9.347  0.00  0.00     0.282 A 
HETATM   13  N   UNK N   1      36.104  14.962  12.829  0.00  0.00    -0.381 N 
ATOM     14  HN  UNK N   1      35.647  15.717  13.341  1.00  0.00     0.160 HD
HETATM   15  N   UNK N   1      35.070  14.515   9.494  0.00  0.00    -0.339 N 
ATOM     16  HN  UNK N   1      34.648  15.423   9.300  1.00  0.00     0.167 HD
HETATM   17  N   UNK N   1      36.172  12.862  10.530  0.00  0.00    -0.264 N 
HETATM   18  O   UNK N   1      35.954  11.206   8.954  0.00  0.00    -0.265 OA
ENDROOT
BRANCH   5  19
HETATM   19  N   UNK N   1      33.875  14.496   6.875  0.00  0.00    -0.384 N 
HETATM   20  C   UNK N   1      32.445  14.638   7.020  0.00  0.00     0.152 C 
HETATM   21  C   UNK N   1      31.914  15.643   5.986  0.00  0.00     0.291 C 
HETATM   22  N   UNK N   1      32.539  15.440   4.669  0.00  0.00     0.087 N 
HETATM   23  C   UNK N   1      32.104  16.531   3.819  0.00  0.00     0.310 C 
HETATM   24  C   UNK N   1      34.008  15.515   4.685  0.00  0.00     0.291 C 
HETATM   25  C   UNK N   1      34.602  15.462   6.083  0.00  0.00     0.152 C 
ENDBRANCH   5  19
BRANCH  11  26
HETATM   26  C   UNK N   1      36.390  14.201  15.060  0.00  0.00     0.013 A 
HETATM   27  C   UNK N   1      37.220  15.181  15.634  0.00  0.00     0.015 A 
HETATM   28  C   UNK N   1      37.164  15.506  16.988  0.00  0.00     0.001 A 
HETATM   29  C   UNK N   1      36.263  14.856  17.821  0.00  0.00     0.002 A 
HETATM   30  C   UNK N   1      35.430  13.872  17.301  0.00  0.00     0.025 A 
HETATM   31  C   UNK N   1      35.471  13.532  15.944  0.00  0.00     0.046 A 
HETATM   32 Cl   UNK N   1      34.341  12.267  15.459  0.00  0.00    -0.083 Cl
ENDBRANCH  11  26
BRANCH   6  33
HETATM   33  N   UNK N   1      38.348   9.454  14.471  0.00  0.00    -0.116 N 
HETATM   34  O   UNK N   1      39.508   9.353  14.745  0.00  0.00    -0.532 OA
HETATM   35  O   UNK N   1      37.541   8.837  15.098  0.00  0.00    -0.532 OA
ENDBRANCH   6  33
TORSDOF 3
ENDMDL
MODEL 5
REMARK VINA RESULT:      -7.4     12.719     13.670
REMARK  3 active torsions:
REMARK  status: ('A' for Active; 'I' for Inactive)
REMARK    1  A    between atoms: N_30  and  C_14 
REMARK    2  A    between atoms: N_32  and  C_15 
REMARK    3  A    between atoms: C_22  and  C_16 
ROOT
HETATM    1  C   UNK N   1      27.031  21.747  -7.813  0.00  0.00     0.038 A 
HETATM    2  C   UNK N   1      28.288  21.660  -7.256  0.00  0.00     0.033 A 
HETATM    3  C   UNK N   1      26.656  23.750  -6.550  0.00  0.00     0.052 A 
HETATM    4  C   UNK N   1      30.196  23.806  -3.849  0.00  0.00     0.197 C 
HETATM    5  C   UNK N   1      33.532  21.376  -6.227  0.00  0.00     0.121 C 
HETATM    6  C   UNK N   1      26.214  22.816  -7.492  0.00  0.00     0.103 A 
HETATM    7  C   UNK N   1      27.919  23.698  -5.922  0.00  0.00     0.021 A 
HETATM    8  C   UNK N   1      32.358  21.984  -6.005  0.00  0.00     0.118 A 
HETATM    9  C   UNK N   1      28.783  22.611  -6.346  0.00  0.00     0.056 A 
HETATM   10  C   UNK N   1      30.854  23.185  -4.990  0.00  0.00     0.110 A 
HETATM   11  C   UNK N   1      28.264  24.866  -4.954  0.00  0.00     0.053 C 
HETATM   12  C   UNK N   1      31.086  21.725  -6.626  0.00  0.00     0.282 A 
HETATM   13  N   UNK N   1      29.284  24.854  -4.167  0.00  0.00    -0.381 N 
ATOM     14  HN  UNK N   1      29.469  25.739  -3.693  1.00  0.00     0.160 HD
HETATM   15  N   UNK N   1      32.111  22.921  -4.977  0.00  0.00    -0.339 N 
ATOM     16  HN  UNK N   1      32.804  23.316  -4.341  1.00  0.00     0.167 HD
HETATM   17  N   UNK N   1      30.163  22.493  -5.998  0.00  0.00    -0.264 N 
HETATM   18  O   UNK N   1      30.873  20.970  -7.563  0.00  0.00    -0.265 OA
ENDROOT
BRANCH   5  19
HETATM   19  N   UNK N   1      34.687  21.738  -5.482  0.00  0.00    -0.384 N 
HETATM   20  C   UNK N   1      35.426  22.929  -5.830  0.00  0.00     0.152 C 
HETATM   21  C   UNK N   1      36.842  22.856  -5.237  0.00  0.00     0.291 C 
HETATM   22  N   UNK N   1      37.423  21.513  -5.401  0.00  0.00     0.087 N 
HETATM   23  C   UNK N   1      38.674  21.499  -4.668  0.00  0.00     0.310 C 
HETATM   24  C   UNK N   1      36.613  20.434  -4.815  0.00  0.00     0.291 C 
HETATM   25  C   UNK N   1      35.201  20.866  -4.451  0.00  0.00     0.152 C 
ENDBRANCH   5  19
BRANCH  11  26
HETATM   26  C   UNK N   1      27.332  26.071  -4.756  0.00  0.00     0.013 A 
HETATM   27  C   UNK N   1      26.592  26.211  -3.567  0.00  0.00     0.015 A 
HETATM   28  C   UNK N   1      25.797  27.326  -3.309  0.00  0.00     0.001 A 
HETATM   29  C   UNK N   1      25.716  28.350  -4.243  0.00  0.00     0.002 A 
HETATM   30  C   UNK N   1      26.420  28.252  -5.437  0.00  0.00     0.025 A 
HETATM   31  C   UNK N   1      27.224  27.141  -5.714  0.00  0.00     0.046 A 
HETATM   32 Cl   UNK N   1      28.048  27.186  -7.274  0.00  0.00    -0.083 Cl
ENDBRANCH  11  26
BRANCH   6  33
HETATM   33  N   UNK N   1      24.973  22.986  -8.166  0.00  0.00    -0.116 N 
HETATM   34  O   UNK N   1      24.815  23.911  -8.908  0.00  0.00    -0.532 OA
HETATM   35  O   UNK N   1      24.121  22.155  -8.077  0.00  0.00    -0.532 OA
ENDBRANCH   6  33
TORSDOF 3
ENDMDL
MODEL 6
REMARK VINA RESULT:      -7.3      9.655     15.137
REMARK  3 active torsions:
REMARK  status: ('A' for Active; 'I' for Inactive)
REMARK    1  A    between atoms: N_30  and  C_14 
REMARK    2  A    between atoms: N_32  and  C_15 
REMARK    3  A    between atoms: C_22  and  C_16 
ROOT
HETATM    1  C   UNK N   1      38.293  10.084  10.575  0.00  0.00     0.038 A 
HETATM    2  C   UNK N   1      37.630  11.165  10.037  0.00  0.00     0.033 A 
HETATM    3  C   UNK N   1      37.250  10.546  12.683  0.00  0.00     0.052 A 
HETATM    4  C   UNK N   1      35.338  14.494  11.912  0.00  0.00     0.197 C 
HETATM    5  C   UNK N   1      34.599  14.547   7.206  0.00  0.00     0.121 C 
HETATM    6  C   UNK N   1      38.081   9.741  11.898  0.00  0.00     0.103 A 
HETATM    7  C   UNK N   1      36.568  11.683  12.198  0.00  0.00     0.021 A 
HETATM    8  C   UNK N   1      34.945  14.056   8.406  0.00  0.00     0.118 A 
HETATM    9  C   UNK N   1      36.747  11.963  10.785  0.00  0.00     0.056 A 
HETATM   10  C   UNK N   1      35.190  13.959  10.565  0.00  0.00     0.110 A 
HETATM   11  C   UNK N   1      35.629  12.413  13.202  0.00  0.00     0.053 C 
HETATM   12  C   UNK N   1      35.864  12.990   8.703  0.00  0.00     0.282 A 
HETATM   13  N   UNK N   1      35.100  13.564  12.966  0.00  0.00    -0.381 N 
ATOM     14  HN  UNK N   1      34.398  13.859  13.645  1.00  0.00     0.160 HD
HETATM   15  N   UNK N   1      34.572  14.613   9.648  0.00  0.00    -0.339 N 
ATOM     16  HN  UNK N   1      33.929  15.392   9.792  1.00  0.00     0.167 HD
HETATM   17  N   UNK N   1      35.993  12.928  10.051  0.00  0.00    -0.264 N 
HETATM   18  O   UNK N   1      36.415  12.256   7.896  0.00  0.00    -0.265 OA
ENDROOT
BRANCH   5  19
HETATM   19  N   UNK N   1      33.697  15.641   7.104  0.00  0.00    -0.384 N 
HETATM   20  C   UNK N   1      34.186  16.993   7.235  0.00  0.00     0.152 C 
HETATM   21  C   UNK N   1      33.021  17.938   7.569  0.00  0.00     0.291 C 
HETATM   22  N   UNK N   1      32.118  17.344   8.568  0.00  0.00     0.087 N 
HETATM   23  C   UNK N   1      30.974  18.229   8.687  0.00  0.00     0.310 C 
HETATM   24  C   UNK N   1      31.565  16.038   8.176  0.00  0.00     0.291 C 
HETATM   25  C   UNK N   1      32.275  15.413   6.986  0.00  0.00     0.152 C 
ENDBRANCH   5  19
BRANCH  11  26
HETATM   26  C   UNK N   1      35.370  11.882  14.619  0.00  0.00     0.013 A 
HETATM   27  C   UNK N   1      34.659  10.683  14.811  0.00  0.00     0.015 A 
HETATM   28  C   UNK N   1      34.469  10.122  16.072  0.00  0.00     0.001 A 
HETATM   29  C   UNK N   1      34.993  10.747  17.196  0.00  0.00     0.002 A 
HETATM   30  C   UNK N   1      35.694  11.939  17.058  0.00  0.00     0.025 A 
HETATM   31  C   UNK N   1      35.895  12.518  15.800  0.00  0.00     0.046 A 
HETATM   32 Cl   UNK N   1      36.810  14.027  15.811  0.00  0.00    -0.083 Cl
ENDBRANCH  11  26
BRANCH   6  33
HETATM   33  N   UNK N   1      38.654   8.549  12.422  0.00  0.00    -0.116 N 
HETATM   34  O   UNK N   1      38.260   8.100  13.459  0.00  0.00    -0.532 OA
HETATM   35  O   UNK N   1      39.454   7.935  11.784  0.00  0.00    -0.532 OA
ENDBRANCH   6  33
TORSDOF 3
ENDMDL
MODEL 7
REMARK VINA RESULT:      -7.2      1.675      2.031
REMARK  3 active torsions:
REMARK  status: ('A' for Active; 'I' for Inactive)
REMARK    1  A    between atoms: N_30  and  C_14 
REMARK    2  A    between atoms: N_32  and  C_15 
REMARK    3  A    between atoms: C_22  and  C_16 
ROOT
HETATM    1  C   UNK N   1      24.480  20.286   3.424  0.00  0.00     0.038 A 
HETATM    2  C   UNK N   1      25.660  19.599   3.607  0.00  0.00     0.033 A 
HETATM    3  C   UNK N   1      23.300  18.201   3.532  0.00  0.00     0.052 A 
HETATM    4  C   UNK N   1      26.639  15.254   3.461  0.00  0.00     0.197 C 
HETATM    5  C   UNK N   1      30.346  17.629   5.281  0.00  0.00     0.121 C 
HETATM    6  C   UNK N   1      23.281  19.595   3.422  0.00  0.00     0.103 A 
HETATM    7  C   UNK N   1      24.478  17.440   3.691  0.00  0.00     0.021 A 
HETATM    8  C   UNK N   1      29.077  17.396   4.912  0.00  0.00     0.118 A 
HETATM    9  C   UNK N   1      25.709  18.204   3.774  0.00  0.00     0.056 A 
HETATM   10  C   UNK N   1      27.341  16.302   4.190  0.00  0.00     0.110 A 
HETATM   11  C   UNK N   1      24.296  15.905   3.871  0.00  0.00     0.053 C 
HETATM   12  C   UNK N   1      28.057  18.352   4.569  0.00  0.00     0.282 A 
HETATM   13  N   UNK N   1      25.274  15.067   3.829  0.00  0.00    -0.381 N 
ATOM     14  HN  UNK N   1      25.033  14.114   4.102  1.00  0.00     0.160 HD
HETATM   15  N   UNK N   1      28.533  16.123   4.636  0.00  0.00    -0.339 N 
ATOM     16  HN  UNK N   1      29.000  15.226   4.768  1.00  0.00     0.167 HD
HETATM   17  N   UNK N   1      26.976  17.657   4.139  0.00  0.00    -0.264 N 
HETATM   18  O   UNK N   1      28.136  19.567   4.665  0.00  0.00    -0.265 OA
ENDROOT
BRANCH   5  19
HETATM   19  N   UNK N   1      31.232  16.549   5.544  0.00  0.00    -0.384 N 
HETATM   20  C   UNK N   1      31.302  15.979   6.869  0.00  0.00     0.152 C 
HETATM   21  C   UNK N   1      32.615  15.197   7.031  0.00  0.00     0.291 C 
HETATM   22  N   UNK N   1      33.750  15.930   6.446  0.00  0.00     0.087 N 
HETATM   23  C   UNK N   1      34.899  15.045   6.498  0.00  0.00     0.310 C 
HETATM   24  C   UNK N   1      33.578  16.267   5.025  0.00  0.00     0.291 C 
HETATM   25  C   UNK N   1      32.152  16.089   4.529  0.00  0.00     0.152 C 
ENDBRANCH   5  19
BRANCH  11  26
HETATM   26  C   UNK N   1      22.911  15.248   3.973  0.00  0.00     0.013 A 
HETATM   27  C   UNK N   1      22.288  14.720   2.827  0.00  0.00     0.015 A 
HETATM   28  C   UNK N   1      21.070  14.045   2.884  0.00  0.00     0.001 A 
HETATM   29  C   UNK N   1      20.429  13.872   4.103  0.00  0.00     0.002 A 
HETATM   30  C   UNK N   1      21.000  14.386   5.261  0.00  0.00     0.025 A 
HETATM   31  C   UNK N   1      22.223  15.067   5.224  0.00  0.00     0.046 A 
HETATM   32 Cl   UNK N   1      22.801  15.647   6.788  0.00  0.00    -0.083 Cl
ENDBRANCH  11  26
BRANCH   6  33
HETATM   33  N   UNK N   1      22.052  20.309   3.371  0.00  0.00    -0.116 N 
HETATM   34  O   UNK N   1      21.964  21.304   2.713  0.00  0.00    -0.532 OA
HETATM   35  O   UNK N   1      21.077  19.868   3.900  0.00  0.00    -0.532 OA
ENDBRANCH   6  33
TORSDOF 3
ENDMDL
MODEL 8
REMARK VINA RESULT:      -6.9     12.414     17.977
REMARK  3 active torsions:
REMARK  status: ('A' for Active; 'I' for Inactive)
REMARK    1  A    between atoms: N_30  and  C_14 
REMARK    2  A    between atoms: N_32  and  C_15 
REMARK    3  A    between atoms: C_22  and  C_16 
ROOT
HETATM    1  C   UNK N   1      38.640   8.226  15.728  0.00  0.00     0.038 A 
HETATM    2  C   UNK N   1      38.179   9.335  15.053  0.00  0.00     0.033 A 
HETATM    3  C   UNK N   1      37.047   8.673  17.463  0.00  0.00     0.052 A 
HETATM    4  C   UNK N   1      35.512  12.684  16.287  0.00  0.00     0.197 C 
HETATM    5  C   UNK N   1      36.148  12.853  11.569  0.00  0.00     0.121 C 
HETATM    6  C   UNK N   1      38.052   7.862  16.926  0.00  0.00     0.103 A 
HETATM    7  C   UNK N   1      36.554   9.836  16.836  0.00  0.00     0.021 A 
HETATM    8  C   UNK N   1      36.127  12.328  12.804  0.00  0.00     0.118 A 
HETATM    9  C   UNK N   1      37.135  10.140  15.540  0.00  0.00     0.056 A 
HETATM   10  C   UNK N   1      35.745  12.181  14.940  0.00  0.00     0.110 A 
HETATM   11  C   UNK N   1      35.383  10.570  17.550  0.00  0.00     0.053 C 
HETATM   12  C   UNK N   1      36.903  11.233  13.322  0.00  0.00     0.282 A 
HETATM   13  N   UNK N   1      34.966  11.740  17.205  0.00  0.00    -0.381 N 
ATOM     14  HN  UNK N   1      34.104  12.039  17.663  1.00  0.00     0.160 HD
HETATM   15  N   UNK N   1      35.427  12.870  13.903  0.00  0.00    -0.339 N 
ATOM     16  HN  UNK N   1      34.785  13.663  13.879  1.00  0.00     0.167 HD
HETATM   17  N   UNK N   1      36.641  11.140  14.648  0.00  0.00    -0.264 N 
HETATM   18  O   UNK N   1      37.646  10.501  12.685  0.00  0.00    -0.265 OA
ENDROOT
BRANCH   5  19
HETATM   19  N   UNK N   1      35.334  13.972  11.245  0.00  0.00    -0.384 N 
HETATM   20  C   UNK N   1      34.237  13.823  10.317  0.00  0.00     0.152 C 
HETATM   21  C   UNK N   1      33.829  15.199   9.767  0.00  0.00     0.291 C 
HETATM   22  N   UNK N   1      35.009  16.017   9.442  0.00  0.00     0.087 N 
HETATM   23  C   UNK N   1      34.526  17.340   9.096  0.00  0.00     0.310 C 
HETATM   24  C   UNK N   1      35.930  16.218  10.571  0.00  0.00     0.291 C 
HETATM   25  C   UNK N   1      35.661  15.288  11.744  0.00  0.00     0.152 C 
ENDBRANCH   5  19
BRANCH  11  26
HETATM   26  C   UNK N   1      34.720  10.017  18.820  0.00  0.00     0.013 A 
HETATM   27  C   UNK N   1      33.812   8.945  18.740  0.00  0.00     0.015 A 
HETATM   28  C   UNK N   1      33.247   8.359  19.871  0.00  0.00     0.001 A 
HETATM   29  C   UNK N   1      33.579   8.830  21.134  0.00  0.00     0.002 A 
HETATM   30  C   UNK N   1      34.463   9.894  21.264  0.00  0.00     0.025 A 
HETATM   31  C   UNK N   1      35.040  10.496  20.140  0.00  0.00     0.046 A 
HETATM   32 Cl   UNK N   1      36.141  11.829  20.491  0.00  0.00    -0.083 Cl
ENDBRANCH  11  26
BRANCH   6  33
HETATM   33  N   UNK N   1      38.428   6.644  17.559  0.00  0.00    -0.116 N 
HETATM   34  O   UNK N   1      37.707   6.144  18.373  0.00  0.00    -0.532 OA
HETATM   35  O   UNK N   1      39.410   6.063  17.210  0.00  0.00    -0.532 OA
ENDBRANCH   6  33
TORSDOF 3
ENDMDL
MODEL 9
REMARK VINA RESULT:      -6.8      2.789      3.761
REMARK  3 active torsions:
REMARK  status: ('A' for Active; 'I' for Inactive)
REMARK    1  A    between atoms: N_30  and  C_14 
REMARK    2  A    between atoms: N_32  and  C_15 
REMARK    3  A    between atoms: C_22  and  C_16 
ROOT
HETATM    1  C   UNK N   1      25.129  19.466   4.932  0.00  0.00     0.038 A 
HETATM    2  C   UNK N   1      26.419  19.017   5.113  0.00  0.00     0.033 A 
HETATM    3  C   UNK N   1      24.655  17.473   3.686  0.00  0.00     0.052 A 
HETATM    4  C   UNK N   1      28.710  15.686   3.240  0.00  0.00     0.197 C 
HETATM    5  C   UNK N   1      31.149  17.348   6.978  0.00  0.00     0.121 C 
HETATM    6  C   UNK N   1      24.222  18.679   4.245  0.00  0.00     0.103 A 
HETATM    7  C   UNK N   1      25.969  16.974   3.812  0.00  0.00     0.021 A 
HETATM    8  C   UNK N   1      30.093  17.123   6.182  0.00  0.00     0.118 A 
HETATM    9  C   UNK N   1      26.871  17.785   4.610  0.00  0.00     0.056 A 
HETATM   10  C   UNK N   1      28.924  16.289   4.548  0.00  0.00     0.110 A 
HETATM   11  C   UNK N   1      26.247  15.578   3.184  0.00  0.00     0.053 C 
HETATM   12  C   UNK N   1      28.896  17.909   6.042  0.00  0.00     0.282 A 
HETATM   13  N   UNK N   1      27.431  15.086   3.048  0.00  0.00    -0.381 N 
ATOM     14  HN  UNK N   1      27.457  14.110   2.754  1.00  0.00     0.160 HD
HETATM   15  N   UNK N   1      30.024  16.120   5.191  0.00  0.00    -0.339 N 
ATOM     16  HN  UNK N   1      30.719  15.393   5.018  1.00  0.00     0.167 HD
HETATM   17  N   UNK N   1      28.170  17.368   5.035  0.00  0.00    -0.264 N 
HETATM   18  O   UNK N   1      28.577  18.876   6.718  0.00  0.00    -0.265 OA
ENDROOT
BRANCH   5  19
HETATM   19  N   UNK N   1      32.273  16.478   6.954  0.00  0.00    -0.384 N 
HETATM   20  C   UNK N   1      33.384  16.758   6.075  0.00  0.00     0.152 C 
HETATM   21  C   UNK N   1      34.217  15.483   5.867  0.00  0.00     0.291 C 
HETATM   22  N   UNK N   1      33.356  14.306   5.670  0.00  0.00     0.087 N 
HETATM   23  C   UNK N   1      34.223  13.143   5.653  0.00  0.00     0.310 C 
HETATM   24  C   UNK N   1      32.404  14.070   6.766  0.00  0.00     0.291 C 
HETATM   25  C   UNK N   1      32.268  15.250   7.715  0.00  0.00     0.152 C 
ENDBRANCH   5  19
BRANCH  11  26
HETATM   26  C   UNK N   1      25.138  14.729   2.545  0.00  0.00     0.013 A 
HETATM   27  C   UNK N   1      24.863  14.837   1.169  0.00  0.00     0.015 A 
HETATM   28  C   UNK N   1      23.923  14.031   0.530  0.00  0.00     0.001 A 
HETATM   29  C   UNK N   1      23.219  13.079   1.255  0.00  0.00     0.002 A 
HETATM   30  C   UNK N   1      23.447  12.943   2.619  0.00  0.00     0.025 A 
HETATM   31  C   UNK N   1      24.388  13.743   3.278  0.00  0.00     0.046 A 
HETATM   32 Cl   UNK N   1      24.551  13.431   5.007  0.00  0.00    -0.083 Cl
ENDBRANCH  11  26
BRANCH   6  33
HETATM   33  N   UNK N   1      22.857  19.073   4.172  0.00  0.00    -0.116 N 
HETATM   34  O   UNK N   1      22.531  19.980   3.462  0.00  0.00    -0.532 OA
HETATM   35  O   UNK N   1      22.017  18.438   4.734  0.00  0.00    -0.532 OA
ENDBRANCH   6  33
TORSDOF 3
ENDMDL
