MODEL 1
REMARK VINA RESULT:      -6.4      0.000      0.000
REMARK  12 active torsions:
REMARK  status: ('A' for Active; 'I' for Inactive)
REMARK    1  A    between atoms: C_6  and  C_5 
REMARK    2  A    between atoms: N_17  and  C_5 
REMARK    3  A    between atoms: N_18  and  C_6 
REMARK    4  A    between atoms: C_14  and  C_11 
REMARK    5  A    between atoms: N_17  and  C_11 
REMARK    6  A    between atoms: C_14  and  C_12 
REMARK    7  A    between atoms: O_25  and  C_12 
REMARK    8  A    between atoms: O_21  and  C_13 
REMARK    9  A    between atoms: O_22  and  C_14 
REMARK   10  A    between atoms: O_25  and  C_15 
REMARK   11  A    between atoms: N_20  and  C_16 
REMARK   12  A    between atoms: O_23  and  C_16 
ROOT
HETATM    1  N   UNK N   1      36.490  14.454  11.968  0.00  0.00    -0.417 N 
HETATM    2  H   UNK N   1      36.087  15.268  12.434  0.00  0.00     0.153 HD
ENDROOT
BRANCH   1   3
HETATM    3  C   UNK N   1      36.824  14.373  10.551  0.00  0.00     0.133 C 
BRANCH   3   4
HETATM    4  C   UNK N   1      35.740  14.950   9.630  0.00  0.00     0.142 C 
BRANCH   4   5
HETATM    5  N   UNK N   1      34.403  14.748  10.141  0.00  0.00    -0.355 N 
HETATM    6  C   UNK N   1      33.318  15.295   9.686  0.00  0.00     0.215 C 
ATOM      7  HN  UNK N   1      34.302  14.117  10.936  1.00  0.00     0.163 HD
BRANCH   6   8
HETATM    8  N   UNK N   1      33.290  16.138   8.521  0.00  0.00    -0.344 N 
HETATM    9  C   UNK N   1      33.288  17.574   8.687  0.00  0.00     0.152 C 
HETATM   10  C   UNK N   1      34.425  18.134   7.828  0.00  0.00     0.187 C 
HETATM   11  O   UNK N   1      34.231  17.744   6.485  0.00  0.00    -0.388 OA
HETATM   12  C   UNK N   1      34.440  16.352   6.421  0.00  0.00     0.187 C 
HETATM   13  C   UNK N   1      33.314  15.637   7.164  0.00  0.00     0.152 C 
ENDBRANCH   6   8
BRANCH   6  14
HETATM   14  O   UNK N   1      32.167  15.060  10.345  0.00  0.00    -0.333 OA
HETATM   15  H   UNK N   1      31.687  14.267  10.210  0.00  0.00     0.220 HD
ENDBRANCH   6  14
ENDBRANCH   4   5
ENDBRANCH   3   4
ENDBRANCH   1   3
BRANCH   1  16
HETATM   16  C   UNK N   1      36.820  13.193  12.615  0.00  0.00     0.147 C 
BRANCH  16  17
HETATM   17  C   UNK N   1      35.532  12.409  12.807  0.00  0.00     0.159 C 
BRANCH  17  18
HETATM   18  C   UNK N   1      35.576  11.521  14.044  0.00  0.00     0.209 C 
BRANCH  18  19
HETATM   19  O   UNK N   1      34.608  11.913  14.944  0.00  0.00    -0.349 OA
BRANCH  19  20
HETATM   20  C   UNK N   1      34.870  12.107  16.255  0.00  0.00     0.069 A 
HETATM   21  C   UNK N   1      35.142  11.030  17.118  0.00  0.00     0.039 A 
HETATM   22  C   UNK N   1      35.403  11.263  18.472  0.00  0.00     0.039 A 
HETATM   23  C   UNK N   1      35.381  12.568  18.973  0.00  0.00     0.065 A 
HETATM   24  C   UNK N   1      35.108  13.641  18.119  0.00  0.00     0.039 A 
HETATM   25  C   UNK N   1      34.861  13.409  16.763  0.00  0.00     0.039 A 
BRANCH  23  26
HETATM   26  O   UNK N   1      35.619  12.792  20.275  0.00  0.00    -0.361 OA
HETATM   27  H   UNK N   1      35.357  13.580  20.707  0.00  0.00     0.217 HD
ENDBRANCH  23  26
ENDBRANCH  19  20
ENDBRANCH  18  19
ENDBRANCH  17  18
BRANCH  17  28
HETATM   28  O   UNK N   1      34.456  13.290  12.893  0.00  0.00    -0.392 OA
HETATM   29  H   UNK N   1      34.146  14.048  12.373  0.00  0.00     0.210 HD
ENDBRANCH  17  28
ENDBRANCH  16  17
ENDBRANCH   1  16
TORSDOF 12
ENDMDL
MODEL 2
REMARK VINA RESULT:      -6.3      1.410      2.287
REMARK  12 active torsions:
REMARK  status: ('A' for Active; 'I' for Inactive)
REMARK    1  A    between atoms: C_6  and  C_5 
REMARK    2  A    between atoms: N_17  and  C_5 
REMARK    3  A    between atoms: N_18  and  C_6 
REMARK    4  A    between atoms: C_14  and  C_11 
REMARK    5  A    between atoms: N_17  and  C_11 
REMARK    6  A    between atoms: C_14  and  C_12 
REMARK    7  A    between atoms: O_25  and  C_12 
REMARK    8  A    between atoms: O_21  and  C_13 
REMARK    9  A    between atoms: O_22  and  C_14 
REMARK   10  A    between atoms: O_25  and  C_15 
REMARK   11  A    between atoms: N_20  and  C_16 
REMARK   12  A    between atoms: O_23  and  C_16 
ROOT
HETATM    1  N   UNK N   1      36.642  14.747  11.689  0.00  0.00    -0.417 N 
HETATM    2  H   UNK N   1      36.929  15.333  12.474  0.00  0.00     0.153 HD
ENDROOT
BRANCH   1   3
HETATM    3  C   UNK N   1      36.214  15.238  10.383  0.00  0.00     0.133 C 
BRANCH   3   4
HETATM    4  C   UNK N   1      34.944  16.097  10.435  0.00  0.00     0.142 C 
BRANCH   4   5
HETATM    5  N   UNK N   1      35.145  17.429   9.909  0.00  0.00    -0.355 N 
HETATM    6  C   UNK N   1      34.713  17.876   8.770  0.00  0.00     0.215 C 
ATOM      7  HN  UNK N   1      35.676  18.079  10.488  1.00  0.00     0.163 HD
BRANCH   6   8
HETATM    8  N   UNK N   1      33.880  17.106   7.887  0.00  0.00    -0.344 N 
HETATM    9  C   UNK N   1      34.497  16.258   6.892  0.00  0.00     0.152 C 
HETATM   10  C   UNK N   1      33.894  14.859   7.048  0.00  0.00     0.187 C 
HETATM   11  O   UNK N   1      32.493  14.935   6.901  0.00  0.00    -0.388 OA
HETATM   12  C   UNK N   1      31.992  15.624   8.024  0.00  0.00     0.187 C 
HETATM   13  C   UNK N   1      32.435  17.084   7.959  0.00  0.00     0.152 C 
ENDBRANCH   6   8
BRANCH   6  14
HETATM   14  O   UNK N   1      35.072  19.121   8.404  0.00  0.00    -0.333 OA
HETATM   15  H   UNK N   1      34.706  19.873   8.826  0.00  0.00     0.220 HD
ENDBRANCH   6  14
ENDBRANCH   4   5
ENDBRANCH   3   4
ENDBRANCH   1   3
BRANCH   1  16
HETATM   16  C   UNK N   1      36.595  13.294  11.697  0.00  0.00     0.147 C 
BRANCH  16  17
HETATM   17  C   UNK N   1      35.613  12.859  12.772  0.00  0.00     0.159 C 
BRANCH  17  18
HETATM   18  C   UNK N   1      35.925  13.482  14.127  0.00  0.00     0.209 C 
BRANCH  18  19
HETATM   19  O   UNK N   1      34.869  13.289  14.992  0.00  0.00    -0.349 OA
BRANCH  19  20
HETATM   20  C   UNK N   1      35.043  12.917  16.280  0.00  0.00     0.069 A 
HETATM   21  C   UNK N   1      35.001  13.854  17.328  0.00  0.00     0.039 A 
HETATM   22  C   UNK N   1      35.190  13.438  18.649  0.00  0.00     0.039 A 
HETATM   23  C   UNK N   1      35.434  12.090  18.930  0.00  0.00     0.065 A 
HETATM   24  C   UNK N   1      35.478  11.157  17.890  0.00  0.00     0.039 A 
HETATM   25  C   UNK N   1      35.275  11.570  16.570  0.00  0.00     0.039 A 
BRANCH  23  26
HETATM   26  O   UNK N   1      35.627  11.692  20.197  0.00  0.00    -0.361 OA
HETATM   27  H   UNK N   1      35.764  12.297  20.899  0.00  0.00     0.217 HD
ENDBRANCH  23  26
ENDBRANCH  19  20
ENDBRANCH  18  19
ENDBRANCH  17  18
BRANCH  17  28
HETATM   28  O   UNK N   1      34.317  13.190  12.385  0.00  0.00    -0.392 OA
HETATM   29  H   UNK N   1      33.787  14.003  12.382  0.00  0.00     0.210 HD
ENDBRANCH  17  28
ENDBRANCH  16  17
ENDBRANCH   1  16
TORSDOF 12
ENDMDL
MODEL 3
REMARK VINA RESULT:      -5.9     14.206     17.306
REMARK  12 active torsions:
REMARK  status: ('A' for Active; 'I' for Inactive)
REMARK    1  A    between atoms: C_6  and  C_5 
REMARK    2  A    between atoms: N_17  and  C_5 
REMARK    3  A    between atoms: N_18  and  C_6 
REMARK    4  A    between atoms: C_14  and  C_11 
REMARK    5  A    between atoms: N_17  and  C_11 
REMARK    6  A    between atoms: C_14  and  C_12 
REMARK    7  A    between atoms: O_25  and  C_12 
REMARK    8  A    between atoms: O_21  and  C_13 
REMARK    9  A    between atoms: O_22  and  C_14 
REMARK   10  A    between atoms: O_25  and  C_15 
REMARK   11  A    between atoms: N_20  and  C_16 
REMARK   12  A    between atoms: O_23  and  C_16 
ROOT
HETATM    1  N   UNK N   1      19.514  17.176   3.111  0.00  0.00    -0.417 N 
HETATM    2  H   UNK N   1      18.859  17.478   3.833  0.00  0.00     0.153 HD
ENDROOT
BRANCH   1   3
HETATM    3  C   UNK N   1      20.029  15.821   2.955  0.00  0.00     0.133 C 
BRANCH   3   4
HETATM    4  C   UNK N   1      20.661  15.251   4.233  0.00  0.00     0.142 C 
BRANCH   4   5
HETATM    5  N   UNK N   1      21.442  16.228   4.957  0.00  0.00    -0.355 N 
HETATM    6  C   UNK N   1      21.297  16.553   6.204  0.00  0.00     0.215 C 
ATOM      7  HN  UNK N   1      22.177  16.709   4.438  1.00  0.00     0.163 HD
BRANCH   6   8
HETATM    8  N   UNK N   1      20.363  15.904   7.083  0.00  0.00    -0.344 N 
HETATM    9  C   UNK N   1      20.731  14.652   7.706  0.00  0.00     0.152 C 
HETATM   10  C   UNK N   1      20.499  14.806   9.212  0.00  0.00     0.187 C 
HETATM   11  O   UNK N   1      19.149  15.149   9.443  0.00  0.00    -0.388 OA
HETATM   12  C   UNK N   1      18.963  16.459   8.957  0.00  0.00     0.187 C 
HETATM   13  C   UNK N   1      19.071  16.452   7.433  0.00  0.00     0.152 C 
ENDBRANCH   6   8
BRANCH   6  14
HETATM   14  O   UNK N   1      22.060  17.551   6.690  0.00  0.00    -0.333 OA
HETATM   15  H   UNK N   1      22.448  17.493   7.540  0.00  0.00     0.220 HD
ENDBRANCH   6  14
ENDBRANCH   4   5
ENDBRANCH   3   4
ENDBRANCH   1   3
BRANCH   1  16
HETATM   16  C   UNK N   1      20.081  18.030   2.079  0.00  0.00     0.147 C 
BRANCH  16  17
HETATM   17  C   UNK N   1      20.019  19.467   2.568  0.00  0.00     0.159 C 
BRANCH  17  18
HETATM   18  C   UNK N   1      20.980  19.728   3.721  0.00  0.00     0.209 C 
BRANCH  18  19
HETATM   19  O   UNK N   1      21.997  18.798   3.710  0.00  0.00    -0.349 OA
BRANCH  19  20
HETATM   20  C   UNK N   1      23.300  19.145   3.623  0.00  0.00     0.069 A 
HETATM   21  C   UNK N   1      23.702  20.351   3.019  0.00  0.00     0.039 A 
HETATM   22  C   UNK N   1      25.058  20.679   2.939  0.00  0.00     0.039 A 
HETATM   23  C   UNK N   1      26.020  19.801   3.449  0.00  0.00     0.065 A 
HETATM   24  C   UNK N   1      25.625  18.601   4.048  0.00  0.00     0.039 A 
HETATM   25  C   UNK N   1      24.268  18.280   4.140  0.00  0.00     0.039 A 
BRANCH  23  26
HETATM   26  O   UNK N   1      27.324  20.110   3.363  0.00  0.00    -0.361 OA
HETATM   27  H   UNK N   1      27.672  20.633   2.668  0.00  0.00     0.217 HD
ENDBRANCH  23  26
ENDBRANCH  19  20
ENDBRANCH  18  19
ENDBRANCH  17  18
BRANCH  17  28
HETATM   28  O   UNK N   1      20.298  20.333   1.513  0.00  0.00    -0.392 OA
HETATM   29  H   UNK N   1      21.106  20.656   1.084  0.00  0.00     0.210 HD
ENDBRANCH  17  28
ENDBRANCH  16  17
ENDBRANCH   1  16
TORSDOF 12
ENDMDL
MODEL 4
REMARK VINA RESULT:      -5.9      3.672      8.533
REMARK  12 active torsions:
REMARK  status: ('A' for Active; 'I' for Inactive)
REMARK    1  A    between atoms: C_6  and  C_5 
REMARK    2  A    between atoms: N_17  and  C_5 
REMARK    3  A    between atoms: N_18  and  C_6 
REMARK    4  A    between atoms: C_14  and  C_11 
REMARK    5  A    between atoms: N_17  and  C_11 
REMARK    6  A    between atoms: C_14  and  C_12 
REMARK    7  A    between atoms: O_25  and  C_12 
REMARK    8  A    between atoms: O_21  and  C_13 
REMARK    9  A    between atoms: O_22  and  C_14 
REMARK   10  A    between atoms: O_25  and  C_15 
REMARK   11  A    between atoms: N_20  and  C_16 
REMARK   12  A    between atoms: O_23  and  C_16 
ROOT
HETATM    1  N   UNK N   1      32.611  12.979   9.061  0.00  0.00    -0.417 N 
HETATM    2  H   UNK N   1      31.811  12.971   9.694  0.00  0.00     0.153 HD
ENDROOT
BRANCH   1   3
HETATM    3  C   UNK N   1      33.501  11.850   8.813  0.00  0.00     0.133 C 
BRANCH   3   4
HETATM    4  C   UNK N   1      34.606  11.695   9.868  0.00  0.00     0.142 C 
BRANCH   4   5
HETATM    5  N   UNK N   1      34.227  12.220  11.160  0.00  0.00    -0.355 N 
HETATM    6  C   UNK N   1      34.972  12.938  11.943  0.00  0.00     0.215 C 
ATOM      7  HN  UNK N   1      33.285  12.006  11.488  1.00  0.00     0.163 HD
BRANCH   6   8
HETATM    8  N   UNK N   1      36.287  13.390  11.582  0.00  0.00    -0.344 N 
HETATM    9  C   UNK N   1      37.430  12.560  11.890  0.00  0.00     0.152 C 
HETATM   10  C   UNK N   1      38.230  12.386  10.595  0.00  0.00     0.187 C 
HETATM   11  O   UNK N   1      38.600  13.655  10.101  0.00  0.00    -0.388 OA
HETATM   12  C   UNK N   1      37.421  14.293   9.663  0.00  0.00     0.187 C 
HETATM   13  C   UNK N   1      36.548  14.623  10.872  0.00  0.00     0.152 C 
ENDBRANCH   6   8
BRANCH   6  14
HETATM   14  O   UNK N   1      34.481  13.267  13.154  0.00  0.00    -0.333 OA
HETATM   15  H   UNK N   1      33.612  13.603  13.248  0.00  0.00     0.220 HD
ENDBRANCH   6  14
ENDBRANCH   4   5
ENDBRANCH   3   4
ENDBRANCH   1   3
BRANCH   1  16
HETATM   16  C   UNK N   1      33.043  14.117   8.264  0.00  0.00     0.147 C 
BRANCH  16  17
HETATM   17  C   UNK N   1      33.319  15.275   9.207  0.00  0.00     0.159 C 
BRANCH  17  18
HETATM   18  C   UNK N   1      32.853  16.609   8.636  0.00  0.00     0.209 C 
BRANCH  18  19
HETATM   19  O   UNK N   1      31.760  16.419   7.819  0.00  0.00    -0.349 OA
BRANCH  19  20
HETATM   20  C   UNK N   1      30.632  17.154   7.929  0.00  0.00     0.069 A 
HETATM   21  C   UNK N   1      29.685  17.211   6.890  0.00  0.00     0.039 A 
HETATM   22  C   UNK N   1      28.531  17.986   7.033  0.00  0.00     0.039 A 
HETATM   23  C   UNK N   1      28.321  18.718   8.206  0.00  0.00     0.065 A 
HETATM   24  C   UNK N   1      29.261  18.666   9.240  0.00  0.00     0.039 A 
HETATM   25  C   UNK N   1      30.408  17.880   9.103  0.00  0.00     0.039 A 
BRANCH  23  26
HETATM   26  O   UNK N   1      27.219  19.472   8.340  0.00  0.00    -0.361 OA
HETATM   27  H   UNK N   1      26.917  19.779   9.171  0.00  0.00     0.217 HD
ENDBRANCH  23  26
ENDBRANCH  19  20
ENDBRANCH  18  19
ENDBRANCH  17  18
BRANCH  17  28
HETATM   28  O   UNK N   1      32.699  15.041  10.432  0.00  0.00    -0.392 OA
HETATM   29  H   UNK N   1      32.759  15.433  11.318  0.00  0.00     0.210 HD
ENDBRANCH  17  28
ENDBRANCH  16  17
ENDBRANCH   1  16
TORSDOF 12
ENDMDL
MODEL 5
REMARK VINA RESULT:      -5.7      1.661      2.279
REMARK  12 active torsions:
REMARK  status: ('A' for Active; 'I' for Inactive)
REMARK    1  A    between atoms: C_6  and  C_5 
REMARK    2  A    between atoms: N_17  and  C_5 
REMARK    3  A    between atoms: N_18  and  C_6 
REMARK    4  A    between atoms: C_14  and  C_11 
REMARK    5  A    between atoms: N_17  and  C_11 
REMARK    6  A    between atoms: C_14  and  C_12 
REMARK    7  A    between atoms: O_25  and  C_12 
REMARK    8  A    between atoms: O_21  and  C_13 
REMARK    9  A    between atoms: O_22  and  C_14 
REMARK   10  A    between atoms: O_25  and  C_15 
REMARK   11  A    between atoms: N_20  and  C_16 
REMARK   12  A    between atoms: O_23  and  C_16 
ROOT
HETATM    1  N   UNK N   1      34.306  14.063  11.119  0.00  0.00    -0.417 N 
HETATM    2  H   UNK N   1      33.702  13.705  11.859  0.00  0.00     0.153 HD
ENDROOT
BRANCH   1   3
HETATM    3  C   UNK N   1      33.977  15.163  10.220  0.00  0.00     0.133 C 
BRANCH   3   4
HETATM    4  C   UNK N   1      32.824  14.846   9.256  0.00  0.00     0.142 C 
BRANCH   4   5
HETATM    5  N   UNK N   1      31.640  15.632   9.519  0.00  0.00    -0.355 N 
HETATM    6  C   UNK N   1      31.333  16.764   8.963  0.00  0.00     0.215 C 
ATOM      7  HN  UNK N   1      30.984  15.264  10.207  1.00  0.00     0.163 HD
BRANCH   6   8
HETATM    8  N   UNK N   1      32.115  17.365   7.917  0.00  0.00    -0.344 N 
HETATM    9  C   UNK N   1      33.154  18.308   8.264  0.00  0.00     0.152 C 
HETATM   10  C   UNK N   1      34.442  17.841   7.580  0.00  0.00     0.187 C 
HETATM   11  O   UNK N   1      34.228  17.759   6.187  0.00  0.00    -0.388 OA
HETATM   12  C   UNK N   1      33.341  16.686   5.964  0.00  0.00     0.187 C 
HETATM   13  C   UNK N   1      31.963  17.047   6.514  0.00  0.00     0.152 C 
ENDBRANCH   6   8
BRANCH   6  14
HETATM   14  O   UNK N   1      30.228  17.401   9.397  0.00  0.00    -0.333 OA
HETATM   15  H   UNK N   1      30.008  18.255   9.081  0.00  0.00     0.220 HD
ENDBRANCH   6  14
ENDBRANCH   4   5
ENDBRANCH   3   4
ENDBRANCH   1   3
BRANCH   1  16
HETATM   16  C   UNK N   1      35.630  13.555  10.795  0.00  0.00     0.147 C 
BRANCH  16  17
HETATM   17  C   UNK N   1      36.492  13.656  12.042  0.00  0.00     0.159 C 
BRANCH  17  18
HETATM   18  C   UNK N   1      35.987  12.762  13.168  0.00  0.00     0.209 C 
BRANCH  18  19
HETATM   19  O   UNK N   1      36.510  13.177  14.374  0.00  0.00    -0.349 OA
BRANCH  19  20
HETATM   20  C   UNK N   1      36.140  12.633  15.554  0.00  0.00     0.069 A 
HETATM   21  C   UNK N   1      35.490  13.393  16.543  0.00  0.00     0.039 A 
HETATM   22  C   UNK N   1      35.125  12.802  17.756  0.00  0.00     0.039 A 
HETATM   23  C   UNK N   1      35.418  11.455  17.993  0.00  0.00     0.065 A 
HETATM   24  C   UNK N   1      36.065  10.697  17.013  0.00  0.00     0.039 A 
HETATM   25  C   UNK N   1      36.418  11.284  15.795  0.00  0.00     0.039 A 
BRANCH  23  26
HETATM   26  O   UNK N   1      35.078  10.889  19.162  0.00  0.00    -0.361 OA
HETATM   27  H   UNK N   1      34.756  10.012  19.222  0.00  0.00     0.217 HD
ENDBRANCH  23  26
ENDBRANCH  19  20
ENDBRANCH  18  19
ENDBRANCH  17  18
BRANCH  17  28
HETATM   28  O   UNK N   1      37.809  13.325  11.729  0.00  0.00    -0.392 OA
HETATM   29  H   UNK N   1      38.286  12.500  11.547  0.00  0.00     0.210 HD
ENDBRANCH  17  28
ENDBRANCH  16  17
ENDBRANCH   1  16
TORSDOF 12
ENDMDL
MODEL 6
REMARK VINA RESULT:      -5.6      4.650     10.795
REMARK  12 active torsions:
REMARK  status: ('A' for Active; 'I' for Inactive)
REMARK    1  A    between atoms: C_6  and  C_5 
REMARK    2  A    between atoms: N_17  and  C_5 
REMARK    3  A    between atoms: N_18  and  C_6 
REMARK    4  A    between atoms: C_14  and  C_11 
REMARK    5  A    between atoms: N_17  and  C_11 
REMARK    6  A    between atoms: C_14  and  C_12 
REMARK    7  A    between atoms: O_25  and  C_12 
REMARK    8  A    between atoms: O_21  and  C_13 
REMARK    9  A    between atoms: O_22  and  C_14 
REMARK   10  A    between atoms: O_25  and  C_15 
REMARK   11  A    between atoms: N_20  and  C_16 
REMARK   12  A    between atoms: O_23  and  C_16 
ROOT
HETATM    1  N   UNK N   1      30.803  16.720   8.283  0.00  0.00    -0.417 N 
HETATM    2  H   UNK N   1      30.071  16.321   7.695  0.00  0.00     0.153 HD
ENDROOT
BRANCH   1   3
HETATM    3  C   UNK N   1      31.937  15.985   8.833  0.00  0.00     0.133 C 
BRANCH   3   4
HETATM    4  C   UNK N   1      33.248  16.215   8.069  0.00  0.00     0.142 C 
BRANCH   4   5
HETATM    5  N   UNK N   1      34.154  17.102   8.763  0.00  0.00    -0.355 N 
HETATM    6  C   UNK N   1      34.987  16.767   9.699  0.00  0.00     0.215 C 
ATOM      7  HN  UNK N   1      34.136  18.085   8.492  1.00  0.00     0.163 HD
BRANCH   6   8
HETATM    8  N   UNK N   1      35.186  15.409  10.127  0.00  0.00    -0.344 N 
HETATM    9  C   UNK N   1      36.155  14.586   9.439  0.00  0.00     0.152 C 
HETATM   10  C   UNK N   1      37.088  13.995  10.501  0.00  0.00     0.187 C 
HETATM   11  O   UNK N   1      36.326  13.266  11.438  0.00  0.00    -0.388 OA
HETATM   12  C   UNK N   1      35.560  14.197  12.169  0.00  0.00     0.187 C 
HETATM   13  C   UNK N   1      34.504  14.811  11.253  0.00  0.00     0.152 C 
ENDBRANCH   6   8
BRANCH   6  14
HETATM   14  O   UNK N   1      35.694  17.746  10.296  0.00  0.00    -0.333 OA
HETATM   15  H   UNK N   1      35.546  18.647  10.085  0.00  0.00     0.220 HD
ENDBRANCH   6  14
ENDBRANCH   4   5
ENDBRANCH   3   4
ENDBRANCH   1   3
BRANCH   1  16
HETATM   16  C   UNK N   1      30.880  18.110   8.703  0.00  0.00     0.147 C 
BRANCH  16  17
HETATM   17  C   UNK N   1      29.654  18.418   9.545  0.00  0.00     0.159 C 
BRANCH  17  18
HETATM   18  C   UNK N   1      28.416  18.671   8.692  0.00  0.00     0.209 C 
BRANCH  18  19
HETATM   19  O   UNK N   1      28.625  18.219   7.407  0.00  0.00    -0.349 OA
BRANCH  19  20
HETATM   20  C   UNK N   1      28.077  18.818   6.327  0.00  0.00     0.069 A 
HETATM   21  C   UNK N   1      27.998  18.164   5.084  0.00  0.00     0.039 A 
HETATM   22  C   UNK N   1      27.432  18.814   3.983  0.00  0.00     0.039 A 
HETATM   23  C   UNK N   1      26.953  20.121   4.114  0.00  0.00     0.065 A 
HETATM   24  C   UNK N   1      27.031  20.774   5.347  0.00  0.00     0.039 A 
HETATM   25  C   UNK N   1      27.585  20.120   6.451  0.00  0.00     0.039 A 
BRANCH  23  26
HETATM   26  O   UNK N   1      26.419  20.749   3.055  0.00  0.00    -0.361 OA
HETATM   27  H   UNK N   1      26.703  20.587   2.177  0.00  0.00     0.217 HD
ENDBRANCH  23  26
ENDBRANCH  19  20
ENDBRANCH  18  19
ENDBRANCH  17  18
BRANCH  17  28
HETATM   28  O   UNK N   1      29.415  17.367  10.427  0.00  0.00    -0.392 OA
HETATM   29  H   UNK N   1      29.382  17.275  11.393  0.00  0.00     0.210 HD
ENDBRANCH  17  28
ENDBRANCH  16  17
ENDBRANCH   1  16
TORSDOF 12
ENDMDL
MODEL 7
REMARK VINA RESULT:      -5.6      2.993      9.090
REMARK  12 active torsions:
REMARK  status: ('A' for Active; 'I' for Inactive)
REMARK    1  A    between atoms: C_6  and  C_5 
REMARK    2  A    between atoms: N_17  and  C_5 
REMARK    3  A    between atoms: N_18  and  C_6 
REMARK    4  A    between atoms: C_14  and  C_11 
REMARK    5  A    between atoms: N_17  and  C_11 
REMARK    6  A    between atoms: C_14  and  C_12 
REMARK    7  A    between atoms: O_25  and  C_12 
REMARK    8  A    between atoms: O_21  and  C_13 
REMARK    9  A    between atoms: O_22  and  C_14 
REMARK   10  A    between atoms: O_25  and  C_15 
REMARK   11  A    between atoms: N_20  and  C_16 
REMARK   12  A    between atoms: O_23  and  C_16 
ROOT
HETATM    1  N   UNK N   1      33.998  14.990   6.728  0.00  0.00    -0.417 N 
HETATM    2  H   UNK N   1      33.086  14.645   7.029  0.00  0.00     0.153 HD
ENDROOT
BRANCH   1   3
HETATM    3  C   UNK N   1      35.277  14.349   7.010  0.00  0.00     0.133 C 
BRANCH   3   4
HETATM    4  C   UNK N   1      35.444  13.930   8.478  0.00  0.00     0.142 C 
BRANCH   4   5
HETATM    5  N   UNK N   1      34.484  14.562   9.355  0.00  0.00    -0.355 N 
HETATM    6  C   UNK N   1      34.361  14.357  10.630  0.00  0.00     0.215 C 
ATOM      7  HN  UNK N   1      33.842  15.232   8.932  1.00  0.00     0.163 HD
BRANCH   6   8
HETATM    8  N   UNK N   1      35.246  13.508  11.380  0.00  0.00    -0.344 N 
HETATM    9  C   UNK N   1      36.393  14.089  12.039  0.00  0.00     0.152 C 
HETATM   10  C   UNK N   1      36.353  13.643  13.504  0.00  0.00     0.187 C 
HETATM   11  O   UNK N   1      36.352  12.233  13.563  0.00  0.00    -0.388 OA
HETATM   12  C   UNK N   1      35.109  11.796  13.062  0.00  0.00     0.187 C 
HETATM   13  C   UNK N   1      35.036  12.089  11.565  0.00  0.00     0.152 C 
ENDBRANCH   6   8
BRANCH   6  14
HETATM   14  O   UNK N   1      33.349  14.970  11.273  0.00  0.00    -0.333 OA
HETATM   15  H   UNK N   1      32.647  14.478  11.650  0.00  0.00     0.220 HD
ENDBRANCH   6  14
ENDBRANCH   4   5
ENDBRANCH   3   4
ENDBRANCH   1   3
BRANCH   1  16
HETATM   16  C   UNK N   1      34.225  16.198   5.950  0.00  0.00     0.147 C 
BRANCH  16  17
HETATM   17  C   UNK N   1      33.584  17.362   6.687  0.00  0.00     0.159 C 
BRANCH  17  18
HETATM   18  C   UNK N   1      32.704  16.901   7.842  0.00  0.00     0.209 C 
BRANCH  18  19
HETATM   19  O   UNK N   1      31.457  16.544   7.375  0.00  0.00    -0.349 OA
BRANCH  19  20
HETATM   20  C   UNK N   1      30.366  17.322   7.547  0.00  0.00     0.069 A 
HETATM   21  C   UNK N   1      29.467  17.572   6.494  0.00  0.00     0.039 A 
HETATM   22  C   UNK N   1      28.350  18.387   6.702  0.00  0.00     0.039 A 
HETATM   23  C   UNK N   1      28.131  18.965   7.956  0.00  0.00     0.065 A 
HETATM   24  C   UNK N   1      29.023  18.721   9.005  0.00  0.00     0.039 A 
HETATM   25  C   UNK N   1      30.132  17.895   8.801  0.00  0.00     0.039 A 
BRANCH  23  26
HETATM   26  O   UNK N   1      27.065  19.757   8.154  0.00  0.00    -0.361 OA
HETATM   27  H   UNK N   1      26.894  20.511   7.626  0.00  0.00     0.217 HD
ENDBRANCH  23  26
ENDBRANCH  19  20
ENDBRANCH  18  19
ENDBRANCH  17  18
BRANCH  17  28
HETATM   28  O   UNK N   1      34.573  18.221   7.158  0.00  0.00    -0.392 OA
HETATM   29  H   UNK N   1      34.587  19.006   7.730  0.00  0.00     0.210 HD
ENDBRANCH  17  28
ENDBRANCH  16  17
ENDBRANCH   1  16
TORSDOF 12
ENDMDL
MODEL 8
REMARK VINA RESULT:      -5.5     18.564     22.053
REMARK  12 active torsions:
REMARK  status: ('A' for Active; 'I' for Inactive)
REMARK    1  A    between atoms: C_6  and  C_5 
REMARK    2  A    between atoms: N_17  and  C_5 
REMARK    3  A    between atoms: N_18  and  C_6 
REMARK    4  A    between atoms: C_14  and  C_11 
REMARK    5  A    between atoms: N_17  and  C_11 
REMARK    6  A    between atoms: C_14  and  C_12 
REMARK    7  A    between atoms: O_25  and  C_12 
REMARK    8  A    between atoms: O_21  and  C_13 
REMARK    9  A    between atoms: O_22  and  C_14 
REMARK   10  A    between atoms: O_25  and  C_15 
REMARK   11  A    between atoms: N_20  and  C_16 
REMARK   12  A    between atoms: O_23  and  C_16 
ROOT
HETATM    1  N   UNK N   1      27.039  24.840  -8.098  0.00  0.00    -0.417 N 
HETATM    2  H   UNK N   1      27.990  25.147  -7.889  0.00  0.00     0.153 HD
ENDROOT
BRANCH   1   3
HETATM    3  C   UNK N   1      25.854  25.689  -8.068  0.00  0.00     0.133 C 
BRANCH   3   4
HETATM    4  C   UNK N   1      25.531  26.246  -6.675  0.00  0.00     0.142 C 
BRANCH   4   5
HETATM    5  N   UNK N   1      25.510  25.224  -5.653  0.00  0.00    -0.355 N 
HETATM    6  C   UNK N   1      26.024  25.317  -4.465  0.00  0.00     0.215 C 
ATOM      7  HN  UNK N   1      25.048  24.345  -5.887  1.00  0.00     0.163 HD
BRANCH   6   8
HETATM    8  N   UNK N   1      26.631  26.520  -3.963  0.00  0.00    -0.344 N 
HETATM    9  C   UNK N   1      28.049  26.727  -4.147  0.00  0.00     0.152 C 
HETATM   10  C   UNK N   1      28.229  28.104  -4.792  0.00  0.00     0.187 C 
HETATM   11  O   UNK N   1      27.642  29.087  -3.966  0.00  0.00    -0.388 OA
HETATM   12  C   UNK N   1      26.247  28.892  -4.015  0.00  0.00     0.187 C 
HETATM   13  C   UNK N   1      25.895  27.583  -3.314  0.00  0.00     0.152 C 
ENDBRANCH   6   8
BRANCH   6  14
HETATM   14  O   UNK N   1      25.987  24.228  -3.673  0.00  0.00    -0.333 OA
HETATM   15  H   UNK N   1      26.752  23.934  -3.221  0.00  0.00     0.220 HD
ENDBRANCH   6  14
ENDBRANCH   4   5
ENDBRANCH   3   4
ENDBRANCH   1   3
BRANCH   1  16
HETATM   16  C   UNK N   1      26.655  23.488  -8.472  0.00  0.00     0.147 C 
BRANCH  16  17
HETATM   17  C   UNK N   1      26.951  22.571  -7.298  0.00  0.00     0.159 C 
BRANCH  17  18
HETATM   18  C   UNK N   1      28.173  23.020  -6.507  0.00  0.00     0.209 C 
BRANCH  18  19
HETATM   19  O   UNK N   1      29.069  21.979  -6.389  0.00  0.00    -0.349 OA
BRANCH  19  20
HETATM   20  C   UNK N   1      29.871  21.828  -5.311  0.00  0.00     0.069 A 
HETATM   21  C   UNK N   1      29.804  22.706  -4.215  0.00  0.00     0.039 A 
HETATM   22  C   UNK N   1      30.652  22.527  -3.118  0.00  0.00     0.039 A 
HETATM   23  C   UNK N   1      31.578  21.479  -3.115  0.00  0.00     0.065 A 
HETATM   24  C   UNK N   1      31.649  20.605  -4.204  0.00  0.00     0.039 A 
HETATM   25  C   UNK N   1      30.792  20.776  -5.294  0.00  0.00     0.039 A 
BRANCH  23  26
HETATM   26  O   UNK N   1      32.400  21.313  -2.067  0.00  0.00    -0.361 OA
HETATM   27  H   UNK N   1      33.218  20.860  -2.135  0.00  0.00     0.217 HD
ENDBRANCH  23  26
ENDBRANCH  19  20
ENDBRANCH  18  19
ENDBRANCH  17  18
BRANCH  17  28
HETATM   28  O   UNK N   1      25.840  22.510  -6.460  0.00  0.00    -0.392 OA
HETATM   29  H   UNK N   1      25.235  23.163  -6.072  0.00  0.00     0.210 HD
ENDBRANCH  17  28
ENDBRANCH  16  17
ENDBRANCH   1  16
TORSDOF 12
ENDMDL
MODEL 9
REMARK VINA RESULT:      -5.5     18.485     22.555
REMARK  12 active torsions:
REMARK  status: ('A' for Active; 'I' for Inactive)
REMARK    1  A    between atoms: C_6  and  C_5 
REMARK    2  A    between atoms: N_17  and  C_5 
REMARK    3  A    between atoms: N_18  and  C_6 
REMARK    4  A    between atoms: C_14  and  C_11 
REMARK    5  A    between atoms: N_17  and  C_11 
REMARK    6  A    between atoms: C_14  and  C_12 
REMARK    7  A    between atoms: O_25  and  C_12 
REMARK    8  A    between atoms: O_21  and  C_13 
REMARK    9  A    between atoms: O_22  and  C_14 
REMARK   10  A    between atoms: O_25  and  C_15 
REMARK   11  A    between atoms: N_20  and  C_16 
REMARK   12  A    between atoms: O_23  and  C_16 
ROOT
HETATM    1  N   UNK N   1      27.910  22.360  -8.068  0.00  0.00    -0.417 N 
HETATM    2  H   UNK N   1      28.288  23.256  -8.377  0.00  0.00     0.153 HD
ENDROOT
BRANCH   1   3
HETATM    3  C   UNK N   1      28.583  21.425  -7.174  0.00  0.00     0.133 C 
BRANCH   3   4
HETATM    4  C   UNK N   1      29.401  22.109  -6.070  0.00  0.00     0.142 C 
BRANCH   4   5
HETATM    5  N   UNK N   1      29.991  23.357  -6.500  0.00  0.00    -0.355 N 
HETATM    6  C   UNK N   1      30.629  24.201  -5.750  0.00  0.00     0.215 C 
ATOM      7  HN  UNK N   1      29.897  23.597  -7.487  1.00  0.00     0.163 HD
BRANCH   6   8
HETATM    8  N   UNK N   1      30.916  23.960  -4.362  0.00  0.00    -0.344 N 
HETATM    9  C   UNK N   1      30.028  24.494  -3.353  0.00  0.00     0.152 C 
HETATM   10  C   UNK N   1      29.632  23.334  -2.434  0.00  0.00     0.187 C 
HETATM   11  O   UNK N   1      30.796  22.759  -1.881  0.00  0.00    -0.388 OA
HETATM   12  C   UNK N   1      31.482  22.114  -2.930  0.00  0.00     0.187 C 
HETATM   13  C   UNK N   1      32.029  23.163  -3.896  0.00  0.00     0.152 C 
ENDBRANCH   6   8
BRANCH   6  14
HETATM   14  O   UNK N   1      31.036  25.359  -6.306  0.00  0.00    -0.333 OA
HETATM   15  H   UNK N   1      30.960  25.505  -7.228  0.00  0.00     0.220 HD
ENDBRANCH   6  14
ENDBRANCH   4   5
ENDBRANCH   3   4
ENDBRANCH   1   3
BRANCH   1  16
HETATM   16  C   UNK N   1      26.617  21.816  -8.451  0.00  0.00     0.147 C 
BRANCH  16  17
HETATM   17  C   UNK N   1      25.545  22.537  -7.651  0.00  0.00     0.159 C 
BRANCH  17  18
HETATM   18  C   UNK N   1      26.046  23.851  -7.065  0.00  0.00     0.209 C 
BRANCH  18  19
HETATM   19  O   UNK N   1      25.229  24.250  -6.030  0.00  0.00    -0.349 OA
BRANCH  19  20
HETATM   20  C   UNK N   1      25.492  25.339  -5.274  0.00  0.00     0.069 A 
HETATM   21  C   UNK N   1      26.270  25.254  -4.105  0.00  0.00     0.039 A 
HETATM   22  C   UNK N   1      26.518  26.398  -3.341  0.00  0.00     0.039 A 
HETATM   23  C   UNK N   1      25.982  27.629  -3.732  0.00  0.00     0.065 A 
HETATM   24  C   UNK N   1      25.207  27.717  -4.892  0.00  0.00     0.039 A 
HETATM   25  C   UNK N   1      24.970  26.576  -5.663  0.00  0.00     0.039 A 
BRANCH  23  26
HETATM   26  O   UNK N   1      26.210  28.726  -2.993  0.00  0.00    -0.361 OA
HETATM   27  H   UNK N   1      27.053  29.132  -2.943  0.00  0.00     0.217 HD
ENDBRANCH  23  26
ENDBRANCH  19  20
ENDBRANCH  18  19
ENDBRANCH  17  18
BRANCH  17  28
HETATM   28  O   UNK N   1      24.435  22.771  -8.459  0.00  0.00    -0.392 OA
HETATM   29  H   UNK N   1      24.018  23.559  -8.842  0.00  0.00     0.210 HD
ENDBRANCH  17  28
ENDBRANCH  16  17
ENDBRANCH   1  16
TORSDOF 12
ENDMDL
