MODEL 1
REMARK VINA RESULT:      -6.0      0.000      0.000
REMARK  2 active torsions:
REMARK  status: ('A' for Active; 'I' for Inactive)
REMARK    1  A    between atoms: C_11  and  C_2 
REMARK    2  A    between atoms: O_13  and  C_9 
ROOT
HETATM    1  O   UNK N   1      28.208  23.388  -5.320  0.00  0.00    -0.312 OA
HETATM    2  C   UNK N   1      27.760  24.368  -4.556  0.00  0.00     0.059 A 
HETATM    3  C   UNK N   1      29.227  22.834  -4.711  0.00  0.00     0.103 A 
HETATM    4  C   UNK N   1      29.450  23.457  -3.517  0.00  0.00     0.004 A 
HETATM    5  C   UNK N   1      28.522  24.464  -3.390  0.00  0.00     0.047 A 
HETATM    6  C   UNK N   1      30.023  21.779  -5.149  0.00  0.00     0.048 A 
HETATM    7  C   UNK N   1      31.069  21.354  -4.311  0.00  0.00     0.058 A 
HETATM    8  C   UNK N   1      30.475  23.063  -2.661  0.00  0.00     0.051 A 
HETATM    9  C   UNK N   1      31.298  21.991  -3.060  0.00  0.00     0.070 A 
HETATM   10 Br   UNK N   1      29.727  20.941  -6.838  0.00  0.00    -0.048 Br
ENDROOT
BRANCH   2  11
HETATM   11  C   UNK N   1      26.620  25.274  -4.916  0.00  0.00     0.046 C 
HETATM   12  C   UNK N   1      26.722  25.783  -6.353  0.00  0.00     0.030 C 
HETATM   13  C   UNK N   1      25.563  26.736  -6.697  0.00  0.00     0.114 C 
HETATM   14  N   UNK N   1      24.695  27.008  -5.544  0.00  0.00    -0.421 N 
HETATM   15  C   UNK N   1      25.513  27.515  -4.442  0.00  0.00     0.114 C 
HETATM   16  H   UNK N   1      23.686  26.865  -5.517  0.00  0.00     0.153 HD
HETATM   17  C   UNK N   1      26.511  26.458  -3.949  0.00  0.00     0.030 C 
ENDBRANCH   2  11
BRANCH   9  18
HETATM   18  O   UNK N   1      32.296  21.594  -2.235  0.00  0.00    -0.356 OA
HETATM   19  C   UNK N   1      33.438  20.967  -2.683  0.00  0.00     0.210 C 
ENDBRANCH   9  18
TORSDOF 2
ENDMDL
MODEL 2
REMARK VINA RESULT:      -5.9     10.335     12.399
REMARK  2 active torsions:
REMARK  status: ('A' for Active; 'I' for Inactive)
REMARK    1  A    between atoms: C_11  and  C_2 
REMARK    2  A    between atoms: O_13  and  C_9 
ROOT
HETATM    1  O   UNK N   1      26.339  17.851   4.740  0.00  0.00    -0.312 OA
HETATM    2  C   UNK N   1      27.426  18.530   4.419  0.00  0.00     0.059 A 
HETATM    3  C   UNK N   1      25.301  18.511   4.289  0.00  0.00     0.103 A 
HETATM    4  C   UNK N   1      25.714  19.646   3.650  0.00  0.00     0.004 A 
HETATM    5  C   UNK N   1      27.086  19.694   3.726  0.00  0.00     0.047 A 
HETATM    6  C   UNK N   1      23.953  18.185   4.409  0.00  0.00     0.048 A 
HETATM    7  C   UNK N   1      23.013  19.060   3.836  0.00  0.00     0.058 A 
HETATM    8  C   UNK N   1      24.812  20.533   3.069  0.00  0.00     0.051 A 
HETATM    9  C   UNK N   1      23.438  20.236   3.158  0.00  0.00     0.070 A 
HETATM   10 Br   UNK N   1      23.386  16.618   5.338  0.00  0.00    -0.048 Br
ENDROOT
BRANCH   2  11
HETATM   11  C   UNK N   1      28.822  18.125   4.789  0.00  0.00     0.046 C 
HETATM   12  C   UNK N   1      29.337  16.978   3.921  0.00  0.00     0.030 C 
HETATM   13  C   UNK N   1      30.758  16.553   4.334  0.00  0.00     0.114 C 
HETATM   14  N   UNK N   1      31.241  17.275   5.518  0.00  0.00    -0.421 N 
HETATM   15  C   UNK N   1      30.279  17.102   6.606  0.00  0.00     0.114 C 
HETATM   16  H   UNK N   1      32.107  17.810   5.571  0.00  0.00     0.153 HD
HETATM   17  C   UNK N   1      28.926  17.747   6.270  0.00  0.00     0.030 C 
ENDBRANCH   2  11
BRANCH   9  18
HETATM   18  O   UNK N   1      22.549  21.088   2.594  0.00  0.00    -0.356 OA
HETATM   19  C   UNK N   1      21.202  20.818   2.502  0.00  0.00     0.210 C 
ENDBRANCH   9  18
TORSDOF 2
ENDMDL
MODEL 3
REMARK VINA RESULT:      -5.9     20.846     24.173
REMARK  2 active torsions:
REMARK  status: ('A' for Active; 'I' for Inactive)
REMARK    1  A    between atoms: C_11  and  C_2 
REMARK    2  A    between atoms: O_13  and  C_9 
ROOT
HETATM    1  O   UNK N   1      35.213  11.714  15.221  0.00  0.00    -0.312 OA
HETATM    2  C   UNK N   1      35.725  12.468  16.177  0.00  0.00     0.059 A 
HETATM    3  C   UNK N   1      35.318  12.368  14.090  0.00  0.00     0.103 A 
HETATM    4  C   UNK N   1      35.920  13.574  14.305  0.00  0.00     0.004 A 
HETATM    5  C   UNK N   1      36.188  13.675  15.651  0.00  0.00     0.047 A 
HETATM    6  C   UNK N   1      34.896  11.973  12.824  0.00  0.00     0.048 A 
HETATM    7  C   UNK N   1      35.122  12.855  11.752  0.00  0.00     0.058 A 
HETATM    8  C   UNK N   1      36.162  14.472  13.269  0.00  0.00     0.051 A 
HETATM    9  C   UNK N   1      35.760  14.107  11.968  0.00  0.00     0.070 A 
HETATM   10 Br   UNK N   1      34.019  10.302  12.541  0.00  0.00    -0.048 Br
ENDROOT
BRANCH   2  11
HETATM   11  C   UNK N   1      35.762  12.091  17.629  0.00  0.00     0.046 C 
HETATM   12  C   UNK N   1      35.065  10.758  17.895  0.00  0.00     0.030 C 
HETATM   13  C   UNK N   1      35.084  10.402  19.393  0.00  0.00     0.114 C 
HETATM   14  N   UNK N   1      35.674  11.463  20.218  0.00  0.00    -0.421 N 
HETATM   15  C   UNK N   1      34.963  12.716  19.962  0.00  0.00     0.114 C 
HETATM   16  H   UNK N   1      36.453  11.345  20.864  0.00  0.00     0.153 HD
HETATM   17  C   UNK N   1      35.154  13.186  18.512  0.00  0.00     0.030 C 
ENDBRANCH   2  11
BRANCH   9  18
HETATM   18  O   UNK N   1      35.993  14.968  10.949  0.00  0.00    -0.356 OA
HETATM   19  C   UNK N   1      35.569  16.278  10.958  0.00  0.00     0.210 C 
ENDBRANCH   9  18
TORSDOF 2
ENDMDL
MODEL 4
REMARK VINA RESULT:      -5.8     11.915     13.342
REMARK  2 active torsions:
REMARK  status: ('A' for Active; 'I' for Inactive)
REMARK    1  A    between atoms: C_11  and  C_2 
REMARK    2  A    between atoms: O_13  and  C_9 
ROOT
HETATM    1  O   UNK N   1      30.144  17.093   5.769  0.00  0.00    -0.312 OA
HETATM    2  C   UNK N   1      29.191  17.126   6.684  0.00  0.00     0.059 A 
HETATM    3  C   UNK N   1      31.293  17.264   6.375  0.00  0.00     0.103 A 
HETATM    4  C   UNK N   1      31.094  17.403   7.719  0.00  0.00     0.004 A 
HETATM    5  C   UNK N   1      29.740  17.330   7.952  0.00  0.00     0.047 A 
HETATM    6  C   UNK N   1      32.564  17.320   5.812  0.00  0.00     0.048 A 
HETATM    7  C   UNK N   1      33.657  17.513   6.676  0.00  0.00     0.058 A 
HETATM    8  C   UNK N   1      32.150  17.594   8.604  0.00  0.00     0.051 A 
HETATM    9  C   UNK N   1      33.456  17.646   8.078  0.00  0.00     0.070 A 
HETATM   10 Br   UNK N   1      32.828  17.163   3.929  0.00  0.00    -0.048 Br
ENDROOT
BRANCH   2  11
HETATM   11  C   UNK N   1      27.725  17.005   6.390  0.00  0.00     0.046 C 
HETATM   12  C   UNK N   1      27.351  15.607   5.899  0.00  0.00     0.030 C 
HETATM   13  C   UNK N   1      25.850  15.509   5.572  0.00  0.00     0.114 C 
HETATM   14  N   UNK N   1      25.156  16.795   5.711  0.00  0.00    -0.421 N 
HETATM   15  C   UNK N   1      25.834  17.793   4.882  0.00  0.00     0.114 C 
HETATM   16  H   UNK N   1      24.335  16.964   6.291  0.00  0.00     0.153 HD
HETATM   17  C   UNK N   1      27.264  18.056   5.375  0.00  0.00     0.030 C 
ENDBRANCH   2  11
BRANCH   9  18
HETATM   18  O   UNK N   1      34.496  17.826   8.928  0.00  0.00    -0.356 OA
HETATM   19  C   UNK N   1      34.980  16.831   9.747  0.00  0.00     0.210 C 
ENDBRANCH   9  18
TORSDOF 2
ENDMDL
MODEL 5
REMARK VINA RESULT:      -5.7      2.200      3.260
REMARK  2 active torsions:
REMARK  status: ('A' for Active; 'I' for Inactive)
REMARK    1  A    between atoms: C_11  and  C_2 
REMARK    2  A    between atoms: O_13  and  C_9 
ROOT
HETATM    1  O   UNK N   1      28.682  24.198  -4.517  0.00  0.00    -0.312 OA
HETATM    2  C   UNK N   1      27.794  24.699  -5.357  0.00  0.00     0.059 A 
HETATM    3  C   UNK N   1      29.155  23.093  -5.038  0.00  0.00     0.103 A 
HETATM    4  C   UNK N   1      28.572  22.865  -6.252  0.00  0.00     0.004 A 
HETATM    5  C   UNK N   1      27.676  23.883  -6.484  0.00  0.00     0.047 A 
HETATM    6  C   UNK N   1      30.096  22.220  -4.500  0.00  0.00     0.048 A 
HETATM    7  C   UNK N   1      30.448  21.088  -5.256  0.00  0.00     0.058 A 
HETATM    8  C   UNK N   1      28.897  21.757  -7.029  0.00  0.00     0.051 A 
HETATM    9  C   UNK N   1      29.854  20.852  -6.527  0.00  0.00     0.070 A 
HETATM   10 Br   UNK N   1      30.875  22.527  -2.785  0.00  0.00    -0.048 Br
ENDROOT
BRANCH   2  11
HETATM   11  C   UNK N   1      26.997  25.945  -5.109  0.00  0.00     0.046 C 
HETATM   12  C   UNK N   1      26.669  26.133  -3.629  0.00  0.00     0.030 C 
HETATM   13  C   UNK N   1      25.825  27.399  -3.396  0.00  0.00     0.114 C 
HETATM   14  N   UNK N   1      25.453  28.068  -4.648  0.00  0.00    -0.421 N 
HETATM   15  C   UNK N   1      24.771  27.108  -5.517  0.00  0.00     0.114 C 
HETATM   16  H   UNK N   1      25.639  29.045  -4.875  0.00  0.00     0.153 HD
HETATM   17  C   UNK N   1      25.708  25.966  -5.938  0.00  0.00     0.030 C 
ENDBRANCH   2  11
BRANCH   9  18
HETATM   18  O   UNK N   1      30.184  19.772  -7.273  0.00  0.00    -0.356 OA
HETATM   19  C   UNK N   1      29.273  18.813  -7.654  0.00  0.00     0.210 C 
ENDBRANCH   9  18
TORSDOF 2
ENDMDL
MODEL 6
REMARK VINA RESULT:      -5.6      3.054      6.536
REMARK  2 active torsions:
REMARK  status: ('A' for Active; 'I' for Inactive)
REMARK    1  A    between atoms: C_11  and  C_2 
REMARK    2  A    between atoms: O_13  and  C_9 
ROOT
HETATM    1  O   UNK N   1      28.204  23.074  -5.419  0.00  0.00    -0.312 OA
HETATM    2  C   UNK N   1      29.036  23.099  -4.393  0.00  0.00     0.059 A 
HETATM    3  C   UNK N   1      27.414  24.115  -5.325  0.00  0.00     0.103 A 
HETATM    4  C   UNK N   1      27.738  24.846  -4.218  0.00  0.00     0.004 A 
HETATM    5  C   UNK N   1      28.780  24.208  -3.585  0.00  0.00     0.047 A 
HETATM    6  C   UNK N   1      26.372  24.485  -6.170  0.00  0.00     0.048 A 
HETATM    7  C   UNK N   1      25.659  25.657  -5.859  0.00  0.00     0.058 A 
HETATM    8  C   UNK N   1      27.056  26.011  -3.879  0.00  0.00     0.051 A 
HETATM    9  C   UNK N   1      26.001  26.429  -4.714  0.00  0.00     0.070 A 
HETATM   10 Br   UNK N   1      25.901  23.435  -7.692  0.00  0.00    -0.048 Br
ENDROOT
BRANCH   2  11
HETATM   11  C   UNK N   1      30.079  22.056  -4.119  0.00  0.00     0.046 C 
HETATM   12  C   UNK N   1      31.352  22.657  -3.525  0.00  0.00     0.030 C 
HETATM   13  C   UNK N   1      32.422  21.579  -3.279  0.00  0.00     0.114 C 
HETATM   14  N   UNK N   1      32.010  20.254  -3.760  0.00  0.00    -0.421 N 
HETATM   15  C   UNK N   1      31.647  20.354  -5.174  0.00  0.00     0.114 C 
HETATM   16  H   UNK N   1      31.982  19.404  -3.198  0.00  0.00     0.153 HD
HETATM   17  C   UNK N   1      30.418  21.252  -5.378  0.00  0.00     0.030 C 
ENDBRANCH   2  11
BRANCH   9  18
HETATM   18  O   UNK N   1      25.332  27.564  -4.400  0.00  0.00    -0.356 OA
HETATM   19  C   UNK N   1      25.913  28.624  -3.742  0.00  0.00     0.210 C 
ENDBRANCH   9  18
TORSDOF 2
ENDMDL
MODEL 7
REMARK VINA RESULT:      -5.6     10.374     11.731
REMARK  2 active torsions:
REMARK  status: ('A' for Active; 'I' for Inactive)
REMARK    1  A    between atoms: C_11  and  C_2 
REMARK    2  A    between atoms: O_13  and  C_9 
ROOT
HETATM    1  O   UNK N   1      27.784  18.654   6.479  0.00  0.00    -0.312 OA
HETATM    2  C   UNK N   1      27.482  18.723   5.194  0.00  0.00     0.059 A 
HETATM    3  C   UNK N   1      28.960  18.088   6.588  0.00  0.00     0.103 A 
HETATM    4  C   UNK N   1      29.448  17.786   5.348  0.00  0.00     0.004 A 
HETATM    5  C   UNK N   1      28.508  18.175   4.422  0.00  0.00     0.047 A 
HETATM    6  C   UNK N   1      29.669  17.792   7.748  0.00  0.00     0.048 A 
HETATM    7  C   UNK N   1      30.927  17.177   7.610  0.00  0.00     0.058 A 
HETATM    8  C   UNK N   1      30.688  17.180   5.173  0.00  0.00     0.051 A 
HETATM    9  C   UNK N   1      31.445  16.872   6.321  0.00  0.00     0.070 A 
HETATM   10 Br   UNK N   1      28.962  18.182   9.477  0.00  0.00    -0.048 Br
ENDROOT
BRANCH   2  11
HETATM   11  C   UNK N   1      26.197  19.275   4.651  0.00  0.00     0.046 C 
HETATM   12  C   UNK N   1      25.153  18.183   4.422  0.00  0.00     0.030 C 
HETATM   13  C   UNK N   1      23.853  18.761   3.836  0.00  0.00     0.114 C 
HETATM   14  N   UNK N   1      23.954  20.196   3.544  0.00  0.00    -0.421 N 
HETATM   15  C   UNK N   1      25.100  20.423   2.663  0.00  0.00     0.114 C 
HETATM   16  H   UNK N   1      23.326  20.917   3.899  0.00  0.00     0.153 HD
HETATM   17  C   UNK N   1      26.422  20.063   3.357  0.00  0.00     0.030 C 
ENDBRANCH   2  11
BRANCH   9  18
HETATM   18  O   UNK N   1      32.657  16.286   6.166  0.00  0.00    -0.356 OA
HETATM   19  C   UNK N   1      33.842  16.985   6.210  0.00  0.00     0.210 C 
ENDBRANCH   9  18
TORSDOF 2
ENDMDL
MODEL 8
REMARK VINA RESULT:      -5.6     11.591     14.365
REMARK  2 active torsions:
REMARK  status: ('A' for Active; 'I' for Inactive)
REMARK    1  A    between atoms: C_11  and  C_2 
REMARK    2  A    between atoms: O_13  and  C_9 
ROOT
HETATM    1  O   UNK N   1      30.890  17.055   6.195  0.00  0.00    -0.312 OA
HETATM    2  C   UNK N   1      30.894  17.385   7.474  0.00  0.00     0.059 A 
HETATM    3  C   UNK N   1      29.714  17.356   5.703  0.00  0.00     0.103 A 
HETATM    4  C   UNK N   1      28.928  17.903   6.677  0.00  0.00     0.004 A 
HETATM    5  C   UNK N   1      29.660  17.926   7.841  0.00  0.00     0.047 A 
HETATM    6  C   UNK N   1      29.249  17.168   4.404  0.00  0.00     0.048 A 
HETATM    7  C   UNK N   1      27.935  17.575   4.112  0.00  0.00     0.058 A 
HETATM    8  C   UNK N   1      27.624  18.318   6.424  0.00  0.00     0.051 A 
HETATM    9  C   UNK N   1      27.117  18.157   5.120  0.00  0.00     0.070 A 
HETATM   10 Br   UNK N   1      30.342  16.367   3.060  0.00  0.00    -0.048 Br
ENDROOT
BRANCH   2  11
HETATM   11  C   UNK N   1      32.049  17.165   8.406  0.00  0.00     0.046 C 
HETATM   12  C   UNK N   1      33.338  17.797   7.882  0.00  0.00     0.030 C 
HETATM   13  C   UNK N   1      34.520  17.536   8.833  0.00  0.00     0.114 C 
HETATM   14  N   UNK N   1      34.157  16.666   9.958  0.00  0.00    -0.421 N 
HETATM   15  C   UNK N   1      33.590  15.423   9.435  0.00  0.00     0.114 C 
HETATM   16  H   UNK N   1      34.281  16.892  10.945  0.00  0.00     0.153 HD
HETATM   17  C   UNK N   1      32.273  15.676   8.686  0.00  0.00     0.030 C 
ENDBRANCH   2  11
BRANCH   9  18
HETATM   18  O   UNK N   1      25.851  18.562   4.857  0.00  0.00    -0.356 OA
HETATM   19  C   UNK N   1      25.441  18.996   3.617  0.00  0.00     0.210 C 
ENDBRANCH   9  18
TORSDOF 2
ENDMDL
MODEL 9
REMARK VINA RESULT:      -5.5     23.637     26.958
REMARK  2 active torsions:
REMARK  status: ('A' for Active; 'I' for Inactive)
REMARK    1  A    between atoms: C_11  and  C_2 
REMARK    2  A    between atoms: O_13  and  C_9 
ROOT
HETATM    1  O   UNK N   1      36.410  10.610  17.729  0.00  0.00    -0.312 OA
HETATM    2  C   UNK N   1      35.787  11.255  18.700  0.00  0.00     0.059 A 
HETATM    3  C   UNK N   1      36.161  11.235  16.604  0.00  0.00     0.103 A 
HETATM    4  C   UNK N   1      35.365  12.319  16.840  0.00  0.00     0.004 A 
HETATM    5  C   UNK N   1      35.095  12.354  18.189  0.00  0.00     0.047 A 
HETATM    6  C   UNK N   1      36.592  10.905  15.322  0.00  0.00     0.048 A 
HETATM    7  C   UNK N   1      36.191  11.737  14.261  0.00  0.00     0.058 A 
HETATM    8  C   UNK N   1      34.951  13.165  15.816  0.00  0.00     0.051 A 
HETATM    9  C   UNK N   1      35.373  12.875  14.503  0.00  0.00     0.070 A 
HETATM   10 Br   UNK N   1      37.671   9.365  14.998  0.00  0.00    -0.048 Br
ENDROOT
BRANCH   2  11
HETATM   11  C   UNK N   1      35.792  10.834  20.139  0.00  0.00     0.046 C 
HETATM   12  C   UNK N   1      37.027  10.008  20.493  0.00  0.00     0.030 C 
HETATM   13  C   UNK N   1      37.001   9.557  21.965  0.00  0.00     0.114 C 
HETATM   14  N   UNK N   1      35.760   9.938  22.650  0.00  0.00    -0.421 N 
HETATM   15  C   UNK N   1      34.620   9.415  21.896  0.00  0.00     0.114 C 
HETATM   16  H   UNK N   1      35.703  10.481  23.511  0.00  0.00     0.153 HD
HETATM   17  C   UNK N   1      34.522  10.058  20.505  0.00  0.00     0.030 C 
ENDBRANCH   2  11
BRANCH   9  18
HETATM   18  O   UNK N   1      34.982  13.692  13.497  0.00  0.00    -0.356 OA
HETATM   19  C   UNK N   1      35.867  14.382  12.700  0.00  0.00     0.210 C 
ENDBRANCH   9  18
TORSDOF 2
ENDMDL
