REMARK  10 active torsions:
REMARK  status: ('A' for Active; 'I' for Inactive)
REMARK    1  A    between atoms: N_22  and  C_4 
REMARK    2  A    between atoms: N_22  and  C_5 
REMARK    3  A    between atoms: C_17  and  C_16 
REMARK    4  A    between atoms: N_22  and  C_16 
REMARK    5  A    between atoms: O_25  and  C_17 
REMARK    6  A    between atoms: C_21  and  C_18 
REMARK    7  A    between atoms: C_21  and  C_19 
REMARK    8  A    between atoms: C_21  and  C_20 
REMARK    9  A    between atoms: O_25  and  C_20 
REMARK   10  A    between atoms: O_24  and  C_21 
ROOT
HETATM    1  C   UNK N   1       1.719   3.849  -0.893  0.00  0.00     0.201 C 
ENDROOT
BRANCH   1   2
HETATM    2  C   UNK N   1       1.231   2.566  -0.234  0.00  0.00    -0.009 A 
HETATM    3  C   UNK N   1       2.029   1.410  -0.309  0.00  0.00     0.011 A 
HETATM    4  C   UNK N   1       1.596   0.208   0.256  0.00  0.00     0.001 A 
HETATM    5  C   UNK N   1       0.360   0.144   0.901  0.00  0.00     0.000 A 
HETATM    6  C   UNK N   1      -0.444   1.283   0.984  0.00  0.00     0.001 A 
HETATM    7  C   UNK N   1      -0.014   2.486   0.418  0.00  0.00     0.011 A 
ENDBRANCH   1   2
BRANCH   1   8
HETATM    8  C   UNK N   1       3.047   4.259  -0.273  0.00  0.00    -0.009 A 
HETATM    9  C   UNK N   1       3.123   4.625   1.082  0.00  0.00     0.011 A 
HETATM   10  C   UNK N   1       4.354   4.959   1.657  0.00  0.00     0.001 A 
HETATM   11  C   UNK N   1       5.521   4.914   0.889  0.00  0.00     0.000 A 
HETATM   12  C   UNK N   1       5.459   4.545  -0.456  0.00  0.00     0.001 A 
HETATM   13  C   UNK N   1       4.229   4.222  -1.034  0.00  0.00     0.011 A 
ENDBRANCH   1   8
BRANCH   1  14
HETATM   14  C   UNK N   1       0.689   4.970  -0.786  0.00  0.00     0.303 C 
HETATM   15  O   UNK N   1       0.166   5.408  -1.802  0.00  0.00    -0.261 OA
BRANCH  14  16
HETATM   16  O   UNK N   1       0.297   5.432   0.432  0.00  0.00    -0.317 OA
BRANCH  16  17
HETATM   17  C   UNK N   1      -0.943   6.007   0.617  0.00  0.00     0.206 C 
BRANCH  17  18
HETATM   18  C   UNK N   1      -0.874   7.506   0.938  0.00  0.00     0.263 C 
BRANCH  18  19
HETATM   19  N   UNK N   1      -0.767   8.386  -0.247  0.00  0.00    -0.070 N 
HETATM   20  C   UNK N   1      -1.661   7.928  -1.304  0.00  0.00     0.272 C 
BRANCH  19  21
HETATM   21  C   UNK N   1      -1.237   9.745   0.062  0.00  0.00     0.232 C 
HETATM   22  C   UNK N   1      -0.588  10.380   1.289  0.00  0.00     0.035 C 
ENDBRANCH  19  21
BRANCH  19  23
HETATM   23  C   UNK N   1       0.590   8.400  -0.813  0.00  0.00     0.232 C 
HETATM   24  C   UNK N   1       1.680   8.744   0.199  0.00  0.00     0.035 C 
ENDBRANCH  19  23
ENDBRANCH  18  19
ENDBRANCH  17  18
ENDBRANCH  16  17
ENDBRANCH  14  16
ENDBRANCH   1  14
BRANCH   1  25
HETATM   25  O   UNK N   1       1.910   3.562  -2.253  0.00  0.00    -0.371 OA
HETATM   26  H   UNK N   1       1.804   3.349  -3.193  0.00  0.00     0.212 HD
ENDBRANCH   1  25
TORSDOF 10
