REMARK  4 active torsions:
REMARK  status: ('A' for Active; 'I' for Inactive)
REMARK    1  A    between atoms: C_20  and  C_3 
REMARK    2  A    between atoms: C_21  and  C_19 
REMARK    3  A    between atoms: O_26  and  C_19 
REMARK    4  A    between atoms: C_21  and  O_25 
ROOT
HETATM    1  C   UNK N   1       7.542  -1.869  -0.123  0.00  0.00     0.001 A 
HETATM    2  C   UNK N   1       7.478  -0.548  -0.628  0.00  0.00     0.002 A 
HETATM    3  C   UNK N   1      -1.117  -1.463  -0.063  0.00  0.00     0.031 C 
HETATM    4  C   UNK N   1       6.371  -2.537   0.280  0.00  0.00     0.014 A 
HETATM    5  C   UNK N   1       6.242   0.121  -0.737  0.00  0.00     0.030 A 
HETATM    6  C   UNK N   1       3.251  -3.497   0.908  0.00  0.00     0.072 C 
HETATM    7  C   UNK N   1      -0.437  -0.338  -0.827  0.00  0.00     0.014 C 
HETATM    8  C   UNK N   1      -0.251  -2.733  -0.088  0.00  0.00     0.273 C 
HETATM    9  C   UNK N   1       1.904  -3.708   0.135  0.00  0.00     0.278 C 
HETATM   10  C   UNK N   1       1.728   0.795  -1.254  0.00  0.00     0.084 C 
HETATM   11  C   UNK N   1       5.169  -1.848   0.177  0.00  0.00    -0.001 A 
HETATM   12  C   UNK N   1       3.876  -2.224   0.463  0.00  0.00    -0.019 A 
HETATM   13  C   UNK N   1       5.099  -0.558  -0.316  0.00  0.00     0.048 A 
HETATM   14  C   UNK N   1       3.091  -1.162   0.163  0.00  0.00     0.057 A 
HETATM   15  C   UNK N   1       1.624  -1.238   0.335  0.00  0.00     0.281 C 
HETATM   16  C   UNK N   1       0.899   0.053  -0.178  0.00  0.00     0.001 C 
HETATM   17  C   UNK N   1       3.206   1.087  -0.879  0.00  0.00     0.229 C 
HETATM   18  N   UNK N   1       1.180  -2.482  -0.334  0.00  0.00     0.100 N 
HETATM   19  N   UNK N   1       3.811  -0.146  -0.352  0.00  0.00    -0.306 N 
ENDROOT
BRANCH  17  20
HETATM   20  C   UNK N   1       3.311   2.215   0.118  0.00  0.00     0.315 C 
HETATM   21  O   UNK N   1       3.917   2.055   1.170  0.00  0.00    -0.260 OA
BRANCH  20  22
HETATM   22  O   UNK N   1       2.697   3.394  -0.149  0.00  0.00    -0.323 OA
HETATM   23  C   UNK N   1       2.623   4.410   0.776  0.00  0.00     0.213 C 
ENDBRANCH  20  22
ENDBRANCH  17  20
BRANCH  17  24
HETATM   24  O   UNK N   1       3.855   1.462  -2.058  0.00  0.00    -0.362 OA
HETATM   25  H   UNK N   1       4.305   1.202  -2.876  0.00  0.00     0.213 HD
ENDBRANCH  17  24
BRANCH  16  26
HETATM   26  C   UNK N   1       0.639   0.986   1.023  0.00  0.00     0.008 C 
HETATM   27  C   UNK N   1      -0.236   2.186   0.683  0.00  0.00     0.006 C 
ENDBRANCH  16  26
TORSDOF 4
