MODEL 1
REMARK VINA RESULT:      -1.3      0.000      0.000
REMARK  11 active torsions:
REMARK  status: ('A' for Active; 'I' for Inactive)
REMARK    1  A    between atoms: C_2  and  C_1 
REMARK    2  A    between atoms: O_7  and  C_1 
REMARK    3  A    between atoms: C_3  and  C_2 
REMARK    4  A    between atoms: C_2  and  O_8 
REMARK    5  A    between atoms: C_4  and  C_3 
REMARK    6  A    between atoms: C_3  and  O_9 
REMARK    7  A    between atoms: C_5  and  C_4 
REMARK    8  A    between atoms: C_4  and  O_10 
REMARK    9  A    between atoms: C_6  and  C_5 
REMARK   10  A    between atoms: C_5  and  O_11 
REMARK   11  A    between atoms: K_14  and  K_14 
ROOT
HETATM    1  K   UNK N   1      38.596  29.706  19.362  0.00  0.00     0.000 K 
ENDROOT
TORSDOF 11
ENDMDL
MODEL 2
REMARK VINA RESULT:      -1.2     10.766     10.766
REMARK  11 active torsions:
REMARK  status: ('A' for Active; 'I' for Inactive)
REMARK    1  A    between atoms: C_2  and  C_1 
REMARK    2  A    between atoms: O_7  and  C_1 
REMARK    3  A    between atoms: C_3  and  C_2 
REMARK    4  A    between atoms: C_2  and  O_8 
REMARK    5  A    between atoms: C_4  and  C_3 
REMARK    6  A    between atoms: C_3  and  O_9 
REMARK    7  A    between atoms: C_5  and  C_4 
REMARK    8  A    between atoms: C_4  and  O_10 
REMARK    9  A    between atoms: C_6  and  C_5 
REMARK   10  A    between atoms: C_5  and  O_11 
REMARK   11  A    between atoms: K_14  and  K_14 
ROOT
HETATM    1  K   UNK N   1      39.964  21.073  13.075  0.00  0.00     0.000 K 
ENDROOT
TORSDOF 11
ENDMDL
MODEL 3
REMARK VINA RESULT:      -1.2     11.042     11.042
REMARK  11 active torsions:
REMARK  status: ('A' for Active; 'I' for Inactive)
REMARK    1  A    between atoms: C_2  and  C_1 
REMARK    2  A    between atoms: O_7  and  C_1 
REMARK    3  A    between atoms: C_3  and  C_2 
REMARK    4  A    between atoms: C_2  and  O_8 
REMARK    5  A    between atoms: C_4  and  C_3 
REMARK    6  A    between atoms: C_3  and  O_9 
REMARK    7  A    between atoms: C_5  and  C_4 
REMARK    8  A    between atoms: C_4  and  O_10 
REMARK    9  A    between atoms: C_6  and  C_5 
REMARK   10  A    between atoms: C_5  and  O_11 
REMARK   11  A    between atoms: K_14  and  K_14 
ROOT
HETATM    1  K   UNK N   1      35.636  21.382  12.738  0.00  0.00     0.000 K 
ENDROOT
TORSDOF 11
ENDMDL
MODEL 4
REMARK VINA RESULT:      -1.2     31.889     31.889
REMARK  11 active torsions:
REMARK  status: ('A' for Active; 'I' for Inactive)
REMARK    1  A    between atoms: C_2  and  C_1 
REMARK    2  A    between atoms: O_7  and  C_1 
REMARK    3  A    between atoms: C_3  and  C_2 
REMARK    4  A    between atoms: C_2  and  O_8 
REMARK    5  A    between atoms: C_4  and  C_3 
REMARK    6  A    between atoms: C_3  and  O_9 
REMARK    7  A    between atoms: C_5  and  C_4 
REMARK    8  A    between atoms: C_4  and  O_10 
REMARK    9  A    between atoms: C_6  and  C_5 
REMARK   10  A    between atoms: C_5  and  O_11 
REMARK   11  A    between atoms: K_14  and  K_14 
ROOT
HETATM    1  K   UNK N   1      21.453  21.778  -6.332  0.00  0.00     0.000 K 
ENDROOT
TORSDOF 11
ENDMDL
MODEL 5
REMARK VINA RESULT:      -1.1     15.613     15.613
REMARK  11 active torsions:
REMARK  status: ('A' for Active; 'I' for Inactive)
REMARK    1  A    between atoms: C_2  and  C_1 
REMARK    2  A    between atoms: O_7  and  C_1 
REMARK    3  A    between atoms: C_3  and  C_2 
REMARK    4  A    between atoms: C_2  and  O_8 
REMARK    5  A    between atoms: C_4  and  C_3 
REMARK    6  A    between atoms: C_3  and  O_9 
REMARK    7  A    between atoms: C_5  and  C_4 
REMARK    8  A    between atoms: C_4  and  O_10 
REMARK    9  A    between atoms: C_6  and  C_5 
REMARK   10  A    between atoms: C_5  and  O_11 
REMARK   11  A    between atoms: K_14  and  K_14 
ROOT
HETATM    1  K   UNK N   1      43.320  25.304   5.147  0.00  0.00     0.000 K 
ENDROOT
TORSDOF 11
ENDMDL
MODEL 6
REMARK VINA RESULT:      -1.0     31.682     31.682
REMARK  11 active torsions:
REMARK  status: ('A' for Active; 'I' for Inactive)
REMARK    1  A    between atoms: C_2  and  C_1 
REMARK    2  A    between atoms: O_7  and  C_1 
REMARK    3  A    between atoms: C_3  and  C_2 
REMARK    4  A    between atoms: C_2  and  O_8 
REMARK    5  A    between atoms: C_4  and  C_3 
REMARK    6  A    between atoms: C_3  and  O_9 
REMARK    7  A    between atoms: C_5  and  C_4 
REMARK    8  A    between atoms: C_4  and  O_10 
REMARK    9  A    between atoms: C_6  and  C_5 
REMARK   10  A    between atoms: C_5  and  O_11 
REMARK   11  A    between atoms: K_14  and  K_14 
ROOT
HETATM    1  K   UNK N   1      16.939  17.311  -0.159  0.00  0.00     0.000 K 
ENDROOT
TORSDOF 11
ENDMDL
MODEL 7
REMARK VINA RESULT:      -1.0     25.523     25.523
REMARK  11 active torsions:
REMARK  status: ('A' for Active; 'I' for Inactive)
REMARK    1  A    between atoms: C_2  and  C_1 
REMARK    2  A    between atoms: O_7  and  C_1 
REMARK    3  A    between atoms: C_3  and  C_2 
REMARK    4  A    between atoms: C_2  and  O_8 
REMARK    5  A    between atoms: C_4  and  C_3 
REMARK    6  A    between atoms: C_3  and  O_9 
REMARK    7  A    between atoms: C_5  and  C_4 
REMARK    8  A    between atoms: C_4  and  O_10 
REMARK    9  A    between atoms: C_6  and  C_5 
REMARK   10  A    between atoms: C_5  and  O_11 
REMARK   11  A    between atoms: K_14  and  K_14 
ROOT
HETATM    1  K   UNK N   1      17.313  25.062   6.063  0.00  0.00     0.000 K 
ENDROOT
TORSDOF 11
ENDMDL
MODEL 8
REMARK VINA RESULT:      -0.9     13.743     13.743
REMARK  11 active torsions:
REMARK  status: ('A' for Active; 'I' for Inactive)
REMARK    1  A    between atoms: C_2  and  C_1 
REMARK    2  A    between atoms: O_7  and  C_1 
REMARK    3  A    between atoms: C_3  and  C_2 
REMARK    4  A    between atoms: C_2  and  O_8 
REMARK    5  A    between atoms: C_4  and  C_3 
REMARK    6  A    between atoms: C_3  and  O_9 
REMARK    7  A    between atoms: C_5  and  C_4 
REMARK    8  A    between atoms: C_4  and  O_10 
REMARK    9  A    between atoms: C_6  and  C_5 
REMARK   10  A    between atoms: C_5  and  O_11 
REMARK   11  A    between atoms: K_14  and  K_14 
ROOT
HETATM    1  K   UNK N   1      36.345  19.944   9.954  0.00  0.00     0.000 K 
ENDROOT
TORSDOF 11
ENDMDL
MODEL 9
REMARK VINA RESULT:      -0.9     28.295     28.295
REMARK  11 active torsions:
REMARK  status: ('A' for Active; 'I' for Inactive)
REMARK    1  A    between atoms: C_2  and  C_1 
REMARK    2  A    between atoms: O_7  and  C_1 
REMARK    3  A    between atoms: C_3  and  C_2 
REMARK    4  A    between atoms: C_2  and  O_8 
REMARK    5  A    between atoms: C_4  and  C_3 
REMARK    6  A    between atoms: C_3  and  O_9 
REMARK    7  A    between atoms: C_5  and  C_4 
REMARK    8  A    between atoms: C_4  and  O_10 
REMARK    9  A    between atoms: C_6  and  C_5 
REMARK   10  A    between atoms: C_5  and  O_11 
REMARK   11  A    between atoms: K_14  and  K_14 
ROOT
HETATM    1  K   UNK N   1      20.641  23.859  -1.711  0.00  0.00     0.000 K 
ENDROOT
TORSDOF 11
ENDMDL
