REMARK  0 active torsions:
REMARK  status: ('A' for Active; 'I' for Inactive)
ROOT
HETATM    1  C   UNK N   1       0.570  -0.403   0.000  0.00  0.00     0.021 C 
HETATM    2  C   UNK N   1       1.729  -1.380   0.000  0.00  0.00     0.110 C 
HETATM    3 Cl   UNK N   1       3.257  -0.473   0.000  0.00  0.00    -0.131 Cl
ENDROOT
TORSDOF 0
