MODEL 1
REMARK VINA RESULT:      -6.5      0.000      0.000
REMARK  4 active torsions:
REMARK  status: ('A' for Active; 'I' for Inactive)
REMARK    1  A    between atoms: N_7  and  N_8 
REMARK       I    between atoms: N_8  and  C_9 
REMARK    2  A    between atoms: C_9  and  C_11 
REMARK    3  A    between atoms: C_15  and  S_17 
REMARK    4  A    between atoms: S_17  and  N_20 
ROOT
HETATM    1  C   UNK N   1      23.485  18.593   4.524  0.00  0.00     0.034 A 
HETATM    2  C   UNK N   1      23.280  17.453   5.316  0.00  0.00     0.019 A 
HETATM    3  C   UNK N   1      22.115  16.696   5.168  0.00  0.00     0.026 A 
HETATM    4  C   UNK N   1      21.177  17.032   4.186  0.00  0.00     0.057 A 
HETATM    5  C   UNK N   1      21.393  18.160   3.372  0.00  0.00     0.102 A 
HETATM    6  C   UNK N   1      22.534  18.939   3.562  0.00  0.00     0.044 A 
HETATM    7 Cl   UNK N   1      19.775  15.996   3.969  0.00  0.00    -0.083 Cl
ENDROOT
BRANCH   1   8
HETATM    8  C   UNK N   1      24.775  19.305   4.539  0.00  0.00     0.266 C 
HETATM    9  N   UNK N   1      25.790  18.797   5.297  0.00  0.00    -0.284 N 
HETATM   10  H   UNK N   1      25.522  18.139   5.978  0.00  0.00     0.184 HD
HETATM   11  O   UNK N   1      24.949  20.234   3.765  0.00  0.00    -0.266 OA
BRANCH   9  12
HETATM   12  N   UNK N   1      27.171  19.086   5.239  0.00  0.00    -0.220 NA
HETATM   13  C   UNK N   1      27.964  17.861   5.068  0.00  0.00     0.076 C 
HETATM   14  C   UNK N   1      28.076  17.076   6.371  0.00  0.00     0.021 C 
HETATM   15  C   UNK N   1      27.439  16.993   3.934  0.00  0.00     0.028 C 
HETATM   16  C   UNK N   1      28.737  17.957   7.428  0.00  0.00     0.003 C 
HETATM   17  C   UNK N   1      27.936  19.240   7.628  0.00  0.00     0.021 C 
HETATM   18  C   UNK N   1      27.765  19.948   6.284  0.00  0.00     0.076 C 
HETATM   19  C   UNK N   1      27.146  21.337   6.366  0.00  0.00     0.028 C 
ENDBRANCH   9  12
ENDBRANCH   1   8
BRANCH   5  20
HETATM   20  S   UNK N   1      20.311  18.554   1.997  0.00  0.00     0.258 S 
HETATM   21  O   UNK N   1      20.737  19.768   1.159  0.00  0.00    -0.201 OA
HETATM   22  O   UNK N   1      20.276  17.426   0.955  0.00  0.00    -0.201 OA
BRANCH  20  23
HETATM   23  N   UNK N   1      18.610  18.814   2.392  0.00  0.00    -0.324 N 
HETATM   24  H   UNK N   1      17.712  18.374   2.591  0.00  0.00     0.169 HD
HETATM   25  H   UNK N   1      18.466  19.822   2.442  0.00  0.00     0.169 HD
ENDBRANCH  20  23
ENDBRANCH   5  20
TORSDOF 4
ENDMDL
MODEL 2
REMARK VINA RESULT:      -6.5      6.913      9.532
REMARK  4 active torsions:
REMARK  status: ('A' for Active; 'I' for Inactive)
REMARK    1  A    between atoms: N_7  and  N_8 
REMARK       I    between atoms: N_8  and  C_9 
REMARK    2  A    between atoms: C_9  and  C_11 
REMARK    3  A    between atoms: C_15  and  S_17 
REMARK    4  A    between atoms: S_17  and  N_20 
ROOT
HETATM    1  C   UNK N   1      32.053  17.156   7.001  0.00  0.00     0.034 A 
HETATM    2  C   UNK N   1      31.720  17.134   5.639  0.00  0.00     0.019 A 
HETATM    3  C   UNK N   1      30.394  17.318   5.237  0.00  0.00     0.026 A 
HETATM    4  C   UNK N   1      29.402  17.589   6.185  0.00  0.00     0.057 A 
HETATM    5  C   UNK N   1      29.738  17.639   7.551  0.00  0.00     0.102 A 
HETATM    6  C   UNK N   1      31.054  17.402   7.946  0.00  0.00     0.044 A 
HETATM    7 Cl   UNK N   1      27.768  17.912   5.627  0.00  0.00    -0.083 Cl
ENDROOT
BRANCH   1   8
HETATM    8  C   UNK N   1      33.459  17.137   7.438  0.00  0.00     0.266 C 
HETATM    9  N   UNK N   1      33.904  16.065   8.155  0.00  0.00    -0.284 N 
HETATM   10  H   UNK N   1      33.203  15.498   8.550  0.00  0.00     0.184 HD
HETATM   11  O   UNK N   1      34.221  17.998   7.024  0.00  0.00    -0.266 OA
BRANCH   9  12
HETATM   12  N   UNK N   1      35.232  15.656   8.408  0.00  0.00    -0.220 NA
HETATM   13  C   UNK N   1      35.614  14.526   7.551  0.00  0.00     0.076 C 
HETATM   14  C   UNK N   1      35.005  13.216   8.041  0.00  0.00     0.021 C 
HETATM   15  C   UNK N   1      35.287  14.783   6.087  0.00  0.00     0.028 C 
HETATM   16  C   UNK N   1      35.484  12.947   9.464  0.00  0.00     0.003 C 
HETATM   17  C   UNK N   1      35.103  14.104  10.382  0.00  0.00     0.021 C 
HETATM   18  C   UNK N   1      35.650  15.411   9.806  0.00  0.00     0.076 C 
HETATM   19  C   UNK N   1      35.504  16.623  10.717  0.00  0.00     0.028 C 
ENDBRANCH   9  12
ENDBRANCH   1   8
BRANCH   5  20
HETATM   20  S   UNK N   1      28.549  18.133   8.799  0.00  0.00     0.258 S 
HETATM   21  O   UNK N   1      27.662  17.002   9.339  0.00  0.00    -0.201 OA
HETATM   22  O   UNK N   1      29.237  18.652  10.071  0.00  0.00    -0.201 OA
BRANCH  20  23
HETATM   23  N   UNK N   1      27.448  19.439   8.355  0.00  0.00    -0.324 N 
HETATM   24  H   UNK N   1      26.985  19.931   7.591  0.00  0.00     0.169 HD
HETATM   25  H   UNK N   1      27.152  19.888   9.221  0.00  0.00     0.169 HD
ENDBRANCH  20  23
ENDBRANCH   5  20
TORSDOF 4
ENDMDL
MODEL 3
REMARK VINA RESULT:      -6.4     10.824     13.625
REMARK  4 active torsions:
REMARK  status: ('A' for Active; 'I' for Inactive)
REMARK    1  A    between atoms: N_7  and  N_8 
REMARK       I    between atoms: N_8  and  C_9 
REMARK    2  A    between atoms: C_9  and  C_11 
REMARK    3  A    between atoms: C_15  and  S_17 
REMARK    4  A    between atoms: S_17  and  N_20 
ROOT
HETATM    1  C   UNK N   1      34.570  14.075  10.192  0.00  0.00     0.034 A 
HETATM    2  C   UNK N   1      33.868  13.158   9.395  0.00  0.00     0.019 A 
HETATM    3  C   UNK N   1      33.143  13.603   8.286  0.00  0.00     0.026 A 
HETATM    4  C   UNK N   1      33.166  14.954   7.925  0.00  0.00     0.057 A 
HETATM    5  C   UNK N   1      33.892  15.873   8.708  0.00  0.00     0.102 A 
HETATM    6  C   UNK N   1      34.569  15.427   9.843  0.00  0.00     0.044 A 
HETATM    7 Cl   UNK N   1      32.322  15.453   6.468  0.00  0.00    -0.083 Cl
ENDROOT
BRANCH   1   8
HETATM    8  C   UNK N   1      35.476  13.614  11.258  0.00  0.00     0.266 C 
HETATM    9  N   UNK N   1      34.965  12.836  12.256  0.00  0.00    -0.284 N 
HETATM   10  H   UNK N   1      33.984  12.843  12.338  0.00  0.00     0.184 HD
HETATM   11  O   UNK N   1      36.677  13.812  11.143  0.00  0.00    -0.266 OA
BRANCH   9  12
HETATM   12  N   UNK N   1      35.650  12.022  13.185  0.00  0.00    -0.220 NA
HETATM   13  C   UNK N   1      35.192  10.629  13.111  0.00  0.00     0.076 C 
HETATM   14  C   UNK N   1      33.838  10.443  13.788  0.00  0.00     0.021 C 
HETATM   15  C   UNK N   1      35.181  10.105  11.682  0.00  0.00     0.028 C 
HETATM   16  C   UNK N   1      33.953  10.855  15.253  0.00  0.00     0.003 C 
HETATM   17  C   UNK N   1      34.428  12.300  15.364  0.00  0.00     0.021 C 
HETATM   18  C   UNK N   1      35.738  12.466  14.594  0.00  0.00     0.076 C 
HETATM   19  C   UNK N   1      36.422  13.814  14.776  0.00  0.00     0.028 C 
ENDBRANCH   9  12
ENDBRANCH   1   8
BRANCH   5  20
HETATM   20  S   UNK N   1      34.088  17.586   8.215  0.00  0.00     0.258 S 
HETATM   21  O   UNK N   1      35.127  18.380   9.019  0.00  0.00    -0.201 OA
HETATM   22  O   UNK N   1      34.614  17.710   6.777  0.00  0.00    -0.201 OA
BRANCH  20  23
HETATM   23  N   UNK N   1      32.623  18.570   8.213  0.00  0.00    -0.324 N 
HETATM   24  H   UNK N   1      31.681  18.684   8.585  0.00  0.00     0.169 HD
HETATM   25  H   UNK N   1      32.787  19.348   7.575  0.00  0.00     0.169 HD
ENDBRANCH  20  23
ENDBRANCH   5  20
TORSDOF 4
ENDMDL
MODEL 4
REMARK VINA RESULT:      -6.3      5.628      8.111
REMARK  4 active torsions:
REMARK  status: ('A' for Active; 'I' for Inactive)
REMARK    1  A    between atoms: N_7  and  N_8 
REMARK       I    between atoms: N_8  and  C_9 
REMARK    2  A    between atoms: C_9  and  C_11 
REMARK    3  A    between atoms: C_15  and  S_17 
REMARK    4  A    between atoms: S_17  and  N_20 
ROOT
HETATM    1  C   UNK N   1      21.185  15.068   8.274  0.00  0.00     0.034 A 
HETATM    2  C   UNK N   1      20.220  14.758   9.243  0.00  0.00     0.019 A 
HETATM    3  C   UNK N   1      20.464  13.748  10.179  0.00  0.00     0.026 A 
HETATM    4  C   UNK N   1      21.696  13.087  10.196  0.00  0.00     0.057 A 
HETATM    5  C   UNK N   1      22.677  13.415   9.241  0.00  0.00     0.102 A 
HETATM    6  C   UNK N   1      22.404  14.387   8.279  0.00  0.00     0.044 A 
HETATM    7 Cl   UNK N   1      21.996  11.895  11.451  0.00  0.00    -0.083 Cl
ENDROOT
BRANCH   1   8
HETATM    8  C   UNK N   1      21.024  16.237   7.391  0.00  0.00     0.266 C 
HETATM    9  N   UNK N   1      21.078  16.045   6.041  0.00  0.00    -0.284 N 
HETATM   10  H   UNK N   1      21.470  15.190   5.750  0.00  0.00     0.184 HD
HETATM   11  O   UNK N   1      20.701  17.309   7.879  0.00  0.00    -0.266 OA
BRANCH   9  12
HETATM   12  N   UNK N   1      20.647  16.903   5.005  0.00  0.00    -0.220 NA
HETATM   13  C   UNK N   1      19.533  16.312   4.253  0.00  0.00     0.076 C 
HETATM   14  C   UNK N   1      20.012  15.226   3.296  0.00  0.00     0.021 C 
HETATM   15  C   UNK N   1      18.429  15.805   5.170  0.00  0.00     0.028 C 
HETATM   16  C   UNK N   1      21.012  15.832   2.315  0.00  0.00     0.003 C 
HETATM   17  C   UNK N   1      22.184  16.456   3.067  0.00  0.00     0.021 C 
HETATM   18  C   UNK N   1      21.655  17.470   4.082  0.00  0.00     0.076 C 
HETATM   19  C   UNK N   1      22.726  18.304   4.771  0.00  0.00     0.028 C 
ENDBRANCH   9  12
ENDBRANCH   1   8
BRANCH   5  20
HETATM   20  S   UNK N   1      24.328  12.717   9.304  0.00  0.00     0.258 S 
HETATM   21  O   UNK N   1      24.411  11.213   9.008  0.00  0.00    -0.201 OA
HETATM   22  O   UNK N   1      25.244  13.319   8.228  0.00  0.00    -0.201 OA
BRANCH  20  23
HETATM   23  N   UNK N   1      25.223  12.965  10.805  0.00  0.00    -0.324 N 
HETATM   24  H   UNK N   1      25.527  12.552  11.685  0.00  0.00     0.169 HD
HETATM   25  H   UNK N   1      25.588  13.917  10.780  0.00  0.00     0.169 HD
ENDBRANCH  20  23
ENDBRANCH   5  20
TORSDOF 4
ENDMDL
MODEL 5
REMARK VINA RESULT:      -6.2     11.799     13.367
REMARK  4 active torsions:
REMARK  status: ('A' for Active; 'I' for Inactive)
REMARK    1  A    between atoms: N_7  and  N_8 
REMARK       I    between atoms: N_8  and  C_9 
REMARK    2  A    between atoms: C_9  and  C_11 
REMARK    3  A    between atoms: C_15  and  S_17 
REMARK    4  A    between atoms: S_17  and  N_20 
ROOT
HETATM    1  C   UNK N   1      29.061  23.226  -3.438  0.00  0.00     0.034 A 
HETATM    2  C   UNK N   1      29.914  23.153  -2.326  0.00  0.00     0.019 A 
HETATM    3  C   UNK N   1      31.180  22.574  -2.450  0.00  0.00     0.026 A 
HETATM    4  C   UNK N   1      31.630  22.122  -3.695  0.00  0.00     0.057 A 
HETATM    5  C   UNK N   1      30.786  22.218  -4.818  0.00  0.00     0.102 A 
HETATM    6  C   UNK N   1      29.505  22.750  -4.674  0.00  0.00     0.044 A 
HETATM    7 Cl   UNK N   1      33.265  21.492  -3.824  0.00  0.00    -0.083 Cl
ENDROOT
BRANCH   1   8
HETATM    8  C   UNK N   1      27.799  23.982  -3.376  0.00  0.00     0.266 C 
HETATM    9  N   UNK N   1      27.412  24.693  -4.474  0.00  0.00    -0.284 N 
HETATM   10  H   UNK N   1      28.117  24.862  -5.140  0.00  0.00     0.184 HD
HETATM   11  O   UNK N   1      27.064  23.832  -2.411  0.00  0.00    -0.266 OA
BRANCH   9  12
HETATM   12  N   UNK N   1      26.139  25.221  -4.787  0.00  0.00    -0.220 NA
HETATM   13  C   UNK N   1      25.665  24.729  -6.087  0.00  0.00     0.076 C 
HETATM   14  C   UNK N   1      26.359  25.437  -7.246  0.00  0.00     0.021 C 
HETATM   15  C   UNK N   1      25.782  23.216  -6.204  0.00  0.00     0.028 C 
HETATM   16  C   UNK N   1      26.087  26.935  -7.148  0.00  0.00     0.003 C 
HETATM   17  C   UNK N   1      26.569  27.478  -5.806  0.00  0.00     0.021 C 
HETATM   18  C   UNK N   1      25.923  26.680  -4.673  0.00  0.00     0.076 C 
HETATM   19  C   UNK N   1      26.171  27.235  -3.277  0.00  0.00     0.028 C 
ENDBRANCH   9  12
ENDBRANCH   1   8
BRANCH   5  20
HETATM   20  S   UNK N   1      31.356  21.802  -6.466  0.00  0.00     0.258 S 
HETATM   21  O   UNK N   1      31.738  20.330  -6.672  0.00  0.00    -0.201 OA
HETATM   22  O   UNK N   1      30.259  22.011  -7.521  0.00  0.00    -0.201 OA
BRANCH  20  23
HETATM   23  N   UNK N   1      32.716  22.744  -7.083  0.00  0.00    -0.324 N 
HETATM   24  H   UNK N   1      33.065  23.325  -7.845  0.00  0.00     0.169 HD
HETATM   25  H   UNK N   1      33.460  22.683  -6.390  0.00  0.00     0.169 HD
ENDBRANCH  20  23
ENDBRANCH   5  20
TORSDOF 4
ENDMDL
MODEL 6
REMARK VINA RESULT:      -6.2     12.393     15.303
REMARK  4 active torsions:
REMARK  status: ('A' for Active; 'I' for Inactive)
REMARK    1  A    between atoms: N_7  and  N_8 
REMARK       I    between atoms: N_8  and  C_9 
REMARK    2  A    between atoms: C_9  and  C_11 
REMARK    3  A    between atoms: C_15  and  S_17 
REMARK    4  A    between atoms: S_17  and  N_20 
ROOT
HETATM    1  C   UNK N   1      35.131  13.559  12.246  0.00  0.00     0.034 A 
HETATM    2  C   UNK N   1      34.938  12.362  11.541  0.00  0.00     0.019 A 
HETATM    3  C   UNK N   1      34.517  12.392  10.208  0.00  0.00     0.026 A 
HETATM    4  C   UNK N   1      34.349  13.615   9.550  0.00  0.00     0.057 A 
HETATM    5  C   UNK N   1      34.568  14.818  10.248  0.00  0.00     0.102 A 
HETATM    6  C   UNK N   1      34.937  14.778  11.592  0.00  0.00     0.044 A 
HETATM    7 Cl   UNK N   1      33.916  13.604   7.848  0.00  0.00    -0.083 Cl
ENDROOT
BRANCH   1   8
HETATM    8  C   UNK N   1      35.736  13.559  13.589  0.00  0.00     0.266 C 
HETATM    9  N   UNK N   1      35.645  12.426  14.343  0.00  0.00    -0.284 N 
HETATM   10  H   UNK N   1      34.968  11.774  14.050  0.00  0.00     0.184 HD
HETATM   11  O   UNK N   1      36.426  14.509  13.929  0.00  0.00    -0.266 OA
BRANCH   9  12
HETATM   12  N   UNK N   1      36.388  12.060  15.487  0.00  0.00    -0.220 NA
HETATM   13  C   UNK N   1      37.213  10.873  15.228  0.00  0.00     0.076 C 
HETATM   14  C   UNK N   1      36.380   9.595  15.231  0.00  0.00     0.021 C 
HETATM   15  C   UNK N   1      38.025  11.009  13.949  0.00  0.00     0.028 C 
HETATM   16  C   UNK N   1      35.702   9.446  16.590  0.00  0.00     0.003 C 
HETATM   17  C   UNK N   1      34.836  10.666  16.890  0.00  0.00     0.021 C 
HETATM   18  C   UNK N   1      35.687  11.932  16.784  0.00  0.00     0.076 C 
HETATM   19  C   UNK N   1      34.994  13.209  17.241  0.00  0.00     0.028 C 
ENDBRANCH   9  12
ENDBRANCH   1   8
BRANCH   5  20
HETATM   20  S   UNK N   1      34.520  16.410   9.424  0.00  0.00     0.258 S 
HETATM   21  O   UNK N   1      35.366  17.510  10.081  0.00  0.00    -0.201 OA
HETATM   22  O   UNK N   1      35.110  16.339   8.007  0.00  0.00    -0.201 OA
BRANCH  20  23
HETATM   23  N   UNK N   1      32.920  17.114   9.177  0.00  0.00    -0.324 N 
HETATM   24  H   UNK N   1      32.121  17.570   9.616  0.00  0.00     0.169 HD
HETATM   25  H   UNK N   1      32.707  17.030   8.183  0.00  0.00     0.169 HD
ENDBRANCH  20  23
ENDBRANCH   5  20
TORSDOF 4
ENDMDL
MODEL 7
REMARK VINA RESULT:      -6.2      6.364      8.806
REMARK  4 active torsions:
REMARK  status: ('A' for Active; 'I' for Inactive)
REMARK    1  A    between atoms: N_7  and  N_8 
REMARK       I    between atoms: N_8  and  C_9 
REMARK    2  A    between atoms: C_9  and  C_11 
REMARK    3  A    between atoms: C_15  and  S_17 
REMARK    4  A    between atoms: S_17  and  N_20 
ROOT
HETATM    1  C   UNK N   1      30.161  17.670   7.934  0.00  0.00     0.034 A 
HETATM    2  C   UNK N   1      31.250  18.322   8.530  0.00  0.00     0.019 A 
HETATM    3  C   UNK N   1      32.523  17.745   8.489  0.00  0.00     0.026 A 
HETATM    4  C   UNK N   1      32.731  16.547   7.799  0.00  0.00     0.057 A 
HETATM    5  C   UNK N   1      31.643  15.903   7.176  0.00  0.00     0.102 A 
HETATM    6  C   UNK N   1      30.369  16.461   7.267  0.00  0.00     0.044 A 
HETATM    7 Cl   UNK N   1      34.363  15.908   7.689  0.00  0.00    -0.083 Cl
ENDROOT
BRANCH   1   8
HETATM    8  C   UNK N   1      28.852  18.335   7.813  0.00  0.00     0.266 C 
HETATM    9  N   UNK N   1      28.311  18.486   6.570  0.00  0.00    -0.284 N 
HETATM   10  H   UNK N   1      28.937  18.372   5.819  0.00  0.00     0.184 HD
HETATM   11  O   UNK N   1      28.223  18.596   8.828  0.00  0.00    -0.266 OA
BRANCH   9  12
HETATM   12  N   UNK N   1      26.977  18.783   6.213  0.00  0.00    -0.220 NA
HETATM   13  C   UNK N   1      26.406  17.728   5.365  0.00  0.00     0.076 C 
HETATM   14  C   UNK N   1      26.920  17.816   3.932  0.00  0.00     0.021 C 
HETATM   15  C   UNK N   1      26.623  16.341   5.953  0.00  0.00     0.028 C 
HETATM   16  C   UNK N   1      26.549  19.179   3.353  0.00  0.00     0.003 C 
HETATM   17  C   UNK N   1      27.128  20.298   4.213  0.00  0.00     0.021 C 
HETATM   18  C   UNK N   1      26.666  20.119   5.660  0.00  0.00     0.076 C 
HETATM   19  C   UNK N   1      27.017  21.271   6.591  0.00  0.00     0.028 C 
ENDBRANCH   9  12
ENDBRANCH   1   8
BRANCH   5  20
HETATM   20  S   UNK N   1      31.868  14.451   6.148  0.00  0.00     0.258 S 
HETATM   21  O   UNK N   1      32.434  13.221   6.872  0.00  0.00    -0.201 OA
HETATM   22  O   UNK N   1      30.533  13.928   5.598  0.00  0.00    -0.201 OA
BRANCH  20  23
HETATM   23  N   UNK N   1      32.863  14.662   4.706  0.00  0.00    -0.324 N 
HETATM   24  H   UNK N   1      33.237  14.223   3.865  0.00  0.00     0.169 HD
HETATM   25  H   UNK N   1      33.207  15.622   4.718  0.00  0.00     0.169 HD
ENDBRANCH  20  23
ENDBRANCH   5  20
TORSDOF 4
ENDMDL
MODEL 8
REMARK VINA RESULT:      -6.2      3.854      4.631
REMARK  4 active torsions:
REMARK  status: ('A' for Active; 'I' for Inactive)
REMARK    1  A    between atoms: N_7  and  N_8 
REMARK       I    between atoms: N_8  and  C_9 
REMARK    2  A    between atoms: C_9  and  C_11 
REMARK    3  A    between atoms: C_15  and  S_17 
REMARK    4  A    between atoms: S_17  and  N_20 
ROOT
HETATM    1  C   UNK N   1      22.827  17.012   5.603  0.00  0.00     0.034 A 
HETATM    2  C   UNK N   1      21.896  17.949   6.076  0.00  0.00     0.019 A 
HETATM    3  C   UNK N   1      20.952  17.576   7.037  0.00  0.00     0.026 A 
HETATM    4  C   UNK N   1      20.970  16.288   7.580  0.00  0.00     0.057 A 
HETATM    5  C   UNK N   1      21.920  15.353   7.126  0.00  0.00     0.102 A 
HETATM    6  C   UNK N   1      22.825  15.718   6.130  0.00  0.00     0.044 A 
HETATM    7 Cl   UNK N   1      19.828  15.894   8.856  0.00  0.00    -0.083 Cl
ENDROOT
BRANCH   1   8
HETATM    8  C   UNK N   1      23.935  17.422   4.724  0.00  0.00     0.266 C 
HETATM    9  N   UNK N   1      24.914  18.220   5.240  0.00  0.00    -0.284 N 
HETATM   10  H   UNK N   1      24.688  18.676   6.083  0.00  0.00     0.184 HD
HETATM   11  O   UNK N   1      24.030  16.920   3.614  0.00  0.00    -0.266 OA
BRANCH   9  12
HETATM   12  N   UNK N   1      26.205  18.483   4.731  0.00  0.00    -0.220 NA
HETATM   13  C   UNK N   1      27.245  18.085   5.689  0.00  0.00     0.076 C 
HETATM   14  C   UNK N   1      27.376  19.090   6.830  0.00  0.00     0.021 C 
HETATM   15  C   UNK N   1      27.033  16.671   6.210  0.00  0.00     0.028 C 
HETATM   16  C   UNK N   1      27.726  20.457   6.250  0.00  0.00     0.003 C 
HETATM   17  C   UNK N   1      26.663  20.900   5.249  0.00  0.00     0.021 C 
HETATM   18  C   UNK N   1      26.496  19.823   4.176  0.00  0.00     0.076 C 
HETATM   19  C   UNK N   1      25.601  20.216   3.009  0.00  0.00     0.028 C 
ENDBRANCH   9  12
ENDBRANCH   1   8
BRANCH   5  20
HETATM   20  S   UNK N   1      22.097  13.739   7.889  0.00  0.00     0.258 S 
HETATM   21  O   UNK N   1      20.886  12.809   7.733  0.00  0.00    -0.201 OA
HETATM   22  O   UNK N   1      23.228  12.923   7.244  0.00  0.00    -0.201 OA
BRANCH  20  23
HETATM   23  N   UNK N   1      22.497  13.728   9.608  0.00  0.00    -0.324 N 
HETATM   24  H   UNK N   1      23.207  13.517  10.309  0.00  0.00     0.169 HD
HETATM   25  H   UNK N   1      21.680  14.077  10.107  0.00  0.00     0.169 HD
ENDBRANCH  20  23
ENDBRANCH   5  20
TORSDOF 4
ENDMDL
MODEL 9
REMARK VINA RESULT:      -6.2      4.078      4.782
REMARK  4 active torsions:
REMARK  status: ('A' for Active; 'I' for Inactive)
REMARK    1  A    between atoms: N_7  and  N_8 
REMARK       I    between atoms: N_8  and  C_9 
REMARK    2  A    between atoms: C_9  and  C_11 
REMARK    3  A    between atoms: C_15  and  S_17 
REMARK    4  A    between atoms: S_17  and  N_20 
ROOT
HETATM    1  C   UNK N   1      24.602  15.435   6.373  0.00  0.00     0.034 A 
HETATM    2  C   UNK N   1      25.438  14.642   7.173  0.00  0.00     0.019 A 
HETATM    3  C   UNK N   1      24.888  13.675   8.020  0.00  0.00     0.026 A 
HETATM    4  C   UNK N   1      23.508  13.447   8.027  0.00  0.00     0.057 A 
HETATM    5  C   UNK N   1      22.669  14.224   7.205  0.00  0.00     0.102 A 
HETATM    6  C   UNK N   1      23.222  15.221   6.402  0.00  0.00     0.044 A 
HETATM    7 Cl   UNK N   1      22.872  12.156   9.033  0.00  0.00    -0.083 Cl
ENDROOT
BRANCH   1   8
HETATM    8  C   UNK N   1      25.162  16.336   5.351  0.00  0.00     0.266 C 
HETATM    9  N   UNK N   1      25.854  17.437   5.763  0.00  0.00    -0.284 N 
HETATM   10  H   UNK N   1      25.719  17.696   6.704  0.00  0.00     0.184 HD
HETATM   11  O   UNK N   1      25.125  15.998   4.177  0.00  0.00    -0.266 OA
BRANCH   9  12
HETATM   12  N   UNK N   1      26.738  18.257   5.027  0.00  0.00    -0.220 NA
HETATM   13  C   UNK N   1      28.038  18.375   5.699  0.00  0.00     0.076 C 
HETATM   14  C   UNK N   1      27.975  19.330   6.887  0.00  0.00     0.021 C 
HETATM   15  C   UNK N   1      28.601  17.020   6.100  0.00  0.00     0.028 C 
HETATM   16  C   UNK N   1      27.539  20.708   6.395  0.00  0.00     0.003 C 
HETATM   17  C   UNK N   1      26.188  20.619   5.691  0.00  0.00     0.021 C 
HETATM   18  C   UNK N   1      26.267  19.583   4.568  0.00  0.00     0.076 C 
HETATM   19  C   UNK N   1      25.045  19.526   3.662  0.00  0.00     0.028 C 
ENDBRANCH   9  12
ENDBRANCH   1   8
BRANCH   5  20
HETATM   20  S   UNK N   1      20.916  13.880   7.051  0.00  0.00     0.258 S 
HETATM   21  O   UNK N   1      20.566  12.431   6.684  0.00  0.00    -0.201 OA
HETATM   22  O   UNK N   1      20.176  14.073   8.384  0.00  0.00    -0.201 OA
BRANCH  20  23
HETATM   23  N   UNK N   1      20.017  14.895   5.921  0.00  0.00    -0.324 N 
HETATM   24  H   UNK N   1      20.025  15.745   5.359  0.00  0.00     0.169 HD
HETATM   25  H   UNK N   1      19.116  14.443   5.766  0.00  0.00     0.169 HD
ENDBRANCH  20  23
ENDBRANCH   5  20
TORSDOF 4
ENDMDL
