REMARK  11 active torsions:
REMARK  status: ('A' for Active; 'I' for Inactive)
REMARK    1  A    between atoms: C_2  and  C_1 
REMARK    2  A    between atoms: O_7  and  C_1 
REMARK    3  A    between atoms: C_3  and  C_2 
REMARK    4  A    between atoms: C_2  and  O_8 
REMARK    5  A    between atoms: C_4  and  C_3 
REMARK    6  A    between atoms: C_3  and  O_9 
REMARK    7  A    between atoms: C_5  and  C_4 
REMARK    8  A    between atoms: C_4  and  O_10 
REMARK    9  A    between atoms: C_6  and  C_5 
REMARK   10  A    between atoms: C_5  and  O_11 
REMARK   11  A    between atoms: K_14  and  K_14 
ROOT
HETATM    1  K   UNK N   1      10.774   0.618  -0.055  0.00  0.00     0.000 K 
ENDROOT
TORSDOF 11
