MODEL 1
REMARK VINA RESULT:      -5.9      0.000      0.000
REMARK  1 active torsions:
REMARK  status: ('A' for Active; 'I' for Inactive)
REMARK    1  A    between atoms: O_17  and  C_9 
ROOT
HETATM    1  C   UNK N   1      27.455  16.418   6.274  0.00  0.00     0.070 C 
HETATM    2  C   UNK N   1      34.233  17.463   7.608  0.00  0.00     0.038 A 
HETATM    3  C   UNK N   1      33.054  17.923   8.222  0.00  0.00     0.017 A 
HETATM    4  C   UNK N   1      30.003  18.579   9.168  0.00  0.00     0.061 C 
HETATM    5  C   UNK N   1      28.479  18.372   9.374  0.00  0.00     0.124 C 
HETATM    6  C   UNK N   1      32.929  16.138   6.012  0.00  0.00     0.067 A 
HETATM    7  C   UNK N   1      28.304  17.075   7.308  0.00  0.00     0.028 C 
HETATM    8  C   UNK N   1      34.178  16.567   6.504  0.00  0.00     0.070 A 
HETATM    9  C   UNK N   1      31.843  17.470   7.708  0.00  0.00    -0.001 A 
HETATM   10  C   UNK N   1      30.549  17.722   8.082  0.00  0.00    -0.015 A 
HETATM   11  C   UNK N   1      31.782  16.613   6.639  0.00  0.00     0.046 A 
HETATM   12  C   UNK N   1      29.760  17.018   7.217  0.00  0.00     0.062 A 
HETATM   13  N   UNK N   1      27.749  17.706   8.290  0.00  0.00    -0.391 N 
ATOM     14  HN  UNK N   1      26.729  17.743   8.313  1.00  0.00     0.159 HD
HETATM   15  N   UNK N   1      30.500  16.329   6.318  0.00  0.00    -0.353 N 
HETATM   16  H   UNK N   1      30.177  15.749   5.591  0.00  0.00     0.166 HD
ENDROOT
BRANCH   8  17
HETATM   17  O   UNK N   1      35.306  16.113   5.906  0.00  0.00    -0.356 OA
HETATM   18  C   UNK N   1      35.635  14.779   5.836  0.00  0.00     0.210 C 
ENDBRANCH   8  17
TORSDOF 1
ENDMDL
MODEL 2
REMARK VINA RESULT:      -5.7     16.118     17.499
REMARK  1 active torsions:
REMARK  status: ('A' for Active; 'I' for Inactive)
REMARK    1  A    between atoms: O_17  and  C_9 
ROOT
HETATM    1  C   UNK N   1      25.176  25.061 -10.077  0.00  0.00     0.070 C 
HETATM    2  C   UNK N   1      26.277  26.424  -3.313  0.00  0.00     0.038 A 
HETATM    3  C   UNK N   1      26.312  25.238  -4.070  0.00  0.00     0.017 A 
HETATM    4  C   UNK N   1      26.261  22.922  -6.364  0.00  0.00     0.061 C 
HETATM    5  C   UNK N   1      26.378  22.282  -7.772  0.00  0.00     0.124 C 
HETATM    6  C   UNK N   1      25.775  27.734  -5.322  0.00  0.00     0.067 A 
HETATM    7  C   UNK N   1      25.630  24.346  -8.850  0.00  0.00     0.028 C 
HETATM    8  C   UNK N   1      26.012  27.677  -3.934  0.00  0.00     0.070 A 
HETATM    9  C   UNK N   1      26.078  25.341  -5.437  0.00  0.00    -0.001 A 
HETATM   10  C   UNK N   1      26.052  24.393  -6.426  0.00  0.00    -0.015 A 
HETATM   11  C   UNK N   1      25.814  26.544  -6.041  0.00  0.00     0.046 A 
HETATM   12  C   UNK N   1      25.762  25.059  -7.583  0.00  0.00     0.062 A 
HETATM   13  N   UNK N   1      25.905  23.084  -8.906  0.00  0.00    -0.391 N 
ATOM     14  HN  UNK N   1      25.783  22.612  -9.802  1.00  0.00     0.159 HD
HETATM   15  N   UNK N   1      25.610  26.386  -7.368  0.00  0.00    -0.353 N 
HETATM   16  H   UNK N   1      25.397  27.082  -8.031  0.00  0.00     0.166 HD
ENDROOT
BRANCH   8  17
HETATM   17  O   UNK N   1      25.979  28.826  -3.219  0.00  0.00    -0.356 OA
HETATM   18  C   UNK N   1      26.465  30.023  -3.695  0.00  0.00     0.210 C 
ENDBRANCH   8  17
TORSDOF 1
ENDMDL
MODEL 3
REMARK VINA RESULT:      -5.6      1.350      2.367
REMARK  1 active torsions:
REMARK  status: ('A' for Active; 'I' for Inactive)
REMARK    1  A    between atoms: O_17  and  C_9 
ROOT
HETATM    1  C   UNK N   1      28.194  17.695   9.350  0.00  0.00     0.070 C 
HETATM    2  C   UNK N   1      33.278  16.684   4.665  0.00  0.00     0.038 A 
HETATM    3  C   UNK N   1      31.925  17.051   4.546  0.00  0.00     0.017 A 
HETATM    4  C   UNK N   1      28.803  17.884   4.975  0.00  0.00     0.061 C 
HETATM    5  C   UNK N   1      27.545  18.459   5.678  0.00  0.00     0.124 C 
HETATM    6  C   UNK N   1      33.092  16.649   7.108  0.00  0.00     0.067 A 
HETATM    7  C   UNK N   1      28.412  17.850   7.883  0.00  0.00     0.028 C 
HETATM    8  C   UNK N   1      33.870  16.485   5.944  0.00  0.00     0.070 A 
HETATM    9  C   UNK N   1      31.196  17.207   5.720  0.00  0.00    -0.001 A 
HETATM   10  C   UNK N   1      29.890  17.557   5.936  0.00  0.00    -0.015 A 
HETATM   11  C   UNK N   1      31.757  17.008   6.956  0.00  0.00     0.046 A 
HETATM   12  C   UNK N   1      29.711  17.545   7.290  0.00  0.00     0.062 A 
HETATM   13  N   UNK N   1      27.443  18.252   7.128  0.00  0.00    -0.391 N 
ATOM     14  HN  UNK N   1      26.543  18.439   7.571  1.00  0.00     0.159 HD
HETATM   15  N   UNK N   1      30.850  17.207   7.939  0.00  0.00    -0.353 N 
HETATM   16  H   UNK N   1      30.987  17.123   8.910  0.00  0.00     0.166 HD
ENDROOT
BRANCH   8  17
HETATM   17  O   UNK N   1      35.172  16.136   6.073  0.00  0.00    -0.356 OA
HETATM   18  C   UNK N   1      35.657  14.896   5.725  0.00  0.00     0.210 C 
ENDBRANCH   8  17
TORSDOF 1
ENDMDL
MODEL 4
REMARK VINA RESULT:      -5.5     11.076     12.071
REMARK  1 active torsions:
REMARK  status: ('A' for Active; 'I' for Inactive)
REMARK    1  A    between atoms: O_17  and  C_9 
ROOT
HETATM    1  C   UNK N   1      19.566  16.688   0.402  0.00  0.00     0.070 C 
HETATM    2  C   UNK N   1      20.900  16.489   7.259  0.00  0.00     0.038 A 
HETATM    3  C   UNK N   1      21.076  17.481   6.276  0.00  0.00     0.017 A 
HETATM    4  C   UNK N   1      21.178  19.307   3.578  0.00  0.00     0.061 C 
HETATM    5  C   UNK N   1      20.781  19.830   2.172  0.00  0.00     0.124 C 
HETATM    6  C   UNK N   1      19.892  14.983   5.609  0.00  0.00     0.067 A 
HETATM    7  C   UNK N   1      20.026  17.609   1.481  0.00  0.00     0.028 C 
HETATM    8  C   UNK N   1      20.305  15.238   6.932  0.00  0.00     0.070 A 
HETATM    9  C   UNK N   1      20.650  17.190   4.985  0.00  0.00    -0.001 A 
HETATM   10  C   UNK N   1      20.675  17.931   3.833  0.00  0.00    -0.015 A 
HETATM   11  C   UNK N   1      20.083  15.983   4.661  0.00  0.00     0.046 A 
HETATM   12  C   UNK N   1      20.134  17.140   2.860  0.00  0.00     0.062 A 
HETATM   13  N   UNK N   1      20.336  18.830   1.194  0.00  0.00    -0.391 N 
ATOM     14  HN  UNK N   1      20.267  19.120   0.218  1.00  0.00     0.159 HD
HETATM   15  N   UNK N   1      19.765  15.933   3.348  0.00  0.00    -0.353 N 
HETATM   16  H   UNK N   1      19.355  15.185   2.857  0.00  0.00     0.166 HD
ENDROOT
BRANCH   8  17
HETATM   17  O   UNK N   1      20.125  14.276   7.868  0.00  0.00    -0.356 OA
HETATM   18  C   UNK N   1      20.288  14.499   9.217  0.00  0.00     0.210 C 
ENDBRANCH   8  17
TORSDOF 1
ENDMDL
MODEL 5
REMARK VINA RESULT:      -5.5     10.685     11.526
REMARK  1 active torsions:
REMARK  status: ('A' for Active; 'I' for Inactive)
REMARK    1  A    between atoms: O_17  and  C_9 
ROOT
HETATM    1  C   UNK N   1      35.305  15.117  18.409  0.00  0.00     0.070 C 
HETATM    2  C   UNK N   1      34.748   9.631  14.118  0.00  0.00     0.038 A 
HETATM    3  C   UNK N   1      34.995   9.747  15.498  0.00  0.00     0.017 A 
HETATM    4  C   UNK N   1      35.480  10.703  18.577  0.00  0.00     0.061 C 
HETATM    5  C   UNK N   1      35.387  11.594  19.844  0.00  0.00     0.124 C 
HETATM    6  C   UNK N   1      34.523  12.063  13.918  0.00  0.00     0.067 A 
HETATM    7  C   UNK N   1      35.276  13.629  18.493  0.00  0.00     0.028 C 
HETATM    8  C   UNK N   1      34.508  10.786  13.321  0.00  0.00     0.070 A 
HETATM    9  C   UNK N   1      34.996  11.025  16.046  0.00  0.00    -0.001 A 
HETATM   10  C   UNK N   1      35.192  11.461  17.330  0.00  0.00    -0.015 A 
HETATM   11  C   UNK N   1      34.774  12.144  15.283  0.00  0.00     0.046 A 
HETATM   12  C   UNK N   1      35.093  12.823  17.289  0.00  0.00     0.062 A 
HETATM   13  N   UNK N   1      35.418  13.046  19.637  0.00  0.00    -0.391 N 
ATOM     14  HN  UNK N   1      35.563  13.638  20.456  1.00  0.00     0.159 HD
HETATM   15  N   UNK N   1      34.837  13.265  16.036  0.00  0.00    -0.353 N 
HETATM   16  H   UNK N   1      34.723  14.196  15.738  0.00  0.00     0.166 HD
ENDROOT
BRANCH   8  17
HETATM   17  O   UNK N   1      34.265  10.689  11.993  0.00  0.00    -0.356 OA
HETATM   18  C   UNK N   1      34.820  11.538  11.062  0.00  0.00     0.210 C 
ENDBRANCH   8  17
TORSDOF 1
ENDMDL
MODEL 6
REMARK VINA RESULT:      -5.5      6.218      7.534
REMARK  1 active torsions:
REMARK  status: ('A' for Active; 'I' for Inactive)
REMARK    1  A    between atoms: O_17  and  C_9 
ROOT
HETATM    1  C   UNK N   1      34.225  10.586  13.216  0.00  0.00     0.070 C 
HETATM    2  C   UNK N   1      35.248  16.823  10.236  0.00  0.00     0.038 A 
HETATM    3  C   UNK N   1      35.710  16.245  11.432  0.00  0.00     0.017 A 
HETATM    4  C   UNK N   1      36.434  14.339  13.977  0.00  0.00     0.061 C 
HETATM    5  C   UNK N   1      36.683  13.035  14.779  0.00  0.00     0.124 C 
HETATM    6  C   UNK N   1      34.066  14.757   9.653  0.00  0.00     0.067 A 
HETATM    7  C   UNK N   1      35.045  11.811  13.436  0.00  0.00     0.028 C 
HETATM    8  C   UNK N   1      34.427  16.083   9.339  0.00  0.00     0.070 A 
HETATM    9  C   UNK N   1      35.335  14.933  11.700  0.00  0.00    -0.001 A 
HETATM   10  C   UNK N   1      35.622  14.105  12.753  0.00  0.00    -0.015 A 
HETATM   11  C   UNK N   1      34.537  14.216  10.844  0.00  0.00     0.046 A 
HETATM   12  C   UNK N   1      34.977  12.928  12.497  0.00  0.00     0.062 A 
HETATM   13  N   UNK N   1      35.818  11.890  14.469  0.00  0.00    -0.391 N 
ATOM     14  HN  UNK N   1      35.827  11.101  15.116  1.00  0.00     0.159 HD
HETATM   15  N   UNK N   1      34.301  12.975  11.326  0.00  0.00    -0.353 N 
HETATM   16  H   UNK N   1      33.757  12.264  10.916  0.00  0.00     0.166 HD
ENDROOT
BRANCH   8  17
HETATM   17  O   UNK N   1      33.978  16.625   8.182  0.00  0.00    -0.356 OA
HETATM   18  C   UNK N   1      34.256  17.917   7.800  0.00  0.00     0.210 C 
ENDBRANCH   8  17
TORSDOF 1
ENDMDL
MODEL 7
REMARK VINA RESULT:      -5.5     15.319     16.778
REMARK  1 active torsions:
REMARK  status: ('A' for Active; 'I' for Inactive)
REMARK    1  A    between atoms: O_17  and  C_9 
ROOT
HETATM    1  C   UNK N   1      29.401  22.171  -5.909  0.00  0.00     0.070 C 
HETATM    2  C   UNK N   1      25.073  27.589  -5.044  0.00  0.00     0.038 A 
HETATM    3  C   UNK N   1      25.108  26.529  -5.968  0.00  0.00     0.017 A 
HETATM    4  C   UNK N   1      25.742  23.859  -7.729  0.00  0.00     0.061 C 
HETATM    5  C   UNK N   1      26.271  22.438  -8.058  0.00  0.00     0.124 C 
HETATM    6  C   UNK N   1      27.037  26.691  -3.885  0.00  0.00     0.067 A 
HETATM    7  C   UNK N   1      28.118  22.681  -6.472  0.00  0.00     0.028 C 
HETATM    8  C   UNK N   1      26.033  27.675  -3.997  0.00  0.00     0.070 A 
HETATM    9  C   UNK N   1      26.113  25.578  -5.818  0.00  0.00    -0.001 A 
HETATM   10  C   UNK N   1      26.405  24.448  -6.534  0.00  0.00    -0.015 A 
HETATM   11  C   UNK N   1      27.047  25.659  -4.816  0.00  0.00     0.046 A 
HETATM   12  C   UNK N   1      27.508  23.899  -5.945  0.00  0.00     0.062 A 
HETATM   13  N   UNK N   1      27.542  22.044  -7.438  0.00  0.00    -0.391 N 
ATOM     14  HN  UNK N   1      28.003  21.207  -7.796  1.00  0.00     0.159 HD
HETATM   15  N   UNK N   1      27.922  24.631  -4.885  0.00  0.00    -0.353 N 
HETATM   16  H   UNK N   1      28.690  24.455  -4.295  0.00  0.00     0.166 HD
ENDROOT
BRANCH   8  17
HETATM   17  O   UNK N   1      26.008  28.687  -3.098  0.00  0.00    -0.356 OA
HETATM   18  C   UNK N   1      26.449  29.959  -3.385  0.00  0.00     0.210 C 
ENDBRANCH   8  17
TORSDOF 1
ENDMDL
MODEL 8
REMARK VINA RESULT:      -5.4      9.674     10.975
REMARK  1 active torsions:
REMARK  status: ('A' for Active; 'I' for Inactive)
REMARK    1  A    between atoms: O_17  and  C_9 
ROOT
HETATM    1  C   UNK N   1      23.899  11.268   8.605  0.00  0.00     0.070 C 
HETATM    2  C   UNK N   1      20.210  17.137   7.725  0.00  0.00     0.038 A 
HETATM    3  C   UNK N   1      20.123  16.080   8.650  0.00  0.00     0.017 A 
HETATM    4  C   UNK N   1      20.494  13.393  10.458  0.00  0.00     0.061 C 
HETATM    5  C   UNK N   1      21.212  12.195  11.135  0.00  0.00     0.124 C 
HETATM    6  C   UNK N   1      22.172  16.108   6.678  0.00  0.00     0.067 A 
HETATM    7  C   UNK N   1      22.810  12.020   9.292  0.00  0.00     0.028 C 
HETATM    8  C   UNK N   1      21.234  17.159   6.738  0.00  0.00     0.070 A 
HETATM    9  C   UNK N   1      21.071  15.066   8.559  0.00  0.00    -0.001 A 
HETATM   10  C   UNK N   1      21.257  13.930   9.300  0.00  0.00    -0.015 A 
HETATM   11  C   UNK N   1      22.057  15.077   7.604  0.00  0.00     0.046 A 
HETATM   12  C   UNK N   1      22.338  13.295   8.758  0.00  0.00     0.062 A 
HETATM   13  N   UNK N   1      22.274  11.538  10.365  0.00  0.00    -0.391 N 
ATOM     14  HN  UNK N   1      22.613  10.636  10.700  1.00  0.00     0.159 HD
HETATM   15  N   UNK N   1      22.845  13.984   7.709  0.00  0.00    -0.353 N 
HETATM   16  H   UNK N   1      23.617  13.742   7.148  0.00  0.00     0.166 HD
ENDROOT
BRANCH   8  17
HETATM   17  O   UNK N   1      21.332  18.172   5.845  0.00  0.00    -0.356 OA
HETATM   18  C   UNK N   1      20.999  18.038   4.516  0.00  0.00     0.210 C 
ENDBRANCH   8  17
TORSDOF 1
ENDMDL
MODEL 9
REMARK VINA RESULT:      -5.4      9.593     11.145
REMARK  1 active torsions:
REMARK  status: ('A' for Active; 'I' for Inactive)
REMARK    1  A    between atoms: O_17  and  C_9 
ROOT
HETATM    1  C   UNK N   1      35.705  15.479  11.980  0.00  0.00     0.070 C 
HETATM    2  C   UNK N   1      36.347  10.499  16.839  0.00  0.00     0.038 A 
HETATM    3  C   UNK N   1      36.823  10.618  15.521  0.00  0.00     0.017 A 
HETATM    4  C   UNK N   1      37.622  11.529  12.494  0.00  0.00     0.061 C 
HETATM    5  C   UNK N   1      37.945  12.477  11.309  0.00  0.00     0.124 C 
HETATM    6  C   UNK N   1      35.330  12.725  16.712  0.00  0.00     0.067 A 
HETATM    7  C   UNK N   1      36.430  14.191  12.174  0.00  0.00     0.028 C 
HETATM    8  C   UNK N   1      35.602  11.551  17.443  0.00  0.00     0.070 A 
HETATM    9  C   UNK N   1      36.536  11.795  14.837  0.00  0.00    -0.001 A 
HETATM   10  C   UNK N   1      36.857  12.210  13.572  0.00  0.00    -0.015 A 
HETATM   11  C   UNK N   1      35.811  12.810  15.410  0.00  0.00     0.046 A 
HETATM   12  C   UNK N   1      36.304  13.451  13.427  0.00  0.00     0.062 A 
HETATM   13  N   UNK N   1      37.172  13.721  11.226  0.00  0.00    -0.391 N 
ATOM     14  HN  UNK N   1      37.223  14.253  10.356  1.00  0.00     0.159 HD
HETATM   15  N   UNK N   1      35.653  13.839  14.548  0.00  0.00    -0.353 N 
HETATM   16  H   UNK N   1      35.171  14.684  14.702  0.00  0.00     0.166 HD
ENDROOT
BRANCH   8  17
HETATM   17  O   UNK N   1      35.142  11.451  18.713  0.00  0.00    -0.356 OA
HETATM   18  C   UNK N   1      35.303  12.446  19.651  0.00  0.00     0.210 C 
ENDBRANCH   8  17
TORSDOF 1
ENDMDL
