MODEL 1
REMARK VINA RESULT:      -7.7      0.000      0.000
REMARK  0 active torsions:
REMARK  status: ('A' for Active; 'I' for Inactive)
ROOT
HETATM    1  O   UNK N   1      29.477  23.062  -1.522  0.00  0.00    -0.395 OA
HETATM    2  O   UNK N   1      26.323  31.060  -4.064  0.00  0.00    -0.298 OA
HETATM    3  C   UNK N   1      27.855  26.410  -4.409  0.00  0.00    -0.001 C 
HETATM    4  C   UNK N   1      29.355  26.052  -4.675  0.00  0.00    -0.005 C 
HETATM    5  C   UNK N   1      27.354  27.435  -5.492  0.00  0.00    -0.032 C 
HETATM    6  C   UNK N   1      29.823  24.986  -3.670  0.00  0.00     0.001 C 
HETATM    7  C   UNK N   1      28.982  23.718  -3.787  0.00  0.00    -0.014 C 
HETATM    8  C   UNK N   1      28.293  28.693  -5.504  0.00  0.00     0.001 C 
HETATM    9  C   UNK N   1      26.993  25.121  -4.383  0.00  0.00     0.007 C 
HETATM   10  C   UNK N   1      27.534  24.047  -3.419  0.00  0.00     0.012 C 
HETATM   11  C   UNK N   1      30.211  27.316  -4.588  0.00  0.00     0.006 C 
HETATM   12  C   UNK N   1      31.241  24.461  -3.825  0.00  0.00     0.008 C 
HETATM   13  C   UNK N   1      29.724  22.760  -2.864  0.00  0.00     0.126 C 
HETATM   14  C   UNK N   1      25.884  27.931  -5.276  0.00  0.00    -0.003 C 
HETATM   15  C   UNK N   1      29.769  28.308  -5.663  0.00  0.00     0.006 C 
HETATM   16  C   UNK N   1      31.201  23.070  -3.169  0.00  0.00     0.033 C 
HETATM   17  C   UNK N   1      27.412  26.785  -6.880  0.00  0.00     0.016 C 
HETATM   18  C   UNK N   1      28.133  29.551  -4.240  0.00  0.00     0.083 C 
HETATM   19  C   UNK N   1      29.007  23.104  -5.198  0.00  0.00     0.018 C 
HETATM   20  C   UNK N   1      25.704  28.782  -4.022  0.00  0.00     0.083 C 
HETATM   21  C   UNK N   1      26.691  29.894  -4.076  0.00  0.00     0.127 C 
HETATM   22  C   UNK N   1      24.814  26.851  -5.331  0.00  0.00     0.011 C 
HETATM   23  H   UNK N   1      29.292  23.255  -0.590  0.00  0.00     0.210 HD
ENDROOT
TORSDOF 0
ENDMDL
MODEL 2
REMARK VINA RESULT:      -7.5     11.684     14.031
REMARK  0 active torsions:
REMARK  status: ('A' for Active; 'I' for Inactive)
ROOT
HETATM    1  O   UNK N   1      34.652  17.572   6.424  0.00  0.00    -0.395 OA
HETATM    2  O   UNK N   1      26.435  20.969   5.279  0.00  0.00    -0.298 OA
HETATM    3  C   UNK N   1      29.947  17.705   6.333  0.00  0.00    -0.001 C 
HETATM    4  C   UNK N   1      30.549  16.759   5.242  0.00  0.00    -0.005 C 
HETATM    5  C   UNK N   1      28.377  17.596   6.324  0.00  0.00    -0.032 C 
HETATM    6  C   UNK N   1      32.085  16.800   5.307  0.00  0.00     0.001 C 
HETATM    7  C   UNK N   1      32.586  16.359   6.679  0.00  0.00    -0.014 C 
HETATM    8  C   UNK N   1      27.835  17.896   4.881  0.00  0.00     0.001 C 
HETATM    9  C   UNK N   1      30.546  17.370   7.724  0.00  0.00     0.007 C 
HETATM   10  C   UNK N   1      32.087  17.349   7.733  0.00  0.00     0.012 C 
HETATM   11  C   UNK N   1      30.037  17.170   3.862  0.00  0.00     0.006 C 
HETATM   12  C   UNK N   1      32.844  15.882   4.363  0.00  0.00     0.008 C 
HETATM   13  C   UNK N   1      34.093  16.292   6.459  0.00  0.00     0.126 C 
HETATM   14  C   UNK N   1      27.659  18.564   7.322  0.00  0.00    -0.003 C 
HETATM   15  C   UNK N   1      28.516  17.027   3.818  0.00  0.00     0.006 C 
HETATM   16  C   UNK N   1      34.204  15.674   5.054  0.00  0.00     0.033 C 
HETATM   17  C   UNK N   1      27.960  16.168   6.700  0.00  0.00     0.016 C 
HETATM   18  C   UNK N   1      27.994  19.375   4.497  0.00  0.00     0.083 C 
HETATM   19  C   UNK N   1      32.119  14.945   7.068  0.00  0.00     0.018 C 
HETATM   20  C   UNK N   1      27.809  20.039   6.959  0.00  0.00     0.083 C 
HETATM   21  C   UNK N   1      27.357  20.213   5.552  0.00  0.00     0.127 C 
HETATM   22  C   UNK N   1      27.989  18.353   8.792  0.00  0.00     0.011 C 
HETATM   23  H   UNK N   1      35.049  18.457   6.421  0.00  0.00     0.210 HD
ENDROOT
TORSDOF 0
ENDMDL
MODEL 3
REMARK VINA RESULT:      -7.4      3.684      6.567
REMARK  0 active torsions:
REMARK  status: ('A' for Active; 'I' for Inactive)
ROOT
HETATM    1  O   UNK N   1      24.476  21.675  -6.744  0.00  0.00    -0.395 OA
HETATM    2  O   UNK N   1      32.158  21.648  -2.121  0.00  0.00    -0.298 OA
HETATM    3  C   UNK N   1      28.895  22.825  -5.594  0.00  0.00    -0.001 C 
HETATM    4  C   UNK N   1      28.803  22.036  -6.942  0.00  0.00    -0.005 C 
HETATM    5  C   UNK N   1      30.379  23.284  -5.347  0.00  0.00    -0.032 C 
HETATM    6  C   UNK N   1      27.340  21.661  -7.228  0.00  0.00     0.001 C 
HETATM    7  C   UNK N   1      26.464  22.908  -7.321  0.00  0.00    -0.014 C 
HETATM    8  C   UNK N   1      31.333  22.037  -5.397  0.00  0.00     0.001 C 
HETATM    9  C   UNK N   1      27.909  24.023  -5.605  0.00  0.00     0.007 C 
HETATM   10  C   UNK N   1      26.466  23.619  -5.968  0.00  0.00     0.012 C 
HETATM   11  C   UNK N   1      29.695  20.797  -6.877  0.00  0.00     0.006 C 
HETATM   12  C   UNK N   1      27.049  20.950  -8.541  0.00  0.00     0.008 C 
HETATM   13  C   UNK N   1      25.135  22.326  -7.790  0.00  0.00     0.126 C 
HETATM   14  C   UNK N   1      30.607  24.013  -3.980  0.00  0.00    -0.003 C 
HETATM   15  C   UNK N   1      31.150  21.224  -6.683  0.00  0.00     0.006 C 
HETATM   16  C   UNK N   1      25.571  21.272  -8.822  0.00  0.00     0.033 C 
HETATM   17  C   UNK N   1      30.808  24.254  -6.454  0.00  0.00     0.016 C 
HETATM   18  C   UNK N   1      31.142  21.111  -4.186  0.00  0.00     0.083 C 
HETATM   19  C   UNK N   1      26.934  23.898  -8.402  0.00  0.00     0.018 C 
HETATM   20  C   UNK N   1      30.418  23.110  -2.765  0.00  0.00     0.083 C 
HETATM   21  C   UNK N   1      31.290  21.917  -2.941  0.00  0.00     0.127 C 
HETATM   22  C   UNK N   1      29.833  25.309  -3.792  0.00  0.00     0.011 C 
HETATM   23  H   UNK N   1      24.004  21.240  -6.016  0.00  0.00     0.210 HD
ENDROOT
TORSDOF 0
ENDMDL
MODEL 4
REMARK VINA RESULT:      -7.1      1.671      6.106
REMARK  0 active torsions:
REMARK  status: ('A' for Active; 'I' for Inactive)
ROOT
HETATM    1  O   UNK N   1      25.441  27.871  -3.135  0.00  0.00    -0.395 OA
HETATM    2  O   UNK N   1      31.552  21.323  -3.518  0.00  0.00    -0.298 OA
HETATM    3  C   UNK N   1      28.968  25.274  -4.862  0.00  0.00    -0.001 C 
HETATM    4  C   UNK N   1      27.655  25.155  -5.705  0.00  0.00    -0.005 C 
HETATM    5  C   UNK N   1      30.129  24.486  -5.572  0.00  0.00    -0.032 C 
HETATM    6  C   UNK N   1      26.542  25.995  -5.059  0.00  0.00     0.001 C 
HETATM    7  C   UNK N   1      26.945  27.464  -4.972  0.00  0.00    -0.014 C 
HETATM    8  C   UNK N   1      29.687  22.999  -5.815  0.00  0.00     0.001 C 
HETATM    9  C   UNK N   1      29.328  26.766  -4.639  0.00  0.00     0.007 C 
HETATM   10  C   UNK N   1      28.164  27.593  -4.058  0.00  0.00     0.012 C 
HETATM   11  C   UNK N   1      27.250  23.686  -5.825  0.00  0.00     0.006 C 
HETATM   12  C   UNK N   1      25.208  26.056  -5.785  0.00  0.00     0.008 C 
HETATM   13  C   UNK N   1      25.655  28.119  -4.494  0.00  0.00     0.126 C 
HETATM   14  C   UNK N   1      31.475  24.466  -4.772  0.00  0.00    -0.003 C 
HETATM   15  C   UNK N   1      28.347  22.910  -6.553  0.00  0.00     0.006 C 
HETATM   16  C   UNK N   1      24.576  27.373  -5.300  0.00  0.00     0.033 C 
HETATM   17  C   UNK N   1      30.423  25.123  -6.936  0.00  0.00     0.016 C 
HETATM   18  C   UNK N   1      29.593  22.199  -4.507  0.00  0.00     0.083 C 
HETATM   19  C   UNK N   1      27.287  28.078  -6.342  0.00  0.00     0.018 C 
HETATM   20  C   UNK N   1      31.400  23.679  -3.467  0.00  0.00     0.083 C 
HETATM   21  C   UNK N   1      30.889  22.317  -3.781  0.00  0.00     0.127 C 
HETATM   22  C   UNK N   1      32.111  25.826  -4.526  0.00  0.00     0.011 C 
HETATM   23  H   UNK N   1      25.298  27.721  -2.187  0.00  0.00     0.210 HD
ENDROOT
TORSDOF 0
ENDMDL
MODEL 5
REMARK VINA RESULT:      -7.1     14.975     17.872
REMARK  0 active torsions:
REMARK  status: ('A' for Active; 'I' for Inactive)
ROOT
HETATM    1  O   UNK N   1      34.315  13.500  12.354  0.00  0.00    -0.395 OA
HETATM    2  O   UNK N   1      29.714  16.609   5.316  0.00  0.00    -0.298 OA
HETATM    3  C   UNK N   1      33.530  15.039   7.974  0.00  0.00    -0.001 C 
HETATM    4  C   UNK N   1      34.411  16.021   8.815  0.00  0.00    -0.005 C 
HETATM    5  C   UNK N   1      33.422  15.557   6.493  0.00  0.00    -0.032 C 
HETATM    6  C   UNK N   1      34.588  15.473  10.240  0.00  0.00     0.001 C 
HETATM    7  C   UNK N   1      35.256  14.101  10.220  0.00  0.00    -0.014 C 
HETATM    8  C   UNK N   1      32.879  17.030   6.486  0.00  0.00     0.001 C 
HETATM    9  C   UNK N   1      34.109  13.602   8.049  0.00  0.00     0.007 C 
HETATM   10  C   UNK N   1      34.342  13.114   9.492  0.00  0.00     0.012 C 
HETATM   11  C   UNK N   1      33.770  17.409   8.825  0.00  0.00     0.006 C 
HETATM   12  C   UNK N   1      35.481  16.265  11.183  0.00  0.00     0.008 C 
HETATM   13  C   UNK N   1      35.502  13.846  11.702  0.00  0.00     0.126 C 
HETATM   14  C   UNK N   1      32.492  14.693   5.576  0.00  0.00    -0.003 C 
HETATM   15  C   UNK N   1      33.698  17.950   7.398  0.00  0.00     0.006 C 
HETATM   16  C   UNK N   1      35.955  15.225  12.213  0.00  0.00     0.033 C 
HETATM   17  C   UNK N   1      34.814  15.561   5.848  0.00  0.00     0.016 C 
HETATM   18  C   UNK N   1      31.400  17.105   6.895  0.00  0.00     0.083 C 
HETATM   19  C   UNK N   1      36.630  14.108   9.525  0.00  0.00     0.018 C 
HETATM   20  C   UNK N   1      31.019  14.752   5.969  0.00  0.00     0.083 C 
HETATM   21  C   UNK N   1      30.616  16.184   6.024  0.00  0.00     0.127 C 
HETATM   22  C   UNK N   1      32.923  13.247   5.383  0.00  0.00     0.011 C 
HETATM   23  H   UNK N   1      33.498  13.239  12.808  0.00  0.00     0.210 HD
ENDROOT
TORSDOF 0
ENDMDL
MODEL 6
REMARK VINA RESULT:      -7.1     15.271     18.590
REMARK  0 active torsions:
REMARK  status: ('A' for Active; 'I' for Inactive)
ROOT
HETATM    1  O   UNK N   1      24.331  18.011   5.376  0.00  0.00    -0.395 OA
HETATM    2  O   UNK N   1      23.438  11.496  11.470  0.00  0.00    -0.298 OA
HETATM    3  C   UNK N   1      22.745  14.027   7.322  0.00  0.00    -0.001 C 
HETATM    4  C   UNK N   1      21.639  15.127   7.201  0.00  0.00    -0.005 C 
HETATM    5  C   UNK N   1      22.110  12.691   7.858  0.00  0.00    -0.032 C 
HETATM    6  C   UNK N   1      22.240  16.407   6.597  0.00  0.00     0.001 C 
HETATM    7  C   UNK N   1      22.825  16.137   5.214  0.00  0.00    -0.014 C 
HETATM    8  C   UNK N   1      21.365  12.966   9.212  0.00  0.00     0.001 C 
HETATM    9  C   UNK N   1      23.455  13.829   5.957  0.00  0.00     0.007 C 
HETATM   10  C   UNK N   1      23.980  15.144   5.348  0.00  0.00     0.012 C 
HETATM   11  C   UNK N   1      21.022  15.393   8.574  0.00  0.00     0.006 C 
HETATM   12  C   UNK N   1      21.289  17.565   6.338  0.00  0.00     0.008 C 
HETATM   13  C   UNK N   1      23.178  17.541   4.740  0.00  0.00     0.126 C 
HETATM   14  C   UNK N   1      23.143  11.540   8.099  0.00  0.00    -0.003 C 
HETATM   15  C   UNK N   1      20.359  14.118   9.093  0.00  0.00     0.006 C 
HETATM   16  C   UNK N   1      21.980  18.376   5.227  0.00  0.00     0.033 C 
HETATM   17  C   UNK N   1      21.080  12.171   6.846  0.00  0.00     0.016 C 
HETATM   18  C   UNK N   1      22.339  13.269  10.360  0.00  0.00     0.083 C 
HETATM   19  C   UNK N   1      21.795  15.567   4.223  0.00  0.00     0.018 C 
HETATM   20  C   UNK N   1      24.122  11.824   9.233  0.00  0.00     0.083 C 
HETATM   21  C   UNK N   1      23.332  12.161  10.449  0.00  0.00     0.127 C 
HETATM   22  C   UNK N   1      23.897  11.068   6.865  0.00  0.00     0.011 C 
HETATM   23  H   UNK N   1      25.143  18.333   5.798  0.00  0.00     0.210 HD
ENDROOT
TORSDOF 0
ENDMDL
MODEL 7
REMARK VINA RESULT:      -7.1     12.023     15.222
REMARK  0 active torsions:
REMARK  status: ('A' for Active; 'I' for Inactive)
ROOT
HETATM    1  O   UNK N   1      27.841  19.322   3.540  0.00  0.00    -0.395 OA
HETATM    2  O   UNK N   1      35.092  18.400   8.731  0.00  0.00    -0.298 OA
HETATM    3  C   UNK N   1      31.149  17.148   6.089  0.00  0.00    -0.001 C 
HETATM    4  C   UNK N   1      29.724  17.048   6.728  0.00  0.00    -0.005 C 
HETATM    5  C   UNK N   1      32.169  16.292   6.927  0.00  0.00    -0.032 C 
HETATM    6  C   UNK N   1      28.710  17.813   5.864  0.00  0.00     0.001 C 
HETATM    7  C   UNK N   1      28.660  17.246   4.448  0.00  0.00    -0.014 C 
HETATM    8  C   UNK N   1      32.135  16.749   8.428  0.00  0.00     0.001 C 
HETATM    9  C   UNK N   1      31.102  16.708   4.602  0.00  0.00     0.007 C 
HETATM   10  C   UNK N   1      30.023  17.445   3.784  0.00  0.00     0.012 C 
HETATM   11  C   UNK N   1      29.761  17.587   8.158  0.00  0.00     0.006 C 
HETATM   12  C   UNK N   1      27.252  17.763   6.296  0.00  0.00     0.008 C 
HETATM   13  C   UNK N   1      27.484  18.006   3.844  0.00  0.00     0.126 C 
HETATM   14  C   UNK N   1      33.650  16.385   6.426  0.00  0.00    -0.003 C 
HETATM   15  C   UNK N   1      30.713  16.740   9.001  0.00  0.00     0.006 C 
HETATM   16  C   UNK N   1      26.468  18.033   5.000  0.00  0.00     0.033 C 
HETATM   17  C   UNK N   1      31.765  14.813   6.871  0.00  0.00     0.016 C 
HETATM   18  C   UNK N   1      32.746  18.145   8.625  0.00  0.00     0.083 C 
HETATM   19  C   UNK N   1      28.303  15.749   4.408  0.00  0.00     0.018 C 
HETATM   20  C   UNK N   1      34.272  17.766   6.609  0.00  0.00     0.083 C 
HETATM   21  C   UNK N   1      34.115  18.154   8.037  0.00  0.00     0.127 C 
HETATM   22  C   UNK N   1      33.894  15.886   5.010  0.00  0.00     0.011 C 
HETATM   23  H   UNK N   1      28.090  20.230   3.306  0.00  0.00     0.210 HD
ENDROOT
TORSDOF 0
ENDMDL
MODEL 8
REMARK VINA RESULT:      -7.0      2.503      4.121
REMARK  0 active torsions:
REMARK  status: ('A' for Active; 'I' for Inactive)
ROOT
HETATM    1  O   UNK N   1      32.378  23.826  -4.440  0.00  0.00    -0.395 OA
HETATM    2  O   UNK N   1      25.516  26.261  -9.669  0.00  0.00    -0.298 OA
HETATM    3  C   UNK N   1      27.915  24.602  -5.722  0.00  0.00    -0.001 C 
HETATM    4  C   UNK N   1      28.237  23.083  -5.529  0.00  0.00    -0.005 C 
HETATM    5  C   UNK N   1      26.381  24.787  -6.020  0.00  0.00    -0.032 C 
HETATM    6  C   UNK N   1      29.717  22.907  -5.153  0.00  0.00     0.001 C 
HETATM    7  C   UNK N   1      30.045  23.652  -3.862  0.00  0.00    -0.014 C 
HETATM    8  C   UNK N   1      25.974  23.910  -7.257  0.00  0.00     0.001 C 
HETATM    9  C   UNK N   1      28.367  25.408  -4.476  0.00  0.00     0.007 C 
HETATM   10  C   UNK N   1      29.836  25.151  -4.086  0.00  0.00     0.012 C 
HETATM   11  C   UNK N   1      27.889  22.316  -6.804  0.00  0.00     0.006 C 
HETATM   12  C   UNK N   1      30.195  21.495  -4.854  0.00  0.00     0.008 C 
HETATM   13  C   UNK N   1      31.472  23.192  -3.586  0.00  0.00     0.126 C 
HETATM   14  C   UNK N   1      25.956  26.265  -6.314  0.00  0.00    -0.003 C 
HETATM   15  C   UNK N   1      26.393  22.445  -7.087  0.00  0.00     0.006 C 
HETATM   16  C   UNK N   1      31.423  21.698  -3.950  0.00  0.00     0.033 C 
HETATM   17  C   UNK N   1      25.563  24.313  -4.812  0.00  0.00     0.016 C 
HETATM   18  C   UNK N   1      26.560  24.449  -8.570  0.00  0.00     0.083 C 
HETATM   19  C   UNK N   1      29.182  23.204  -2.669  0.00  0.00     0.018 C 
HETATM   20  C   UNK N   1      26.533  26.820  -7.613  0.00  0.00     0.083 C 
HETATM   21  C   UNK N   1      26.175  25.882  -8.712  0.00  0.00     0.127 C 
HETATM   22  C   UNK N   1      26.186  27.250  -5.178  0.00  0.00     0.011 C 
HETATM   23  H   UNK N   1      33.014  24.279  -5.015  0.00  0.00     0.210 HD
ENDROOT
TORSDOF 0
ENDMDL
MODEL 9
REMARK VINA RESULT:      -7.0      4.019      5.797
REMARK  0 active torsions:
REMARK  status: ('A' for Active; 'I' for Inactive)
ROOT
HETATM    1  O   UNK N   1      31.552  19.542  -4.063  0.00  0.00    -0.395 OA
HETATM    2  O   UNK N   1      23.808  22.063  -7.813  0.00  0.00    -0.298 OA
HETATM    3  C   UNK N   1      28.637  21.845  -6.955  0.00  0.00    -0.001 C 
HETATM    4  C   UNK N   1      29.335  22.786  -5.919  0.00  0.00    -0.005 C 
HETATM    5  C   UNK N   1      27.785  22.702  -7.963  0.00  0.00    -0.032 C 
HETATM    6  C   UNK N   1      30.235  21.960  -4.987  0.00  0.00     0.001 C 
HETATM    7  C   UNK N   1      31.305  21.214  -5.779  0.00  0.00    -0.014 C 
HETATM    8  C   UNK N   1      26.772  23.600  -7.168  0.00  0.00     0.001 C 
HETATM    9  C   UNK N   1      29.692  20.970  -7.681  0.00  0.00     0.007 C 
HETATM   10  C   UNK N   1      30.624  20.213  -6.714  0.00  0.00     0.012 C 
HETATM   11  C   UNK N   1      28.278  23.562  -5.133  0.00  0.00     0.006 C 
HETATM   12  C   UNK N   1      31.053  22.722  -3.956  0.00  0.00     0.008 C 
HETATM   13  C   UNK N   1      32.175  20.635  -4.670  0.00  0.00     0.126 C 
HETATM   14  C   UNK N   1      26.971  21.855  -8.999  0.00  0.00    -0.003 C 
HETATM   15  C   UNK N   1      27.468  24.437  -6.089  0.00  0.00     0.006 C 
HETATM   16  C   UNK N   1      32.237  21.787  -3.651  0.00  0.00     0.033 C 
HETATM   17  C   UNK N   1      28.712  23.625  -8.762  0.00  0.00     0.016 C 
HETATM   18  C   UNK N   1      25.651  22.776  -6.517  0.00  0.00     0.083 C 
HETATM   19  C   UNK N   1      32.197  22.147  -6.618  0.00  0.00     0.018 C 
HETATM   20  C   UNK N   1      25.856  21.026  -8.370  0.00  0.00     0.083 C 
HETATM   21  C   UNK N   1      25.000  21.941  -7.566  0.00  0.00     0.127 C 
HETATM   22  C   UNK N   1      27.802  20.989  -9.933  0.00  0.00     0.011 C 
HETATM   23  H   UNK N   1      31.133  18.768  -3.652  0.00  0.00     0.210 HD
ENDROOT
TORSDOF 0
ENDMDL
