REMARK  4 active torsions:
REMARK  status: ('A' for Active; 'I' for Inactive)
REMARK    1  A    between atoms: C_15  and  C_9 
REMARK    2  A    between atoms: O_16  and  C_10 
REMARK    3  A    between atoms: O_17  and  C_11 
REMARK    4  A    between atoms: O_20  and  C_15 
ROOT
HETATM    1  C   UNK N   1       6.190  -0.357  -0.000  0.00  0.00     0.003 A 
HETATM    2  C   UNK N   1       4.969  -1.025  -0.000  0.00  0.00     0.008 A 
HETATM    3  C   UNK N   1       6.220   1.035  -0.000  0.00  0.00     0.037 A 
HETATM    4  C   UNK N   1       2.503  -1.102  -0.000  0.00  0.00     0.079 A 
HETATM    5  C   UNK N   1       0.045  -1.041  -0.000  0.00  0.00     0.027 A 
HETATM    6  C   UNK N   1      -1.239   0.999   0.000  0.00  0.00     0.055 A 
HETATM    7  C   UNK N   1       3.769  -0.311  -0.000  0.00  0.00    -0.037 A 
HETATM    8  C   UNK N   1       1.231  -0.316  -0.000  0.00  0.00    -0.036 A 
HETATM    9  C   UNK N   1      -1.190  -0.401   0.000  0.00  0.00     0.041 A 
HETATM   10  C   UNK N   1       5.031   1.770  -0.000  0.00  0.00     0.080 A 
HETATM   11  C   UNK N   1      -0.056   1.750   0.000  0.00  0.00     0.081 A 
HETATM   12  C   UNK N   1       3.782   1.102  -0.000  0.00  0.00     0.055 A 
HETATM   13  C   UNK N   1       1.202   1.095   0.000  0.00  0.00     0.055 A 
HETATM   14  C   UNK N   1       2.489   1.845  -0.000  0.00  0.00     0.199 A 
HETATM   15  O   UNK N   1       2.485   3.069  -0.000  0.00  0.00    -0.286 OA
ENDROOT
BRANCH   9  16
HETATM   16  C   UNK N   1      -2.425  -1.208  -0.000  0.00  0.00     0.176 C 
HETATM   17  O   UNK N   1      -2.359  -2.428  -0.000  0.00  0.00    -0.646 OA
BRANCH  16  18
HETATM   18  O   UNK N   1      -3.631  -0.610  -0.000  0.00  0.00    -0.773 OA
HETATM   19  H   UNK N   1      -3.690   0.325  -0.000  0.00  0.00     0.167 HD
ENDBRANCH  16  18
ENDBRANCH   9  16
BRANCH  11  20
HETATM   20  O   UNK N   1      -0.141   3.093   0.000  0.00  0.00    -0.360 OA
HETATM   21  H   UNK N   1       0.639   3.612   0.000  0.00  0.00     0.217 HD
ENDBRANCH  11  20
BRANCH  10  22
HETATM   22  O   UNK N   1       5.102   3.113  -0.000  0.00  0.00    -0.360 OA
HETATM   23  H   UNK N   1       5.937   3.538  -0.000  0.00  0.00     0.217 HD
ENDBRANCH  10  22
TORSDOF 4
