MODEL 1
REMARK VINA RESULT:      -5.0      0.000      0.000
REMARK  21 active torsions:
REMARK  status: ('A' for Active; 'I' for Inactive)
REMARK    1  A    between atoms: C_3  and  C_2 
REMARK    2  A    between atoms: C_4  and  C_3 
REMARK    3  A    between atoms: C_5  and  C_4 
REMARK    4  A    between atoms: C_6  and  C_5 
REMARK    5  A    between atoms: C_7  and  C_6 
REMARK    6  A    between atoms: C_8  and  C_7 
REMARK    7  A    between atoms: C_9  and  C_8 
REMARK    8  A    between atoms: C_11  and  C_10 
REMARK    9  A    between atoms: C_12  and  C_11 
REMARK   10  A    between atoms: C_13  and  C_12 
REMARK   11  A    between atoms: C_14  and  C_13 
REMARK   12  A    between atoms: C_15  and  C_14 
REMARK   13  A    between atoms: C_16  and  C_15 
REMARK   14  A    between atoms: C_17  and  C_16 
REMARK   15  A    between atoms: C_21  and  C_17 
REMARK   16  A    between atoms: C_20  and  C_18 
REMARK   17  A    between atoms: O_22  and  C_18 
REMARK   18  A    between atoms: C_20  and  C_19 
REMARK   19  A    between atoms: O_25  and  C_19 
REMARK   20  A    between atoms: O_23  and  C_20 
REMARK   21  A    between atoms: O_25  and  C_21 
ROOT
HETATM    1  C   UNK N   1      26.956  26.314  -3.913  0.00  0.00     0.000 C 
ENDROOT
BRANCH   1   2
HETATM    2  C   UNK N   1      25.992  27.262  -3.233  0.00  0.00     0.000 C 
BRANCH   2   3
HETATM    3  C   UNK N   1      26.327  28.692  -3.606  0.00  0.00     0.004 C 
BRANCH   3   4
HETATM    4  C   UNK N   1      26.560  28.768  -5.105  0.00  0.00     0.027 C 
BRANCH   4   5
HETATM    5  C   UNK N   1      27.812  29.534  -5.427  0.00  0.00    -0.031 C 
HETATM    6  C   UNK N   1      28.514  29.351  -6.557  0.00  0.00    -0.031 C 
BRANCH   6   7
HETATM    7  C   UNK N   1      28.104  28.349  -7.597  0.00  0.00     0.027 C 
BRANCH   7   8
HETATM    8  C   UNK N   1      28.907  27.072  -7.455  0.00  0.00     0.004 C 
BRANCH   8   9
HETATM    9  C   UNK N   1      27.990  25.909  -7.146  0.00  0.00     0.000 C 
BRANCH   9  10
HETATM   10  C   UNK N   1      26.650  26.185  -7.793  0.00  0.00     0.000 C 
BRANCH  10  11
HETATM   11  C   UNK N   1      25.844  24.912  -7.924  0.00  0.00     0.000 C 
BRANCH  11  12
HETATM   12  C   UNK N   1      25.866  24.201  -6.587  0.00  0.00    -0.000 C 
BRANCH  12  13
HETATM   13  C   UNK N   1      25.883  22.703  -6.790  0.00  0.00    -0.005 C 
HETATM   14  C   UNK N   1      27.281  22.274  -7.180  0.00  0.00     0.005 C 
ENDBRANCH  12  13
ENDBRANCH  11  12
ENDBRANCH  10  11
ENDBRANCH   9  10
ENDBRANCH   8   9
ENDBRANCH   7   8
ENDBRANCH   6   7
ENDBRANCH   4   5
ENDBRANCH   3   4
ENDBRANCH   2   3
ENDBRANCH   1   2
BRANCH   1  15
HETATM   15  C   UNK N   1      26.882  24.941  -3.260  0.00  0.00     0.000 C 
BRANCH  15  16
HETATM   16  C   UNK N   1      28.128  24.129  -3.571  0.00  0.00     0.010 C 
BRANCH  16  17
HETATM   17  C   UNK N   1      28.450  23.232  -2.389  0.00  0.00     0.111 C 
BRANCH  17  18
HETATM   18  C   UNK N   1      29.892  22.845  -2.395  0.00  0.00     0.258 C 
HETATM   19  O   UNK N   1      30.579  23.038  -1.410  0.00  0.00    -0.265 OA
BRANCH  18  20
HETATM   20  O   UNK N   1      30.424  22.328  -3.530  0.00  0.00    -0.319 OA
BRANCH  20  21
HETATM   21  C   UNK N   1      30.882  21.033  -3.608  0.00  0.00     0.212 C 
BRANCH  21  22
HETATM   22  C   UNK N   1      32.231  21.017  -4.304  0.00  0.00     0.166 C 
BRANCH  22  23
HETATM   23  C   UNK N   1      33.336  20.992  -3.264  0.00  0.00     0.198 C 
BRANCH  23  24
HETATM   24  O   UNK N   1      32.784  21.076  -1.986  0.00  0.00    -0.398 OA
HETATM   25  H   UNK N   1      32.091  21.718  -1.768  0.00  0.00     0.209 HD
ENDBRANCH  23  24
ENDBRANCH  22  23
BRANCH  22  26
HETATM   26  O   UNK N   1      32.330  19.890  -5.122  0.00  0.00    -0.391 OA
HETATM   27  H   UNK N   1      31.878  19.741  -5.967  0.00  0.00     0.210 HD
ENDBRANCH  22  26
ENDBRANCH  21  22
ENDBRANCH  20  21
ENDBRANCH  18  20
ENDBRANCH  17  18
ENDBRANCH  16  17
ENDBRANCH  15  16
ENDBRANCH   1  15
TORSDOF 21
ENDMDL
MODEL 2
REMARK VINA RESULT:      -4.9     11.223     14.261
REMARK  21 active torsions:
REMARK  status: ('A' for Active; 'I' for Inactive)
REMARK    1  A    between atoms: C_3  and  C_2 
REMARK    2  A    between atoms: C_4  and  C_3 
REMARK    3  A    between atoms: C_5  and  C_4 
REMARK    4  A    between atoms: C_6  and  C_5 
REMARK    5  A    between atoms: C_7  and  C_6 
REMARK    6  A    between atoms: C_8  and  C_7 
REMARK    7  A    between atoms: C_9  and  C_8 
REMARK    8  A    between atoms: C_11  and  C_10 
REMARK    9  A    between atoms: C_12  and  C_11 
REMARK   10  A    between atoms: C_13  and  C_12 
REMARK   11  A    between atoms: C_14  and  C_13 
REMARK   12  A    between atoms: C_15  and  C_14 
REMARK   13  A    between atoms: C_16  and  C_15 
REMARK   14  A    between atoms: C_17  and  C_16 
REMARK   15  A    between atoms: C_21  and  C_17 
REMARK   16  A    between atoms: C_20  and  C_18 
REMARK   17  A    between atoms: O_22  and  C_18 
REMARK   18  A    between atoms: C_20  and  C_19 
REMARK   19  A    between atoms: O_25  and  C_19 
REMARK   20  A    between atoms: O_23  and  C_20 
REMARK   21  A    between atoms: O_25  and  C_21 
ROOT
HETATM    1  C   UNK N   1      30.232  16.427   6.862  0.00  0.00     0.000 C 
ENDROOT
BRANCH   1   2
HETATM    2  C   UNK N   1      29.021  16.993   6.152  0.00  0.00     0.000 C 
BRANCH   2   3
HETATM    3  C   UNK N   1      28.033  17.528   7.168  0.00  0.00     0.004 C 
BRANCH   3   4
HETATM    4  C   UNK N   1      28.434  18.943   7.548  0.00  0.00     0.027 C 
BRANCH   4   5
HETATM    5  C   UNK N   1      27.291  19.902   7.373  0.00  0.00    -0.031 C 
HETATM    6  C   UNK N   1      27.081  20.596   6.242  0.00  0.00    -0.031 C 
BRANCH   6   7
HETATM    7  C   UNK N   1      27.988  20.473   5.052  0.00  0.00     0.027 C 
BRANCH   7   8
HETATM    8  C   UNK N   1      27.374  19.569   4.003  0.00  0.00     0.004 C 
BRANCH   8   9
HETATM    9  C   UNK N   1      26.048  20.131   3.538  0.00  0.00     0.000 C 
BRANCH   9  10
HETATM   10  C   UNK N   1      25.014  19.032   3.635  0.00  0.00     0.000 C 
BRANCH  10  11
HETATM   11  C   UNK N   1      25.627  17.763   4.185  0.00  0.00     0.000 C 
BRANCH  11  12
HETATM   12  C   UNK N   1      24.696  16.613   3.861  0.00  0.00    -0.000 C 
BRANCH  12  13
HETATM   13  C   UNK N   1      25.396  15.606   2.977  0.00  0.00    -0.005 C 
HETATM   14  C   UNK N   1      26.867  15.957   2.899  0.00  0.00     0.005 C 
ENDBRANCH  12  13
ENDBRANCH  11  12
ENDBRANCH  10  11
ENDBRANCH   9  10
ENDBRANCH   8   9
ENDBRANCH   7   8
ENDBRANCH   6   7
ENDBRANCH   4   5
ENDBRANCH   3   4
ENDBRANCH   2   3
ENDBRANCH   1   2
BRANCH   1  15
HETATM   15  C   UNK N   1      31.497  17.105   6.354  0.00  0.00     0.000 C 
BRANCH  15  16
HETATM   16  C   UNK N   1      32.252  17.761   7.498  0.00  0.00     0.010 C 
BRANCH  16  17
HETATM   17  C   UNK N   1      33.744  17.567   7.290  0.00  0.00     0.111 C 
BRANCH  17  18
HETATM   18  C   UNK N   1      34.513  18.066   8.470  0.00  0.00     0.258 C 
HETATM   19  O   UNK N   1      35.080  19.141   8.416  0.00  0.00    -0.265 OA
BRANCH  18  20
HETATM   20  O   UNK N   1      34.604  17.279   9.569  0.00  0.00    -0.319 OA
BRANCH  20  21
HETATM   21  C   UNK N   1      34.045  16.022   9.626  0.00  0.00     0.212 C 
BRANCH  21  22
HETATM   22  C   UNK N   1      34.794  15.183  10.645  0.00  0.00     0.166 C 
BRANCH  22  23
HETATM   23  C   UNK N   1      35.749  16.068  11.424  0.00  0.00     0.198 C 
BRANCH  23  24
HETATM   24  O   UNK N   1      37.011  16.039  10.830  0.00  0.00    -0.398 OA
HETATM   25  H   UNK N   1      37.163  15.620   9.969  0.00  0.00     0.209 HD
ENDBRANCH  23  24
ENDBRANCH  22  23
BRANCH  22  26
HETATM   26  O   UNK N   1      33.889  14.582  11.521  0.00  0.00    -0.391 OA
HETATM   27  H   UNK N   1      33.697  13.635  11.602  0.00  0.00     0.210 HD
ENDBRANCH  22  26
ENDBRANCH  21  22
ENDBRANCH  20  21
ENDBRANCH  18  20
ENDBRANCH  17  18
ENDBRANCH  16  17
ENDBRANCH  15  16
ENDBRANCH   1  15
TORSDOF 21
ENDMDL
MODEL 3
REMARK VINA RESULT:      -4.8     10.244     14.255
REMARK  21 active torsions:
REMARK  status: ('A' for Active; 'I' for Inactive)
REMARK    1  A    between atoms: C_3  and  C_2 
REMARK    2  A    between atoms: C_4  and  C_3 
REMARK    3  A    between atoms: C_5  and  C_4 
REMARK    4  A    between atoms: C_6  and  C_5 
REMARK    5  A    between atoms: C_7  and  C_6 
REMARK    6  A    between atoms: C_8  and  C_7 
REMARK    7  A    between atoms: C_9  and  C_8 
REMARK    8  A    between atoms: C_11  and  C_10 
REMARK    9  A    between atoms: C_12  and  C_11 
REMARK   10  A    between atoms: C_13  and  C_12 
REMARK   11  A    between atoms: C_14  and  C_13 
REMARK   12  A    between atoms: C_15  and  C_14 
REMARK   13  A    between atoms: C_16  and  C_15 
REMARK   14  A    between atoms: C_17  and  C_16 
REMARK   15  A    between atoms: C_21  and  C_17 
REMARK   16  A    between atoms: C_20  and  C_18 
REMARK   17  A    between atoms: O_22  and  C_18 
REMARK   18  A    between atoms: C_20  and  C_19 
REMARK   19  A    between atoms: O_25  and  C_19 
REMARK   20  A    between atoms: O_23  and  C_20 
REMARK   21  A    between atoms: O_25  and  C_21 
ROOT
HETATM    1  C   UNK N   1      27.726  18.578   4.730  0.00  0.00     0.000 C 
ENDROOT
BRANCH   1   2
HETATM    2  C   UNK N   1      29.011  18.172   5.419  0.00  0.00     0.000 C 
BRANCH   2   3
HETATM    3  C   UNK N   1      28.987  16.688   5.721  0.00  0.00     0.004 C 
BRANCH   3   4
HETATM    4  C   UNK N   1      29.160  15.919   4.422  0.00  0.00     0.027 C 
BRANCH   4   5
HETATM    5  C   UNK N   1      30.374  15.035   4.467  0.00  0.00    -0.031 C 
HETATM    6  C   UNK N   1      31.553  15.380   3.924  0.00  0.00    -0.031 C 
BRANCH   6   7
HETATM    7  C   UNK N   1      31.752  16.688   3.214  0.00  0.00     0.027 C 
BRANCH   7   8
HETATM    8  C   UNK N   1      32.448  17.685   4.117  0.00  0.00     0.004 C 
BRANCH   8   9
HETATM    9  C   UNK N   1      33.454  16.979   5.000  0.00  0.00     0.000 C 
BRANCH   9  10
HETATM   10  C   UNK N   1      33.282  17.495   6.411  0.00  0.00     0.000 C 
BRANCH  10  11
HETATM   11  C   UNK N   1      33.044  16.356   7.377  0.00  0.00     0.000 C 
BRANCH  11  12
HETATM   12  C   UNK N   1      31.692  16.567   8.026  0.00  0.00    -0.000 C 
BRANCH  12  13
HETATM   13  C   UNK N   1      31.541  18.005   8.468  0.00  0.00    -0.005 C 
HETATM   14  C   UNK N   1      30.144  18.207   9.016  0.00  0.00     0.005 C 
ENDBRANCH  12  13
ENDBRANCH  11  12
ENDBRANCH  10  11
ENDBRANCH   9  10
ENDBRANCH   8   9
ENDBRANCH   7   8
ENDBRANCH   6   7
ENDBRANCH   4   5
ENDBRANCH   3   4
ENDBRANCH   2   3
ENDBRANCH   1   2
BRANCH   1  15
HETATM   15  C   UNK N   1      27.661  20.093   4.603  0.00  0.00     0.000 C 
BRANCH  15  16
HETATM   16  C   UNK N   1      26.230  20.585   4.746  0.00  0.00     0.010 C 
BRANCH  16  17
HETATM   17  C   UNK N   1      25.304  19.665   3.968  0.00  0.00     0.111 C 
BRANCH  17  18
HETATM   18  C   UNK N   1      24.546  20.430   2.933  0.00  0.00     0.258 C 
HETATM   19  O   UNK N   1      25.108  20.809   1.923  0.00  0.00    -0.265 OA
BRANCH  18  20
HETATM   20  O   UNK N   1      23.246  20.734   3.168  0.00  0.00    -0.319 OA
BRANCH  20  21
HETATM   21  C   UNK N   1      22.259  19.776   3.203  0.00  0.00     0.212 C 
BRANCH  21  22
HETATM   22  C   UNK N   1      21.156  20.152   2.230  0.00  0.00     0.166 C 
BRANCH  22  23
HETATM   23  C   UNK N   1      19.840  19.569   2.708  0.00  0.00     0.198 C 
BRANCH  23  24
HETATM   24  O   UNK N   1      20.067  18.355   3.356  0.00  0.00    -0.398 OA
HETATM   25  H   UNK N   1      20.614  17.658   2.962  0.00  0.00     0.209 HD
ENDBRANCH  23  24
ENDBRANCH  22  23
BRANCH  22  26
HETATM   26  O   UNK N   1      21.052  21.541   2.145  0.00  0.00    -0.391 OA
HETATM   27  H   UNK N   1      21.327  22.189   2.813  0.00  0.00     0.210 HD
ENDBRANCH  22  26
ENDBRANCH  21  22
ENDBRANCH  20  21
ENDBRANCH  18  20
ENDBRANCH  17  18
ENDBRANCH  16  17
ENDBRANCH  15  16
ENDBRANCH   1  15
TORSDOF 21
ENDMDL
MODEL 4
REMARK VINA RESULT:      -4.7      1.732      2.684
REMARK  21 active torsions:
REMARK  status: ('A' for Active; 'I' for Inactive)
REMARK    1  A    between atoms: C_3  and  C_2 
REMARK    2  A    between atoms: C_4  and  C_3 
REMARK    3  A    between atoms: C_5  and  C_4 
REMARK    4  A    between atoms: C_6  and  C_5 
REMARK    5  A    between atoms: C_7  and  C_6 
REMARK    6  A    between atoms: C_8  and  C_7 
REMARK    7  A    between atoms: C_9  and  C_8 
REMARK    8  A    between atoms: C_11  and  C_10 
REMARK    9  A    between atoms: C_12  and  C_11 
REMARK   10  A    between atoms: C_13  and  C_12 
REMARK   11  A    between atoms: C_14  and  C_13 
REMARK   12  A    between atoms: C_15  and  C_14 
REMARK   13  A    between atoms: C_16  and  C_15 
REMARK   14  A    between atoms: C_17  and  C_16 
REMARK   15  A    between atoms: C_21  and  C_17 
REMARK   16  A    between atoms: C_20  and  C_18 
REMARK   17  A    between atoms: O_22  and  C_18 
REMARK   18  A    between atoms: C_20  and  C_19 
REMARK   19  A    between atoms: O_25  and  C_19 
REMARK   20  A    between atoms: O_23  and  C_20 
REMARK   21  A    between atoms: O_25  and  C_21 
ROOT
HETATM    1  C   UNK N   1      30.038  27.201  -3.801  0.00  0.00     0.000 C 
ENDROOT
BRANCH   1   2
HETATM    2  C   UNK N   1      29.108  28.311  -3.359  0.00  0.00     0.000 C 
BRANCH   2   3
HETATM    3  C   UNK N   1      28.538  29.017  -4.572  0.00  0.00     0.004 C 
BRANCH   3   4
HETATM    4  C   UNK N   1      27.119  29.461  -4.262  0.00  0.00     0.027 C 
BRANCH   4   5
HETATM    5  C   UNK N   1      26.352  28.384  -3.547  0.00  0.00    -0.031 C 
HETATM    6  C   UNK N   1      25.638  27.444  -4.187  0.00  0.00    -0.031 C 
BRANCH   6   7
HETATM    7  C   UNK N   1      25.539  27.399  -5.685  0.00  0.00     0.027 C 
BRANCH   7   8
HETATM    8  C   UNK N   1      25.307  25.980  -6.162  0.00  0.00     0.004 C 
BRANCH   8   9
HETATM    9  C   UNK N   1      25.727  24.993  -5.094  0.00  0.00     0.000 C 
BRANCH   9  10
HETATM   10  C   UNK N   1      26.031  23.674  -5.770  0.00  0.00     0.000 C 
BRANCH  10  11
HETATM   11  C   UNK N   1      27.272  23.782  -6.628  0.00  0.00     0.000 C 
BRANCH  11  12
HETATM   12  C   UNK N   1      27.805  22.383  -6.859  0.00  0.00    -0.000 C 
BRANCH  12  13
HETATM   13  C   UNK N   1      29.236  22.283  -6.383  0.00  0.00    -0.005 C 
HETATM   14  C   UNK N   1      29.716  20.858  -6.562  0.00  0.00     0.005 C 
ENDBRANCH  12  13
ENDBRANCH  11  12
ENDBRANCH  10  11
ENDBRANCH   9  10
ENDBRANCH   8   9
ENDBRANCH   7   8
ENDBRANCH   6   7
ENDBRANCH   4   5
ENDBRANCH   3   4
ENDBRANCH   2   3
ENDBRANCH   1   2
BRANCH   1  15
HETATM   15  C   UNK N   1      29.244  26.104  -4.496  0.00  0.00     0.000 C 
BRANCH  15  16
HETATM   16  C   UNK N   1      29.188  24.852  -3.637  0.00  0.00     0.010 C 
BRANCH  16  17
HETATM   17  C   UNK N   1      30.597  24.333  -3.413  0.00  0.00     0.111 C 
BRANCH  17  18
HETATM   18  C   UNK N   1      30.582  23.119  -2.543  0.00  0.00     0.258 C 
HETATM   19  O   UNK N   1      30.181  23.197  -1.397  0.00  0.00    -0.265 OA
BRANCH  18  20
HETATM   20  O   UNK N   1      31.070  21.956  -3.038  0.00  0.00    -0.319 OA
BRANCH  20  21
HETATM   21  C   UNK N   1      32.097  21.916  -3.954  0.00  0.00     0.212 C 
BRANCH  21  22
HETATM   22  C   UNK N   1      33.144  20.917  -3.494  0.00  0.00     0.166 C 
BRANCH  22  23
HETATM   23  C   UNK N   1      34.486  21.277  -4.102  0.00  0.00     0.198 C 
BRANCH  23  24
HETATM   24  O   UNK N   1      35.346  20.180  -4.031  0.00  0.00    -0.398 OA
HETATM   25  H   UNK N   1      35.021  19.285  -3.850  0.00  0.00     0.209 HD
ENDBRANCH  23  24
ENDBRANCH  22  23
BRANCH  22  26
HETATM   26  O   UNK N   1      33.238  20.936  -2.102  0.00  0.00    -0.391 OA
HETATM   27  H   UNK N   1      32.733  20.394  -1.476  0.00  0.00     0.210 HD
ENDBRANCH  22  26
ENDBRANCH  21  22
ENDBRANCH  20  21
ENDBRANCH  18  20
ENDBRANCH  17  18
ENDBRANCH  16  17
ENDBRANCH  15  16
ENDBRANCH   1  15
TORSDOF 21
ENDMDL
MODEL 5
REMARK VINA RESULT:      -4.7      1.824      3.915
REMARK  21 active torsions:
REMARK  status: ('A' for Active; 'I' for Inactive)
REMARK    1  A    between atoms: C_3  and  C_2 
REMARK    2  A    between atoms: C_4  and  C_3 
REMARK    3  A    between atoms: C_5  and  C_4 
REMARK    4  A    between atoms: C_6  and  C_5 
REMARK    5  A    between atoms: C_7  and  C_6 
REMARK    6  A    between atoms: C_8  and  C_7 
REMARK    7  A    between atoms: C_9  and  C_8 
REMARK    8  A    between atoms: C_11  and  C_10 
REMARK    9  A    between atoms: C_12  and  C_11 
REMARK   10  A    between atoms: C_13  and  C_12 
REMARK   11  A    between atoms: C_14  and  C_13 
REMARK   12  A    between atoms: C_15  and  C_14 
REMARK   13  A    between atoms: C_16  and  C_15 
REMARK   14  A    between atoms: C_17  and  C_16 
REMARK   15  A    between atoms: C_21  and  C_17 
REMARK   16  A    between atoms: C_20  and  C_18 
REMARK   17  A    between atoms: O_22  and  C_18 
REMARK   18  A    between atoms: C_20  and  C_19 
REMARK   19  A    between atoms: O_25  and  C_19 
REMARK   20  A    between atoms: O_23  and  C_20 
REMARK   21  A    between atoms: O_25  and  C_21 
ROOT
HETATM    1  C   UNK N   1      27.038  26.067  -4.456  0.00  0.00     0.000 C 
ENDROOT
BRANCH   1   2
HETATM    2  C   UNK N   1      26.018  27.122  -4.085  0.00  0.00     0.000 C 
BRANCH   2   3
HETATM    3  C   UNK N   1      26.287  28.394  -4.864  0.00  0.00     0.004 C 
BRANCH   3   4
HETATM    4  C   UNK N   1      27.021  28.039  -6.146  0.00  0.00     0.027 C 
BRANCH   4   5
HETATM    5  C   UNK N   1      28.030  29.092  -6.508  0.00  0.00    -0.031 C 
HETATM    6  C   UNK N   1      29.330  28.823  -6.713  0.00  0.00    -0.031 C 
BRANCH   6   7
HETATM    7  C   UNK N   1      29.887  27.435  -6.587  0.00  0.00     0.027 C 
BRANCH   7   8
HETATM    8  C   UNK N   1      30.995  27.396  -5.555  0.00  0.00     0.004 C 
BRANCH   8   9
HETATM    9  C   UNK N   1      30.440  27.001  -4.204  0.00  0.00     0.000 C 
BRANCH   9  10
HETATM   10  C   UNK N   1      30.570  28.192  -3.279  0.00  0.00     0.000 C 
BRANCH  10  11
HETATM   11  C   UNK N   1      29.209  28.686  -2.843  0.00  0.00     0.000 C 
BRANCH  11  12
HETATM   12  C   UNK N   1      29.123  30.165  -3.161  0.00  0.00    -0.000 C 
BRANCH  12  13
HETATM   13  C   UNK N   1      28.550  30.921  -1.984  0.00  0.00    -0.005 C 
HETATM   14  C   UNK N   1      28.325  29.955  -0.840  0.00  0.00     0.005 C 
ENDBRANCH  12  13
ENDBRANCH  11  12
ENDBRANCH  10  11
ENDBRANCH   9  10
ENDBRANCH   8   9
ENDBRANCH   7   8
ENDBRANCH   6   7
ENDBRANCH   4   5
ENDBRANCH   3   4
ENDBRANCH   2   3
ENDBRANCH   1   2
BRANCH   1  15
HETATM   15  C   UNK N   1      27.026  24.949  -3.423  0.00  0.00     0.000 C 
BRANCH  15  16
HETATM   16  C   UNK N   1      28.160  23.969  -3.677  0.00  0.00     0.010 C 
BRANCH  16  17
HETATM   17  C   UNK N   1      28.515  23.266  -2.379  0.00  0.00     0.111 C 
BRANCH  17  18
HETATM   18  C   UNK N   1      29.938  22.813  -2.395  0.00  0.00     0.258 C 
HETATM   19  O   UNK N   1      30.643  22.986  -1.418  0.00  0.00    -0.265 OA
BRANCH  18  20
HETATM   20  O   UNK N   1      30.434  22.259  -3.528  0.00  0.00    -0.319 OA
BRANCH  20  21
HETATM   21  C   UNK N   1      30.939  20.979  -3.564  0.00  0.00     0.212 C 
BRANCH  21  22
HETATM   22  C   UNK N   1      32.275  20.985  -4.286  0.00  0.00     0.166 C 
BRANCH  22  23
HETATM   23  C   UNK N   1      33.397  20.862  -3.274  0.00  0.00     0.198 C 
BRANCH  23  24
HETATM   24  O   UNK N   1      32.904  21.096  -1.990  0.00  0.00    -0.398 OA
HETATM   25  H   UNK N   1      33.371  20.788  -1.197  0.00  0.00     0.209 HD
ENDBRANCH  23  24
ENDBRANCH  22  23
BRANCH  22  26
HETATM   26  O   UNK N   1      32.333  19.919  -5.185  0.00  0.00    -0.391 OA
HETATM   27  H   UNK N   1      32.348  18.973  -4.968  0.00  0.00     0.210 HD
ENDBRANCH  22  26
ENDBRANCH  21  22
ENDBRANCH  20  21
ENDBRANCH  18  20
ENDBRANCH  17  18
ENDBRANCH  16  17
ENDBRANCH  15  16
ENDBRANCH   1  15
TORSDOF 21
ENDMDL
MODEL 6
REMARK VINA RESULT:      -4.6     10.459     13.860
REMARK  21 active torsions:
REMARK  status: ('A' for Active; 'I' for Inactive)
REMARK    1  A    between atoms: C_3  and  C_2 
REMARK    2  A    between atoms: C_4  and  C_3 
REMARK    3  A    between atoms: C_5  and  C_4 
REMARK    4  A    between atoms: C_6  and  C_5 
REMARK    5  A    between atoms: C_7  and  C_6 
REMARK    6  A    between atoms: C_8  and  C_7 
REMARK    7  A    between atoms: C_9  and  C_8 
REMARK    8  A    between atoms: C_11  and  C_10 
REMARK    9  A    between atoms: C_12  and  C_11 
REMARK   10  A    between atoms: C_13  and  C_12 
REMARK   11  A    between atoms: C_14  and  C_13 
REMARK   12  A    between atoms: C_15  and  C_14 
REMARK   13  A    between atoms: C_16  and  C_15 
REMARK   14  A    between atoms: C_17  and  C_16 
REMARK   15  A    between atoms: C_21  and  C_17 
REMARK   16  A    between atoms: C_20  and  C_18 
REMARK   17  A    between atoms: O_22  and  C_18 
REMARK   18  A    between atoms: C_20  and  C_19 
REMARK   19  A    between atoms: O_25  and  C_19 
REMARK   20  A    between atoms: O_23  and  C_20 
REMARK   21  A    between atoms: O_25  and  C_21 
ROOT
HETATM    1  C   UNK N   1      26.440  15.888   2.636  0.00  0.00     0.000 C 
ENDROOT
BRANCH   1   2
HETATM    2  C   UNK N   1      27.703  15.117   2.955  0.00  0.00     0.000 C 
BRANCH   2   3
HETATM    3  C   UNK N   1      28.914  15.998   2.724  0.00  0.00     0.004 C 
BRANCH   3   4
HETATM    4  C   UNK N   1      30.139  15.314   3.308  0.00  0.00     0.027 C 
BRANCH   4   5
HETATM    5  C   UNK N   1      29.796  14.548   4.555  0.00  0.00    -0.031 C 
HETATM    6  C   UNK N   1      30.136  14.962   5.786  0.00  0.00    -0.031 C 
BRANCH   6   7
HETATM    7  C   UNK N   1      30.902  16.232   6.019  0.00  0.00     0.027 C 
BRANCH   7   8
HETATM    8  C   UNK N   1      29.957  17.379   6.312  0.00  0.00     0.004 C 
BRANCH   8   9
HETATM    9  C   UNK N   1      28.542  16.866   6.464  0.00  0.00     0.000 C 
BRANCH   9  10
HETATM   10  C   UNK N   1      27.596  17.987   6.093  0.00  0.00     0.000 C 
BRANCH  10  11
HETATM   11  C   UNK N   1      28.281  18.995   5.198  0.00  0.00     0.000 C 
BRANCH  11  12
HETATM   12  C   UNK N   1      27.436  19.167   3.952  0.00  0.00    -0.000 C 
BRANCH  12  13
HETATM   13  C   UNK N   1      26.583  20.409   4.065  0.00  0.00    -0.005 C 
HETATM   14  C   UNK N   1      25.668  20.489   2.860  0.00  0.00     0.005 C 
ENDBRANCH  12  13
ENDBRANCH  11  12
ENDBRANCH  10  11
ENDBRANCH   9  10
ENDBRANCH   8   9
ENDBRANCH   7   8
ENDBRANCH   6   7
ENDBRANCH   4   5
ENDBRANCH   3   4
ENDBRANCH   2   3
ENDBRANCH   1   2
BRANCH   1  15
HETATM   15  C   UNK N   1      25.560  15.978   3.875  0.00  0.00     0.000 C 
BRANCH  15  16
HETATM   16  C   UNK N   1      24.342  16.846   3.609  0.00  0.00     0.010 C 
BRANCH  16  17
HETATM   17  C   UNK N   1      24.091  17.740   4.810  0.00  0.00     0.111 C 
BRANCH  17  18
HETATM   18  C   UNK N   1      22.657  18.154   4.871  0.00  0.00     0.258 C 
HETATM   19  O   UNK N   1      22.069  18.159   5.937  0.00  0.00    -0.265 OA
BRANCH  18  20
HETATM   20  O   UNK N   1      22.020  18.470   3.718  0.00  0.00    -0.319 OA
BRANCH  20  21
HETATM   21  C   UNK N   1      21.262  19.612   3.581  0.00  0.00     0.212 C 
BRANCH  21  22
HETATM   22  C   UNK N   1      21.721  20.377   2.353  0.00  0.00     0.166 C 
BRANCH  22  23
HETATM   23  C   UNK N   1      20.661  20.280   1.272  0.00  0.00     0.198 C 
BRANCH  23  24
HETATM   24  O   UNK N   1      21.111  20.907   0.110  0.00  0.00    -0.398 OA
HETATM   25  H   UNK N   1      21.091  20.464  -0.753  0.00  0.00     0.209 HD
ENDBRANCH  23  24
ENDBRANCH  22  23
BRANCH  22  26
HETATM   26  O   UNK N   1      21.936  21.716   2.681  0.00  0.00    -0.391 OA
HETATM   27  H   UNK N   1      22.361  22.391   2.129  0.00  0.00     0.210 HD
ENDBRANCH  22  26
ENDBRANCH  21  22
ENDBRANCH  20  21
ENDBRANCH  18  20
ENDBRANCH  17  18
ENDBRANCH  16  17
ENDBRANCH  15  16
ENDBRANCH   1  15
TORSDOF 21
ENDMDL
MODEL 7
REMARK VINA RESULT:      -4.6     14.043     17.635
REMARK  21 active torsions:
REMARK  status: ('A' for Active; 'I' for Inactive)
REMARK    1  A    between atoms: C_3  and  C_2 
REMARK    2  A    between atoms: C_4  and  C_3 
REMARK    3  A    between atoms: C_5  and  C_4 
REMARK    4  A    between atoms: C_6  and  C_5 
REMARK    5  A    between atoms: C_7  and  C_6 
REMARK    6  A    between atoms: C_8  and  C_7 
REMARK    7  A    between atoms: C_9  and  C_8 
REMARK    8  A    between atoms: C_11  and  C_10 
REMARK    9  A    between atoms: C_12  and  C_11 
REMARK   10  A    between atoms: C_13  and  C_12 
REMARK   11  A    between atoms: C_14  and  C_13 
REMARK   12  A    between atoms: C_15  and  C_14 
REMARK   13  A    between atoms: C_16  and  C_15 
REMARK   14  A    between atoms: C_17  and  C_16 
REMARK   15  A    between atoms: C_21  and  C_17 
REMARK   16  A    between atoms: C_20  and  C_18 
REMARK   17  A    between atoms: O_22  and  C_18 
REMARK   18  A    between atoms: C_20  and  C_19 
REMARK   19  A    between atoms: O_25  and  C_19 
REMARK   20  A    between atoms: O_23  and  C_20 
REMARK   21  A    between atoms: O_25  and  C_21 
ROOT
HETATM    1  C   UNK N   1      20.882  13.852   7.105  0.00  0.00     0.000 C 
ENDROOT
BRANCH   1   2
HETATM    2  C   UNK N   1      21.296  14.986   8.018  0.00  0.00     0.000 C 
BRANCH   2   3
HETATM    3  C   UNK N   1      21.069  14.591   9.463  0.00  0.00     0.004 C 
BRANCH   3   4
HETATM    4  C   UNK N   1      20.896  13.084   9.541  0.00  0.00     0.027 C 
BRANCH   4   5
HETATM    5  C   UNK N   1      21.176  12.571  10.925  0.00  0.00    -0.031 C 
HETATM    6  C   UNK N   1      22.303  11.917  11.251  0.00  0.00    -0.031 C 
BRANCH   6   7
HETATM    7  C   UNK N   1      23.381  11.635  10.245  0.00  0.00     0.027 C 
BRANCH   7   8
HETATM    8  C   UNK N   1      24.636  12.416  10.575  0.00  0.00     0.004 C 
BRANCH   8   9
HETATM    9  C   UNK N   1      25.043  13.276   9.398  0.00  0.00     0.000 C 
BRANCH   9  10
HETATM   10  C   UNK N   1      24.410  12.694   8.153  0.00  0.00     0.000 C 
BRANCH  10  11
HETATM   11  C   UNK N   1      24.987  13.330   6.908  0.00  0.00     0.000 C 
BRANCH  11  12
HETATM   12  C   UNK N   1      24.723  14.820   6.977  0.00  0.00    -0.000 C 
BRANCH  12  13
HETATM   13  C   UNK N   1      25.651  15.560   6.041  0.00  0.00    -0.005 C 
HETATM   14  C   UNK N   1      26.000  14.657   4.877  0.00  0.00     0.005 C 
ENDBRANCH  12  13
ENDBRANCH  11  12
ENDBRANCH  10  11
ENDBRANCH   9  10
ENDBRANCH   8   9
ENDBRANCH   7   8
ENDBRANCH   6   7
ENDBRANCH   4   5
ENDBRANCH   3   4
ENDBRANCH   2   3
ENDBRANCH   1   2
BRANCH   1  15
HETATM   15  C   UNK N   1      20.581  14.389   5.713  0.00  0.00     0.000 C 
BRANCH  15  16
HETATM   16  C   UNK N   1      20.793  15.893   5.659  0.00  0.00     0.010 C 
BRANCH  16  17
HETATM   17  C   UNK N   1      19.858  16.494   4.624  0.00  0.00     0.111 C 
BRANCH  17  18
HETATM   18  C   UNK N   1      20.617  17.332   3.648  0.00  0.00     0.258 C 
HETATM   19  O   UNK N   1      21.830  17.400   3.718  0.00  0.00    -0.265 OA
BRANCH  18  20
HETATM   20  O   UNK N   1      19.926  18.048   2.728  0.00  0.00    -0.319 OA
BRANCH  20  21
HETATM   21  C   UNK N   1      19.814  19.418   2.790  0.00  0.00     0.212 C 
BRANCH  21  22
HETATM   22  C   UNK N   1      21.015  20.053   2.112  0.00  0.00     0.166 C 
BRANCH  22  23
HETATM   23  C   UNK N   1      20.550  21.195   1.227  0.00  0.00     0.198 C 
BRANCH  23  24
HETATM   24  O   UNK N   1      20.815  20.895  -0.109  0.00  0.00    -0.398 OA
HETATM   25  H   UNK N   1      21.718  20.744  -0.432  0.00  0.00     0.209 HD
ENDBRANCH  23  24
ENDBRANCH  22  23
BRANCH  22  26
HETATM   26  O   UNK N   1      21.903  20.536   3.075  0.00  0.00    -0.391 OA
HETATM   27  H   UNK N   1      22.618  21.177   2.939  0.00  0.00     0.210 HD
ENDBRANCH  22  26
ENDBRANCH  21  22
ENDBRANCH  20  21
ENDBRANCH  18  20
ENDBRANCH  17  18
ENDBRANCH  16  17
ENDBRANCH  15  16
ENDBRANCH   1  15
TORSDOF 21
ENDMDL
MODEL 8
REMARK VINA RESULT:      -4.6     13.305     16.811
REMARK  21 active torsions:
REMARK  status: ('A' for Active; 'I' for Inactive)
REMARK    1  A    between atoms: C_3  and  C_2 
REMARK    2  A    between atoms: C_4  and  C_3 
REMARK    3  A    between atoms: C_5  and  C_4 
REMARK    4  A    between atoms: C_6  and  C_5 
REMARK    5  A    between atoms: C_7  and  C_6 
REMARK    6  A    between atoms: C_8  and  C_7 
REMARK    7  A    between atoms: C_9  and  C_8 
REMARK    8  A    between atoms: C_11  and  C_10 
REMARK    9  A    between atoms: C_12  and  C_11 
REMARK   10  A    between atoms: C_13  and  C_12 
REMARK   11  A    between atoms: C_14  and  C_13 
REMARK   12  A    between atoms: C_15  and  C_14 
REMARK   13  A    between atoms: C_16  and  C_15 
REMARK   14  A    between atoms: C_17  and  C_16 
REMARK   15  A    between atoms: C_21  and  C_17 
REMARK   16  A    between atoms: C_20  and  C_18 
REMARK   17  A    between atoms: O_22  and  C_18 
REMARK   18  A    between atoms: C_20  and  C_19 
REMARK   19  A    between atoms: O_25  and  C_19 
REMARK   20  A    between atoms: O_23  and  C_20 
REMARK   21  A    between atoms: O_25  and  C_21 
ROOT
HETATM    1  C   UNK N   1      22.082  15.946   5.280  0.00  0.00     0.000 C 
ENDROOT
BRANCH   1   2
HETATM    2  C   UNK N   1      20.608  16.286   5.211  0.00  0.00     0.000 C 
BRANCH   2   3
HETATM    3  C   UNK N   1      20.082  16.576   6.602  0.00  0.00     0.004 C 
BRANCH   3   4
HETATM    4  C   UNK N   1      21.176  16.282   7.614  0.00  0.00     0.027 C 
BRANCH   4   5
HETATM    5  C   UNK N   1      20.602  15.824   8.924  0.00  0.00    -0.031 C 
HETATM    6  C   UNK N   1      20.535  14.531   9.283  0.00  0.00    -0.031 C 
BRANCH   6   7
HETATM    7  C   UNK N   1      21.027  13.429   8.391  0.00  0.00     0.027 C 
BRANCH   7   8
HETATM    8  C   UNK N   1      21.722  12.355   9.202  0.00  0.00     0.004 C 
BRANCH   8   9
HETATM    9  C   UNK N   1      22.410  12.968  10.402  0.00  0.00     0.000 C 
BRANCH   9  10
HETATM   10  C   UNK N   1      23.860  12.537  10.382  0.00  0.00     0.000 C 
BRANCH  10  11
HETATM   11  C   UNK N   1      24.322  12.271   8.966  0.00  0.00     0.000 C 
BRANCH  11  12
HETATM   12  C   UNK N   1      25.118  13.471   8.499  0.00  0.00    -0.000 C 
BRANCH  12  13
HETATM   13  C   UNK N   1      24.542  14.013   7.211  0.00  0.00    -0.005 C 
HETATM   14  C   UNK N   1      25.329  15.238   6.796  0.00  0.00     0.005 C 
ENDBRANCH  12  13
ENDBRANCH  11  12
ENDBRANCH  10  11
ENDBRANCH   9  10
ENDBRANCH   8   9
ENDBRANCH   7   8
ENDBRANCH   6   7
ENDBRANCH   4   5
ENDBRANCH   3   4
ENDBRANCH   2   3
ENDBRANCH   1   2
BRANCH   1  15
HETATM   15  C   UNK N   1      22.851  16.759   4.249  0.00  0.00     0.000 C 
BRANCH  15  16
HETATM   16  C   UNK N   1      23.034  18.193   4.720  0.00  0.00     0.010 C 
BRANCH  16  17
HETATM   17  C   UNK N   1      23.828  18.965   3.681  0.00  0.00     0.111 C 
BRANCH  17  18
HETATM   18  C   UNK N   1      23.101  20.205   3.275  0.00  0.00     0.258 C 
HETATM   19  O   UNK N   1      23.723  21.170   2.872  0.00  0.00    -0.265 OA
BRANCH  18  20
HETATM   20  O   UNK N   1      21.754  20.247   3.414  0.00  0.00    -0.319 OA
BRANCH  20  21
HETATM   21  C   UNK N   1      20.899  20.250   2.335  0.00  0.00     0.212 C 
BRANCH  21  22
HETATM   22  C   UNK N   1      20.586  18.820   1.936  0.00  0.00     0.166 C 
BRANCH  22  23
HETATM   23  C   UNK N   1      19.412  18.313   2.753  0.00  0.00     0.198 C 
BRANCH  23  24
HETATM   24  O   UNK N   1      18.217  18.775   2.200  0.00  0.00    -0.398 OA
HETATM   25  H   UNK N   1      17.725  19.516   2.587  0.00  0.00     0.209 HD
ENDBRANCH  23  24
ENDBRANCH  22  23
BRANCH  22  26
HETATM   26  O   UNK N   1      20.272  18.764   0.577  0.00  0.00    -0.391 OA
HETATM   27  H   UNK N   1      19.779  19.424   0.065  0.00  0.00     0.210 HD
ENDBRANCH  22  26
ENDBRANCH  21  22
ENDBRANCH  20  21
ENDBRANCH  18  20
ENDBRANCH  17  18
ENDBRANCH  16  17
ENDBRANCH  15  16
ENDBRANCH   1  15
TORSDOF 21
ENDMDL
MODEL 9
REMARK VINA RESULT:      -4.6     11.412     14.375
REMARK  21 active torsions:
REMARK  status: ('A' for Active; 'I' for Inactive)
REMARK    1  A    between atoms: C_3  and  C_2 
REMARK    2  A    between atoms: C_4  and  C_3 
REMARK    3  A    between atoms: C_5  and  C_4 
REMARK    4  A    between atoms: C_6  and  C_5 
REMARK    5  A    between atoms: C_7  and  C_6 
REMARK    6  A    between atoms: C_8  and  C_7 
REMARK    7  A    between atoms: C_9  and  C_8 
REMARK    8  A    between atoms: C_11  and  C_10 
REMARK    9  A    between atoms: C_12  and  C_11 
REMARK   10  A    between atoms: C_13  and  C_12 
REMARK   11  A    between atoms: C_14  and  C_13 
REMARK   12  A    between atoms: C_15  and  C_14 
REMARK   13  A    between atoms: C_16  and  C_15 
REMARK   14  A    between atoms: C_17  and  C_16 
REMARK   15  A    between atoms: C_21  and  C_17 
REMARK   16  A    between atoms: C_20  and  C_18 
REMARK   17  A    between atoms: O_22  and  C_18 
REMARK   18  A    between atoms: C_20  and  C_19 
REMARK   19  A    between atoms: O_25  and  C_19 
REMARK   20  A    between atoms: O_23  and  C_20 
REMARK   21  A    between atoms: O_25  and  C_21 
ROOT
HETATM    1  C   UNK N   1      26.855  18.838   4.883  0.00  0.00     0.000 C 
ENDROOT
BRANCH   1   2
HETATM    2  C   UNK N   1      27.409  20.159   5.373  0.00  0.00     0.000 C 
BRANCH   2   3
HETATM    3  C   UNK N   1      27.690  20.080   6.860  0.00  0.00     0.004 C 
BRANCH   3   4
HETATM    4  C   UNK N   1      28.286  18.719   7.176  0.00  0.00     0.027 C 
BRANCH   4   5
HETATM    5  C   UNK N   1      28.139  18.382   8.633  0.00  0.00    -0.031 C 
HETATM    6  C   UNK N   1      29.169  18.381   9.494  0.00  0.00    -0.031 C 
BRANCH   6   7
HETATM    7  C   UNK N   1      30.569  18.713   9.063  0.00  0.00     0.027 C 
BRANCH   7   8
HETATM    8  C   UNK N   1      31.302  17.463   8.623  0.00  0.00     0.004 C 
BRANCH   8   9
HETATM    9  C   UNK N   1      32.722  17.803   8.222  0.00  0.00     0.000 C 
BRANCH   9  10
HETATM   10  C   UNK N   1      32.852  17.581   6.731  0.00  0.00     0.000 C 
BRANCH  10  11
HETATM   11  C   UNK N   1      31.734  16.701   6.218  0.00  0.00     0.000 C 
BRANCH  11  12
HETATM   12  C   UNK N   1      31.124  17.375   5.007  0.00  0.00    -0.000 C 
BRANCH  12  13
HETATM   13  C   UNK N   1      32.210  17.901   4.097  0.00  0.00    -0.005 C 
HETATM   14  C   UNK N   1      32.561  16.834   3.081  0.00  0.00     0.005 C 
ENDBRANCH  12  13
ENDBRANCH  11  12
ENDBRANCH  10  11
ENDBRANCH   9  10
ENDBRANCH   8   9
ENDBRANCH   7   8
ENDBRANCH   6   7
ENDBRANCH   4   5
ENDBRANCH   3   4
ENDBRANCH   2   3
ENDBRANCH   1   2
BRANCH   1  15
HETATM   15  C   UNK N   1      26.042  19.055   3.615  0.00  0.00     0.000 C 
BRANCH  15  16
HETATM   16  C   UNK N   1      24.647  19.558   3.948  0.00  0.00     0.010 C 
BRANCH  16  17
HETATM   17  C   UNK N   1      23.930  18.522   4.796  0.00  0.00     0.111 C 
BRANCH  17  18
HETATM   18  C   UNK N   1      22.834  17.870   4.018  0.00  0.00     0.258 C 
HETATM   19  O   UNK N   1      23.028  16.801   3.471  0.00  0.00    -0.265 OA
BRANCH  18  20
HETATM   20  O   UNK N   1      21.649  18.516   3.895  0.00  0.00    -0.319 OA
BRANCH  20  21
HETATM   21  C   UNK N   1      20.731  18.196   2.920  0.00  0.00     0.212 C 
BRANCH  21  22
HETATM   22  C   UNK N   1      20.023  19.458   2.461  0.00  0.00     0.166 C 
BRANCH  22  23
HETATM   23  C   UNK N   1      20.631  20.660   3.158  0.00  0.00     0.198 C 
BRANCH  23  24
HETATM   24  O   UNK N   1      21.868  20.961   2.590  0.00  0.00    -0.398 OA
HETATM   25  H   UNK N   1      21.981  21.065   1.632  0.00  0.00     0.209 HD
ENDBRANCH  23  24
ENDBRANCH  22  23
BRANCH  22  26
HETATM   26  O   UNK N   1      20.154  19.599   1.079  0.00  0.00    -0.391 OA
HETATM   27  H   UNK N   1      20.816  20.127   0.607  0.00  0.00     0.210 HD
ENDBRANCH  22  26
ENDBRANCH  21  22
ENDBRANCH  20  21
ENDBRANCH  18  20
ENDBRANCH  17  18
ENDBRANCH  16  17
ENDBRANCH  15  16
ENDBRANCH   1  15
TORSDOF 21
ENDMDL
