REMARK  9 active torsions:
REMARK  status: ('A' for Active; 'I' for Inactive)
REMARK    1  A    between atoms: C_15  and  C_14 
REMARK    2  A    between atoms: S_28  and  C_14 
REMARK    3  A    between atoms: C_20  and  C_15 
REMARK    4  A    between atoms: C_22  and  C_16 
REMARK    5  A    between atoms: S_29  and  C_17 
REMARK    6  A    between atoms: C_18  and  S_29 
REMARK    7  A    between atoms: C_19  and  C_21 
REMARK       I    between atoms: N_23  and  C_20 
REMARK    8  A    between atoms: O_26  and  C_21 
REMARK    9  A    between atoms: S_28  and  C_22 
ROOT
HETATM    1  C   UNK N   1       2.122   1.665   0.211  0.00  0.00     0.053 C 
HETATM    2  C   UNK N   1       3.715   3.278  -0.676  0.00  0.00     0.142 C 
HETATM    3  C   UNK N   1       3.622   1.871  -0.091  0.00  0.00     0.073 C 
HETATM    4  C   UNK N   1       1.420   2.883  -0.366  0.00  0.00     0.186 C 
HETATM    5  C   UNK N   1       2.371   5.170   0.173  0.00  0.00     0.225 C 
HETATM    6  N   UNK N   1       2.472   3.877  -0.301  0.00  0.00    -0.336 N 
HETATM    7  O   UNK N   1       1.283   5.600   0.526  0.00  0.00    -0.273 OA
ENDROOT
BRANCH   4   8
HETATM    8  C   UNK N   1       0.084   3.172   0.289  0.00  0.00     0.163 C 
HETATM    9  O   UNK N   1      -0.312   2.485   1.217  0.00  0.00    -0.648 OA
BRANCH   8  10
HETATM   10  O   UNK N   1      -0.717   4.135  -0.207  0.00  0.00    -0.775 OA
HETATM   11  H   UNK N   1      -0.416   4.953  -0.552  0.00  0.00     0.167 HD
ENDBRANCH   8  10
ENDBRANCH   4   8
BRANCH   5  12
HETATM   12  C   UNK N   1       3.544   6.154   0.262  0.00  0.00     0.084 C 
HETATM   13  C   UNK N   1       3.288   7.286  -0.716  0.00  0.00     0.020 C 
BRANCH  12  14
HETATM   14  C   UNK N   1       4.966   5.646   0.020  0.00  0.00     0.096 C 
BRANCH  14  15
HETATM   15  S   UNK N   1       5.584   4.729   1.473  0.00  0.00    -0.086 SA
BRANCH  15  16
HETATM   16  C   UNK N   1       6.935   3.924   0.594  0.00  0.00     0.219 C 
HETATM   17  O   UNK N   1       6.883   2.718   0.405  0.00  0.00    -0.280 OA
BRANCH  16  18
HETATM   18  C   UNK N   1       8.130   4.687   0.169  0.00  0.00     0.021 A 
HETATM   19  C   UNK N   1       8.168   6.083   0.301  0.00  0.00     0.016 A 
HETATM   20  C   UNK N   1       9.299   6.801  -0.095  0.00  0.00     0.001 A 
HETATM   21  C   UNK N   1      10.407   6.127  -0.614  0.00  0.00     0.000 A 
HETATM   22  C   UNK N   1      10.382   4.736  -0.744  0.00  0.00     0.001 A 
HETATM   23  C   UNK N   1       9.245   4.018  -0.360  0.00  0.00     0.016 A 
ENDBRANCH  16  18
ENDBRANCH  15  16
ENDBRANCH  14  15
ENDBRANCH  12  14
ENDBRANCH   5  12
BRANCH   3  24
HETATM   24  S   UNK N   1       4.298   0.704  -1.328  0.00  0.00    -0.123 SA
BRANCH  24  25
HETATM   25  C   UNK N   1       3.646  -0.815  -0.629  0.00  0.00     0.001 A 
HETATM   26  C   UNK N   1       4.487  -1.688   0.068  0.00  0.00     0.018 A 
HETATM   27  C   UNK N   1       3.982  -2.894   0.568  0.00  0.00     0.001 A 
HETATM   28  C   UNK N   1       2.638  -3.226   0.371  0.00  0.00     0.000 A 
HETATM   29  C   UNK N   1       1.800  -2.357  -0.332  0.00  0.00     0.001 A 
HETATM   30  C   UNK N   1       2.306  -1.159  -0.840  0.00  0.00     0.018 A 
ENDBRANCH  24  25
ENDBRANCH   3  24
TORSDOF 9
