REMARK  6 active torsions:
REMARK  status: ('A' for Active; 'I' for Inactive)
REMARK    1  A    between atoms: C_13  and  C_6 
REMARK    2  A    between atoms: C_16  and  C_6 
REMARK    3  A    between atoms: C_24  and  C_13 
REMARK    4  A    between atoms: C_23  and  O_30 
REMARK    5  A    between atoms: O_30  and  C_24 
REMARK    6  A    between atoms: O_29  and  C_25 
ROOT
HETATM    1  C   UNK N   1       1.936   1.716   1.569  0.00  0.00     0.018 C 
HETATM    2  C   UNK N   1       4.491  -1.947   0.199  0.00  0.00     0.010 C 
HETATM    3  C   UNK N   1       5.673  -1.752   1.137  0.00  0.00     0.038 C 
HETATM    4  C   UNK N   1       7.023   1.633   0.192  0.00  0.00     0.017 C 
HETATM    5  C   UNK N   1       1.480  -1.425  -0.445  0.00  0.00     0.008 C 
HETATM    6  C   UNK N   1       8.456   1.362  -0.307  0.00  0.00     0.086 C 
HETATM    7  C   UNK N   1       0.369  -0.542  -0.977  0.00  0.00     0.034 C 
HETATM    8  C   UNK N   1       4.015   1.865  -0.593  0.00  0.00     0.006 C 
HETATM    9  C   UNK N   1       2.486   1.723  -0.849  0.00  0.00     0.012 C 
HETATM   10  C   UNK N   1       6.128   0.455  -0.183  0.00  0.00     0.022 C 
HETATM   11  C   UNK N   1       4.638   0.657   0.160  0.00  0.00    -0.002 C 
HETATM   12  C   UNK N   1       3.836  -0.611  -0.211  0.00  0.00    -0.005 C 
HETATM   13  C   UNK N   1       6.651  -0.798   0.504  0.00  0.00    -0.038 C 
HETATM   14  C   UNK N   1       2.403  -0.506   0.359  0.00  0.00     0.001 C 
HETATM   15  C   UNK N   1       8.922  -0.045   0.002  0.00  0.00     0.182 C 
HETATM   16  C   UNK N   1       0.319   0.613   0.002  0.00  0.00     0.140 C 
HETATM   17  C   UNK N   1       7.971  -1.057   0.522  0.00  0.00     0.114 C 
HETATM   18  C   UNK N   1       1.792   0.921   0.269  0.00  0.00    -0.013 C 
HETATM   19  O   UNK N   1      10.105  -0.325  -0.114  0.00  0.00    -0.290 OA
ENDROOT
BRANCH  16  20
HETATM   20  O   UNK N   1      -0.395   1.680  -0.514  0.00  0.00    -0.315 OA
BRANCH  20  21
HETATM   21  C   UNK N   1      -1.733   1.608  -0.754  0.00  0.00     0.259 C 
HETATM   22  O   UNK N   1      -2.394   0.674  -0.323  0.00  0.00    -0.265 OA
BRANCH  21  23
HETATM   23  C   UNK N   1      -2.414   2.657  -1.573  0.00  0.00     0.111 C 
BRANCH  23  24
HETATM   24  C   UNK N   1      -2.244   4.076  -1.035  0.00  0.00     0.014 C 
BRANCH  24  25
HETATM   25  C   UNK N   1      -2.409   4.213   0.481  0.00  0.00    -0.014 C 
HETATM   26  C   UNK N   1      -2.518   5.680   0.830  0.00  0.00     0.004 C 
HETATM   27  C   UNK N   1      -3.989   6.026   0.676  0.00  0.00     0.000 C 
HETATM   28  C   UNK N   1      -4.756   4.723   0.826  0.00  0.00     0.000 C 
HETATM   29  C   UNK N   1      -3.719   3.627   0.975  0.00  0.00     0.004 C 
ENDBRANCH  24  25
ENDBRANCH  23  24
ENDBRANCH  21  23
ENDBRANCH  20  21
ENDBRANCH  16  20
BRANCH  17  30
HETATM   30  O   UNK N   1       8.436  -2.208   1.050  0.00  0.00    -0.357 OA
HETATM   31  H   UNK N   1       7.905  -2.887   1.418  0.00  0.00     0.218 HD
ENDBRANCH  17  30
TORSDOF 6
