MODEL 1
REMARK VINA RESULT:      -6.5      0.000      0.000
REMARK  26 active torsions:
REMARK  status: ('A' for Active; 'I' for Inactive)
REMARK    1  A    between atoms: N_2  and  C_27 
REMARK    2  A    between atoms: C_7  and  O_25 
REMARK    3  A    between atoms: C_8  and  O_23 
REMARK    4  A    between atoms: C_11  and  C_12 
REMARK    5  A    between atoms: C_12  and  C_13 
REMARK    6  A    between atoms: C_16  and  O_21 
REMARK    7  A    between atoms: C_17  and  O_19 
REMARK    8  A    between atoms: C_27  and  C_28 
REMARK    9  A    between atoms: C_28  and  C_29 
REMARK   10  A    between atoms: C_29  and  O_31 
REMARK   11  A    between atoms: O_31  and  C_32 
REMARK   12  A    between atoms: C_32  and  C_33 
REMARK   13  A    between atoms: C_33  and  C_34 
REMARK   14  A    between atoms: C_34  and  C_35 
REMARK   15  A    between atoms: C_35  and  C_36 
REMARK   16  A    between atoms: C_36  and  O_37 
REMARK   17  A    between atoms: O_37  and  C_38 
REMARK   18  A    between atoms: C_38  and  C_40 
REMARK   19  A    between atoms: C_40  and  C_41 
REMARK   20  A    between atoms: N_42  and  C_41 
REMARK   21  A    between atoms: C_47  and  O_65 
REMARK   22  A    between atoms: C_48  and  O_63 
REMARK   23  A    between atoms: C_51  and  C_52 
REMARK   24  A    between atoms: C_52  and  C_53 
REMARK   25  A    between atoms: C_56  and  O_61 
REMARK   26  A    between atoms: C_57  and  O_59 
ROOT
HETATM    1  C   UNK N   1      21.362  18.146   6.382  0.00  0.00     0.004 C 
ENDROOT
BRANCH   1   2
HETATM    2  C   UNK N   1      21.291  16.850   7.166  0.00  0.00     0.027 C 
BRANCH   2   3
HETATM    3  C   UNK N   1      19.838  16.408   7.292  0.00  0.00     0.178 C 
BRANCH   3   4
HETATM    4  O   UNK N   1      19.581  15.343   6.456  0.00  0.00    -0.321 OA
BRANCH   4   5
HETATM    5  C   UNK N   1      18.897  15.480   5.290  0.00  0.00     0.260 C 
HETATM    6  O   UNK N   1      17.680  15.355   5.260  0.00  0.00    -0.265 OA
BRANCH   5   7
HETATM    7  C   UNK N   1      19.645  15.789   4.031  0.00  0.00     0.139 C 
BRANCH   7   8
HETATM    8  C   UNK N   1      19.765  14.586   3.078  0.00  0.00     0.247 C 
BRANCH   8   9
HETATM    9  N   UNK N   1      20.228  14.872   1.696  0.00  0.00    -0.062 N 
HETATM   10  C   UNK N   1      20.569  16.274   1.583  0.00  0.00     0.273 C 
HETATM   11  C   UNK N   1      19.081  14.738   0.796  0.00  0.00     0.242 C 
HETATM   12  C   UNK N   1      18.512  13.326   0.771  0.00  0.00     0.067 C 
HETATM   13  C   UNK N   1      19.586  12.301   0.623  0.00  0.00    -0.045 A 
HETATM   14  C   UNK N   1      19.214  11.025   0.200  0.00  0.00     0.047 A 
HETATM   15  C   UNK N   1      20.943  12.607   0.859  0.00  0.00    -0.018 A 
HETATM   16  C   UNK N   1      20.166  10.027  -0.019  0.00  0.00     0.102 A 
HETATM   17  C   UNK N   1      21.531  10.315   0.223  0.00  0.00     0.102 A 
HETATM   18  C   UNK N   1      21.887  11.601   0.657  0.00  0.00     0.049 A 
HETATM   19  C   UNK N   1      21.367  14.039   1.208  0.00  0.00     0.227 C 
BRANCH  16  20
HETATM   20  O   UNK N   1      19.722   8.825  -0.473  0.00  0.00    -0.353 OA
HETATM   21  C   UNK N   1      19.248   8.575  -1.739  0.00  0.00     0.210 C 
ENDBRANCH  16  20
BRANCH  17  22
HETATM   22  O   UNK N   1      22.482   9.368   0.026  0.00  0.00    -0.353 OA
HETATM   23  C   UNK N   1      22.926   8.514   1.010  0.00  0.00     0.210 C 
ENDBRANCH  17  22
BRANCH  19  24
HETATM   24  C   UNK N   1      22.668  14.294   2.033  0.00  0.00     0.077 C 
BRANCH  24  25
HETATM   25  C   UNK N   1      22.916  13.845   3.449  0.00  0.00    -0.053 A 
HETATM   26  C   UNK N   1      23.028  14.729   4.521  0.00  0.00     0.010 A 
HETATM   27  C   UNK N   1      23.427  14.274   5.778  0.00  0.00     0.040 A 
HETATM   28  C   UNK N   1      23.685  12.910   5.994  0.00  0.00     0.101 A 
HETATM   29  C   UNK N   1      23.489  11.999   4.944  0.00  0.00     0.102 A 
HETATM   30  C   UNK N   1      23.120  12.478   3.673  0.00  0.00     0.046 A 
BRANCH  28  31
HETATM   31  O   UNK N   1      24.129  12.461   7.192  0.00  0.00    -0.353 OA
HETATM   32  C   UNK N   1      24.694  13.284   8.141  0.00  0.00     0.210 C 
ENDBRANCH  28  31
BRANCH  29  33
HETATM   33  O   UNK N   1      23.684  10.677   5.172  0.00  0.00    -0.353 OA
HETATM   34  C   UNK N   1      24.246   9.825   4.248  0.00  0.00     0.210 C 
ENDBRANCH  29  33
ENDBRANCH  24  25
ENDBRANCH  19  24
ENDBRANCH   8   9
ENDBRANCH   7   8
ENDBRANCH   5   7
ENDBRANCH   4   5
ENDBRANCH   3   4
ENDBRANCH   2   3
ENDBRANCH   1   2
BRANCH   1  35
HETATM   35  C   UNK N   1      22.574  18.202   5.477  0.00  0.00     0.027 C 
BRANCH  35  36
HETATM   36  C   UNK N   1      22.200  18.729   4.086  0.00  0.00     0.178 C 
BRANCH  36  37
HETATM   37  O   UNK N   1      23.305  19.018   3.302  0.00  0.00    -0.321 OA
BRANCH  37  38
HETATM   38  C   UNK N   1      23.946  20.215   3.287  0.00  0.00     0.260 C 
HETATM   39  O   UNK N   1      23.325  21.217   2.962  0.00  0.00    -0.265 OA
BRANCH  38  40
HETATM   40  C   UNK N   1      25.401  20.320   3.679  0.00  0.00     0.139 C 
BRANCH  40  41
HETATM   41  C   UNK N   1      26.123  18.980   3.623  0.00  0.00     0.247 C 
BRANCH  41  42
HETATM   42  N   UNK N   1      27.148  18.796   4.660  0.00  0.00    -0.062 N 
HETATM   43  C   UNK N   1      26.635  19.199   5.980  0.00  0.00     0.242 C 
HETATM   44  C   UNK N   1      27.716  19.171   7.077  0.00  0.00     0.067 C 
HETATM   45  C   UNK N   1      28.781  18.127   6.870  0.00  0.00    -0.045 A 
HETATM   46  C   UNK N   1      29.781  17.983   7.832  0.00  0.00     0.047 A 
HETATM   47  C   UNK N   1      28.787  17.298   5.734  0.00  0.00    -0.018 A 
HETATM   48  C   UNK N   1      30.773  17.002   7.708  0.00  0.00     0.102 A 
HETATM   49  C   UNK N   1      30.759  16.147   6.578  0.00  0.00     0.102 A 
HETATM   50  C   UNK N   1      29.779  16.329   5.594  0.00  0.00     0.049 A 
HETATM   51  C   UNK N   1      27.694  17.410   4.699  0.00  0.00     0.227 C 
HETATM   52  C   UNK N   1      28.200  19.727   4.255  0.00  0.00     0.273 C 
BRANCH  48  53
HETATM   53  O   UNK N   1      31.683  16.893   8.711  0.00  0.00    -0.353 OA
HETATM   54  C   UNK N   1      33.006  17.266   8.635  0.00  0.00     0.210 C 
ENDBRANCH  48  53
BRANCH  49  55
HETATM   55  O   UNK N   1      31.652  15.132   6.477  0.00  0.00    -0.353 OA
HETATM   56  C   UNK N   1      31.588  14.175   5.492  0.00  0.00     0.210 C 
ENDBRANCH  49  55
BRANCH  51  57
HETATM   57  C   UNK N   1      26.614  16.342   5.019  0.00  0.00     0.077 C 
BRANCH  57  58
HETATM   58  C   UNK N   1      26.640  15.123   4.143  0.00  0.00    -0.053 A 
HETATM   59  C   UNK N   1      26.389  15.219   2.776  0.00  0.00     0.010 A 
HETATM   60  C   UNK N   1      26.385  14.089   1.969  0.00  0.00     0.040 A 
HETATM   61  C   UNK N   1      26.671  12.825   2.514  0.00  0.00     0.101 A 
HETATM   62  C   UNK N   1      26.978  12.726   3.882  0.00  0.00     0.102 A 
HETATM   63  C   UNK N   1      26.958  13.875   4.691  0.00  0.00     0.046 A 
BRANCH  61  64
HETATM   64  O   UNK N   1      26.656  11.715   1.743  0.00  0.00    -0.353 OA
HETATM   65  C   UNK N   1      25.534  11.274   1.076  0.00  0.00     0.210 C 
ENDBRANCH  61  64
BRANCH  62  66
HETATM   66  O   UNK N   1      27.288  11.506   4.397  0.00  0.00    -0.353 OA
HETATM   67  C   UNK N   1      28.579  11.099   4.642  0.00  0.00     0.210 C 
ENDBRANCH  62  66
ENDBRANCH  57  58
ENDBRANCH  51  57
ENDBRANCH  41  42
ENDBRANCH  40  41
ENDBRANCH  38  40
ENDBRANCH  37  38
ENDBRANCH  36  37
ENDBRANCH  35  36
ENDBRANCH   1  35
TORSDOF 26
ENDMDL
MODEL 2
REMARK VINA RESULT:      -6.3      3.334     10.026
REMARK  26 active torsions:
REMARK  status: ('A' for Active; 'I' for Inactive)
REMARK    1  A    between atoms: N_2  and  C_27 
REMARK    2  A    between atoms: C_7  and  O_25 
REMARK    3  A    between atoms: C_8  and  O_23 
REMARK    4  A    between atoms: C_11  and  C_12 
REMARK    5  A    between atoms: C_12  and  C_13 
REMARK    6  A    between atoms: C_16  and  O_21 
REMARK    7  A    between atoms: C_17  and  O_19 
REMARK    8  A    between atoms: C_27  and  C_28 
REMARK    9  A    between atoms: C_28  and  C_29 
REMARK   10  A    between atoms: C_29  and  O_31 
REMARK   11  A    between atoms: O_31  and  C_32 
REMARK   12  A    between atoms: C_32  and  C_33 
REMARK   13  A    between atoms: C_33  and  C_34 
REMARK   14  A    between atoms: C_34  and  C_35 
REMARK   15  A    between atoms: C_35  and  C_36 
REMARK   16  A    between atoms: C_36  and  O_37 
REMARK   17  A    between atoms: O_37  and  C_38 
REMARK   18  A    between atoms: C_38  and  C_40 
REMARK   19  A    between atoms: C_40  and  C_41 
REMARK   20  A    between atoms: N_42  and  C_41 
REMARK   21  A    between atoms: C_47  and  O_65 
REMARK   22  A    between atoms: C_48  and  O_63 
REMARK   23  A    between atoms: C_51  and  C_52 
REMARK   24  A    between atoms: C_52  and  C_53 
REMARK   25  A    between atoms: C_56  and  O_61 
REMARK   26  A    between atoms: C_57  and  O_59 
ROOT
HETATM    1  C   UNK N   1      26.785  19.832   3.605  0.00  0.00     0.004 C 
ENDROOT
BRANCH   1   2
HETATM    2  C   UNK N   1      27.705  19.765   4.809  0.00  0.00     0.027 C 
BRANCH   2   3
HETATM    3  C   UNK N   1      27.394  18.513   5.620  0.00  0.00     0.178 C 
BRANCH   3   4
HETATM    4  O   UNK N   1      28.550  17.976   6.145  0.00  0.00    -0.321 OA
BRANCH   4   5
HETATM    5  C   UNK N   1      28.921  18.167   7.437  0.00  0.00     0.260 C 
HETATM    6  O   UNK N   1      28.280  18.908   8.170  0.00  0.00    -0.265 OA
BRANCH   5   7
HETATM    7  C   UNK N   1      30.128  17.458   7.968  0.00  0.00     0.139 C 
BRANCH   7   8
HETATM    8  C   UNK N   1      31.012  16.845   6.867  0.00  0.00     0.247 C 
BRANCH   8   9
HETATM    9  N   UNK N   1      32.478  16.855   7.104  0.00  0.00    -0.062 N 
HETATM   10  C   UNK N   1      32.752  17.443   8.398  0.00  0.00     0.273 C 
HETATM   11  C   UNK N   1      33.082  17.811   6.174  0.00  0.00     0.242 C 
HETATM   12  C   UNK N   1      32.890  17.417   4.716  0.00  0.00     0.067 C 
HETATM   13  C   UNK N   1      33.216  15.979   4.485  0.00  0.00    -0.045 A 
HETATM   14  C   UNK N   1      33.463  15.569   3.175  0.00  0.00     0.047 A 
HETATM   15  C   UNK N   1      33.315  15.059   5.550  0.00  0.00    -0.018 A 
HETATM   16  C   UNK N   1      33.832  14.255   2.882  0.00  0.00     0.102 A 
HETATM   17  C   UNK N   1      33.927  13.318   3.939  0.00  0.00     0.102 A 
HETATM   18  C   UNK N   1      33.666  13.743   5.251  0.00  0.00     0.049 A 
HETATM   19  C   UNK N   1      33.162  15.531   7.001  0.00  0.00     0.227 C 
BRANCH  16  20
HETATM   20  O   UNK N   1      34.097  13.951   1.585  0.00  0.00    -0.353 OA
HETATM   21  C   UNK N   1      35.346  13.929   1.008  0.00  0.00     0.210 C 
ENDBRANCH  16  20
BRANCH  17  22
HETATM   22  O   UNK N   1      34.277  12.031   3.692  0.00  0.00    -0.353 OA
HETATM   23  C   UNK N   1      33.372  11.032   3.414  0.00  0.00     0.210 C 
ENDBRANCH  17  22
BRANCH  19  24
HETATM   24  C   UNK N   1      32.674  14.538   8.103  0.00  0.00     0.077 C 
BRANCH  24  25
HETATM   25  C   UNK N   1      33.525  13.946   9.195  0.00  0.00    -0.053 A 
HETATM   26  C   UNK N   1      33.886  14.647  10.346  0.00  0.00     0.010 A 
HETATM   27  C   UNK N   1      34.813  14.113  11.240  0.00  0.00     0.040 A 
HETATM   28  C   UNK N   1      35.370  12.843  11.017  0.00  0.00     0.101 A 
HETATM   29  C   UNK N   1      34.946  12.092   9.910  0.00  0.00     0.102 A 
HETATM   30  C   UNK N   1      34.036  12.658   8.998  0.00  0.00     0.046 A 
BRANCH  28  31
HETATM   31  O   UNK N   1      36.315  12.336  11.845  0.00  0.00    -0.353 OA
HETATM   32  C   UNK N   1      36.217  12.386  13.218  0.00  0.00     0.210 C 
ENDBRANCH  28  31
BRANCH  29  33
HETATM   33  O   UNK N   1      35.443  10.843   9.730  0.00  0.00    -0.353 OA
HETATM   34  C   UNK N   1      34.753   9.699  10.067  0.00  0.00     0.210 C 
ENDBRANCH  29  33
ENDBRANCH  24  25
ENDBRANCH  19  24
ENDBRANCH   8   9
ENDBRANCH   7   8
ENDBRANCH   5   7
ENDBRANCH   4   5
ENDBRANCH   3   4
ENDBRANCH   2   3
ENDBRANCH   1   2
BRANCH   1  35
HETATM   35  C   UNK N   1      25.370  20.215   3.985  0.00  0.00     0.027 C 
BRANCH  35  36
HETATM   36  C   UNK N   1      24.551  20.600   2.748  0.00  0.00     0.178 C 
BRANCH  36  37
HETATM   37  O   UNK N   1      23.291  21.081   3.062  0.00  0.00    -0.321 OA
BRANCH  37  38
HETATM   38  C   UNK N   1      22.127  20.456   2.744  0.00  0.00     0.260 C 
HETATM   39  O   UNK N   1      21.577  20.729   1.687  0.00  0.00    -0.265 OA
BRANCH  38  40
HETATM   40  C   UNK N   1      21.525  19.424   3.668  0.00  0.00     0.139 C 
BRANCH  40  41
HETATM   41  C   UNK N   1      22.312  18.120   3.688  0.00  0.00     0.247 C 
BRANCH  41  42
HETATM   42  N   UNK N   1      21.898  17.174   4.732  0.00  0.00    -0.062 N 
HETATM   43  C   UNK N   1      20.571  16.609   4.431  0.00  0.00     0.242 C 
HETATM   44  C   UNK N   1      20.022  15.728   5.570  0.00  0.00     0.067 C 
HETATM   45  C   UNK N   1      21.082  15.012   6.364  0.00  0.00    -0.045 A 
HETATM   46  C   UNK N   1      20.691  14.149   7.388  0.00  0.00     0.047 A 
HETATM   47  C   UNK N   1      22.450  15.195   6.097  0.00  0.00    -0.018 A 
HETATM   48  C   UNK N   1      21.634  13.429   8.132  0.00  0.00     0.102 A 
HETATM   49  C   UNK N   1      23.011  13.590   7.840  0.00  0.00     0.102 A 
HETATM   50  C   UNK N   1      23.397  14.494   6.843  0.00  0.00     0.049 A 
HETATM   51  C   UNK N   1      22.898  16.094   4.970  0.00  0.00     0.227 C 
HETATM   52  C   UNK N   1      21.794  18.018   5.922  0.00  0.00     0.273 C 
BRANCH  48  53
HETATM   53  O   UNK N   1      21.170  12.571   9.079  0.00  0.00    -0.353 OA
HETATM   54  C   UNK N   1      20.855  12.907  10.376  0.00  0.00     0.210 C 
ENDBRANCH  48  53
BRANCH  49  55
HETATM   55  O   UNK N   1      23.939  12.840   8.482  0.00  0.00    -0.353 OA
HETATM   56  C   UNK N   1      24.639  13.292   9.577  0.00  0.00     0.210 C 
ENDBRANCH  49  55
BRANCH  51  57
HETATM   57  C   UNK N   1      23.146  15.212   3.717  0.00  0.00     0.077 C 
BRANCH  57  58
HETATM   58  C   UNK N   1      24.583  15.074   3.307  0.00  0.00    -0.053 A 
HETATM   59  C   UNK N   1      25.413  16.190   3.215  0.00  0.00     0.010 A 
HETATM   60  C   UNK N   1      26.735  16.067   2.810  0.00  0.00     0.040 A 
HETATM   61  C   UNK N   1      27.274  14.802   2.516  0.00  0.00     0.101 A 
HETATM   62  C   UNK N   1      26.460  13.665   2.658  0.00  0.00     0.102 A 
HETATM   63  C   UNK N   1      25.118  13.806   3.049  0.00  0.00     0.046 A 
BRANCH  61  64
HETATM   64  O   UNK N   1      28.554  14.669   2.107  0.00  0.00    -0.353 OA
HETATM   65  C   UNK N   1      29.605  15.352   2.681  0.00  0.00     0.210 C 
ENDBRANCH  61  64
BRANCH  62  66
HETATM   66  O   UNK N   1      26.996  12.440   2.407  0.00  0.00    -0.353 OA
HETATM   67  C   UNK N   1      26.613  11.655   1.344  0.00  0.00     0.210 C 
ENDBRANCH  62  66
ENDBRANCH  57  58
ENDBRANCH  51  57
ENDBRANCH  41  42
ENDBRANCH  40  41
ENDBRANCH  38  40
ENDBRANCH  37  38
ENDBRANCH  36  37
ENDBRANCH  35  36
ENDBRANCH   1  35
TORSDOF 26
ENDMDL
MODEL 3
REMARK VINA RESULT:      -6.2      2.598      6.474
REMARK  26 active torsions:
REMARK  status: ('A' for Active; 'I' for Inactive)
REMARK    1  A    between atoms: N_2  and  C_27 
REMARK    2  A    between atoms: C_7  and  O_25 
REMARK    3  A    between atoms: C_8  and  O_23 
REMARK    4  A    between atoms: C_11  and  C_12 
REMARK    5  A    between atoms: C_12  and  C_13 
REMARK    6  A    between atoms: C_16  and  O_21 
REMARK    7  A    between atoms: C_17  and  O_19 
REMARK    8  A    between atoms: C_27  and  C_28 
REMARK    9  A    between atoms: C_28  and  C_29 
REMARK   10  A    between atoms: C_29  and  O_31 
REMARK   11  A    between atoms: O_31  and  C_32 
REMARK   12  A    between atoms: C_32  and  C_33 
REMARK   13  A    between atoms: C_33  and  C_34 
REMARK   14  A    between atoms: C_34  and  C_35 
REMARK   15  A    between atoms: C_35  and  C_36 
REMARK   16  A    between atoms: C_36  and  O_37 
REMARK   17  A    between atoms: O_37  and  C_38 
REMARK   18  A    between atoms: C_38  and  C_40 
REMARK   19  A    between atoms: C_40  and  C_41 
REMARK   20  A    between atoms: N_42  and  C_41 
REMARK   21  A    between atoms: C_47  and  O_65 
REMARK   22  A    between atoms: C_48  and  O_63 
REMARK   23  A    between atoms: C_51  and  C_52 
REMARK   24  A    between atoms: C_52  and  C_53 
REMARK   25  A    between atoms: C_56  and  O_61 
REMARK   26  A    between atoms: C_57  and  O_59 
ROOT
HETATM    1  C   UNK N   1      23.765  11.921   8.948  0.00  0.00     0.004 C 
ENDROOT
BRANCH   1   2
HETATM    2  C   UNK N   1      22.891  11.553  10.131  0.00  0.00     0.027 C 
BRANCH   2   3
HETATM    3  C   UNK N   1      22.120  12.782  10.598  0.00  0.00     0.178 C 
BRANCH   3   4
HETATM    4  O   UNK N   1      20.885  12.840   9.989  0.00  0.00    -0.321 OA
BRANCH   4   5
HETATM    5  C   UNK N   1      20.392  13.984   9.448  0.00  0.00     0.260 C 
HETATM    6  O   UNK N   1      19.265  14.371   9.721  0.00  0.00    -0.265 OA
BRANCH   5   7
HETATM    7  C   UNK N   1      21.245  14.779   8.507  0.00  0.00     0.139 C 
BRANCH   7   8
HETATM    8  C   UNK N   1      20.779  14.697   7.042  0.00  0.00     0.247 C 
BRANCH   8   9
HETATM    9  N   UNK N   1      20.565  15.987   6.337  0.00  0.00    -0.062 N 
HETATM   10  C   UNK N   1      20.669  17.077   7.284  0.00  0.00     0.273 C 
HETATM   11  C   UNK N   1      19.164  16.049   5.916  0.00  0.00     0.242 C 
HETATM   12  C   UNK N   1      18.798  14.955   4.923  0.00  0.00     0.067 C 
HETATM   13  C   UNK N   1      19.808  14.841   3.830  0.00  0.00    -0.045 A 
HETATM   14  C   UNK N   1      19.431  14.177   2.663  0.00  0.00     0.047 A 
HETATM   15  C   UNK N   1      21.091  15.416   3.941  0.00  0.00    -0.018 A 
HETATM   16  C   UNK N   1      20.297  14.079   1.572  0.00  0.00     0.102 A 
HETATM   17  C   UNK N   1      21.592  14.643   1.671  0.00  0.00     0.102 A 
HETATM   18  C   UNK N   1      21.958  15.299   2.856  0.00  0.00     0.049 A 
HETATM   19  C   UNK N   1      21.465  16.248   5.173  0.00  0.00     0.227 C 
BRANCH  16  20
HETATM   20  O   UNK N   1      19.835  13.454   0.457  0.00  0.00    -0.353 OA
HETATM   21  C   UNK N   1      19.075  12.307   0.441  0.00  0.00     0.210 C 
ENDBRANCH  16  20
BRANCH  17  22
HETATM   22  O   UNK N   1      22.462  14.562   0.633  0.00  0.00    -0.353 OA
HETATM   23  C   UNK N   1      23.327  13.509   0.441  0.00  0.00     0.210 C 
ENDBRANCH  17  22
BRANCH  19  24
HETATM   24  C   UNK N   1      22.959  16.375   5.612  0.00  0.00     0.077 C 
BRANCH  24  25
HETATM   25  C   UNK N   1      23.989  17.273   4.979  0.00  0.00    -0.053 A 
HETATM   26  C   UNK N   1      25.362  17.038   5.064  0.00  0.00     0.010 A 
HETATM   27  C   UNK N   1      26.273  17.990   4.609  0.00  0.00     0.040 A 
HETATM   28  C   UNK N   1      25.825  19.185   4.022  0.00  0.00     0.101 A 
HETATM   29  C   UNK N   1      24.447  19.391   3.851  0.00  0.00     0.102 A 
HETATM   30  C   UNK N   1      23.538  18.438   4.346  0.00  0.00     0.046 A 
BRANCH  28  31
HETATM   31  O   UNK N   1      26.697  20.144   3.629  0.00  0.00    -0.353 OA
HETATM   32  C   UNK N   1      27.755  20.562   4.405  0.00  0.00     0.210 C 
ENDBRANCH  28  31
BRANCH  29  33
HETATM   33  O   UNK N   1      24.020  20.520   3.232  0.00  0.00    -0.353 OA
HETATM   34  C   UNK N   1      22.762  20.654   2.687  0.00  0.00     0.210 C 
ENDBRANCH  29  33
ENDBRANCH  24  25
ENDBRANCH  19  24
ENDBRANCH   8   9
ENDBRANCH   7   8
ENDBRANCH   5   7
ENDBRANCH   4   5
ENDBRANCH   3   4
ENDBRANCH   2   3
ENDBRANCH   1   2
BRANCH   1  35
HETATM   35  C   UNK N   1      24.703  13.067   9.262  0.00  0.00     0.027 C 
BRANCH  35  36
HETATM   36  C   UNK N   1      25.113  13.811   7.986  0.00  0.00     0.178 C 
BRANCH  36  37
HETATM   37  O   UNK N   1      24.677  13.183   6.831  0.00  0.00    -0.321 OA
BRANCH  37  38
HETATM   38  C   UNK N   1      25.245  13.342   5.607  0.00  0.00     0.260 C 
HETATM   39  O   UNK N   1      24.536  13.288   4.612  0.00  0.00    -0.265 OA
BRANCH  38  40
HETATM   40  C   UNK N   1      26.726  13.600   5.468  0.00  0.00     0.139 C 
BRANCH  40  41
HETATM   41  C   UNK N   1      27.107  14.119   4.087  0.00  0.00     0.247 C 
BRANCH  41  42
HETATM   42  N   UNK N   1      28.326  13.521   3.526  0.00  0.00    -0.062 N 
HETATM   43  C   UNK N   1      28.409  13.764   2.075  0.00  0.00     0.242 C 
HETATM   44  C   UNK N   1      29.589  13.028   1.411  0.00  0.00     0.067 C 
HETATM   45  C   UNK N   1      30.786  12.845   2.305  0.00  0.00    -0.045 A 
HETATM   46  C   UNK N   1      31.928  12.235   1.787  0.00  0.00     0.047 A 
HETATM   47  C   UNK N   1      30.777  13.275   3.643  0.00  0.00    -0.018 A 
HETATM   48  C   UNK N   1      33.083  12.075   2.562  0.00  0.00     0.102 A 
HETATM   49  C   UNK N   1      33.083  12.537   3.901  0.00  0.00     0.102 A 
HETATM   50  C   UNK N   1      31.917  13.106   4.429  0.00  0.00     0.049 A 
HETATM   51  C   UNK N   1      29.567  13.972   4.216  0.00  0.00     0.227 C 
HETATM   52  C   UNK N   1      28.128  12.090   3.756  0.00  0.00     0.273 C 
BRANCH  48  53
HETATM   53  O   UNK N   1      34.170  11.515   1.970  0.00  0.00    -0.353 OA
HETATM   54  C   UNK N   1      34.457  10.169   1.934  0.00  0.00     0.210 C 
ENDBRANCH  48  53
BRANCH  49  55
HETATM   55  O   UNK N   1      34.213  12.477   4.647  0.00  0.00    -0.353 OA
HETATM   56  C   UNK N   1      34.503  11.423   5.483  0.00  0.00     0.210 C 
ENDBRANCH  49  55
BRANCH  51  57
HETATM   57  C   UNK N   1      29.796  15.503   4.110  0.00  0.00     0.077 C 
BRANCH  57  58
HETATM   58  C   UNK N   1      30.026  16.208   5.415  0.00  0.00    -0.053 A 
HETATM   59  C   UNK N   1      28.964  16.771   6.122  0.00  0.00     0.010 A 
HETATM   60  C   UNK N   1      29.179  17.447   7.315  0.00  0.00     0.040 A 
HETATM   61  C   UNK N   1      30.474  17.546   7.853  0.00  0.00     0.101 A 
HETATM   62  C   UNK N   1      31.543  16.936   7.175  0.00  0.00     0.102 A 
HETATM   63  C   UNK N   1      31.315  16.273   5.957  0.00  0.00     0.046 A 
BRANCH  61  64
HETATM   64  O   UNK N   1      30.699  18.213   9.007  0.00  0.00    -0.353 OA
HETATM   65  C   UNK N   1      29.688  18.688   9.814  0.00  0.00     0.210 C 
ENDBRANCH  61  64
BRANCH  62  66
HETATM   66  O   UNK N   1      32.788  17.005   7.718  0.00  0.00    -0.353 OA
HETATM   67  C   UNK N   1      33.725  17.937   7.334  0.00  0.00     0.210 C 
ENDBRANCH  62  66
ENDBRANCH  57  58
ENDBRANCH  51  57
ENDBRANCH  41  42
ENDBRANCH  40  41
ENDBRANCH  38  40
ENDBRANCH  37  38
ENDBRANCH  36  37
ENDBRANCH  35  36
ENDBRANCH   1  35
TORSDOF 26
ENDMDL
MODEL 4
REMARK VINA RESULT:      -6.2      2.809      4.838
REMARK  26 active torsions:
REMARK  status: ('A' for Active; 'I' for Inactive)
REMARK    1  A    between atoms: N_2  and  C_27 
REMARK    2  A    between atoms: C_7  and  O_25 
REMARK    3  A    between atoms: C_8  and  O_23 
REMARK    4  A    between atoms: C_11  and  C_12 
REMARK    5  A    between atoms: C_12  and  C_13 
REMARK    6  A    between atoms: C_16  and  O_21 
REMARK    7  A    between atoms: C_17  and  O_19 
REMARK    8  A    between atoms: C_27  and  C_28 
REMARK    9  A    between atoms: C_28  and  C_29 
REMARK   10  A    between atoms: C_29  and  O_31 
REMARK   11  A    between atoms: O_31  and  C_32 
REMARK   12  A    between atoms: C_32  and  C_33 
REMARK   13  A    between atoms: C_33  and  C_34 
REMARK   14  A    between atoms: C_34  and  C_35 
REMARK   15  A    between atoms: C_35  and  C_36 
REMARK   16  A    between atoms: C_36  and  O_37 
REMARK   17  A    between atoms: O_37  and  C_38 
REMARK   18  A    between atoms: C_38  and  C_40 
REMARK   19  A    between atoms: C_40  and  C_41 
REMARK   20  A    between atoms: N_42  and  C_41 
REMARK   21  A    between atoms: C_47  and  O_65 
REMARK   22  A    between atoms: C_48  and  O_63 
REMARK   23  A    between atoms: C_51  and  C_52 
REMARK   24  A    between atoms: C_52  and  C_53 
REMARK   25  A    between atoms: C_56  and  O_61 
REMARK   26  A    between atoms: C_57  and  O_59 
ROOT
HETATM    1  C   UNK N   1      20.030  19.407   2.809  0.00  0.00     0.004 C 
ENDROOT
BRANCH   1   2
HETATM    2  C   UNK N   1      19.565  18.029   2.378  0.00  0.00     0.027 C 
BRANCH   2   3
HETATM    3  C   UNK N   1      20.316  17.607   1.121  0.00  0.00     0.178 C 
BRANCH   3   4
HETATM    4  O   UNK N   1      20.161  16.256   0.895  0.00  0.00    -0.321 OA
BRANCH   4   5
HETATM    5  C   UNK N   1      21.083  15.341   1.292  0.00  0.00     0.260 C 
HETATM    6  O   UNK N   1      21.420  14.429   0.550  0.00  0.00    -0.265 OA
BRANCH   5   7
HETATM    7  C   UNK N   1      21.693  15.455   2.655  0.00  0.00     0.139 C 
BRANCH   7   8
HETATM    8  C   UNK N   1      22.939  14.572   2.844  0.00  0.00     0.247 C 
BRANCH   8   9
HETATM    9  N   UNK N   1      23.937  15.031   3.844  0.00  0.00    -0.062 N 
HETATM   10  C   UNK N   1      23.301  15.934   4.780  0.00  0.00     0.273 C 
HETATM   11  C   UNK N   1      24.903  15.893   3.161  0.00  0.00     0.242 C 
HETATM   12  C   UNK N   1      25.688  15.160   2.082  0.00  0.00     0.067 C 
HETATM   13  C   UNK N   1      26.208  13.850   2.572  0.00  0.00    -0.045 A 
HETATM   14  C   UNK N   1      27.246  13.253   1.857  0.00  0.00     0.047 A 
HETATM   15  C   UNK N   1      25.706  13.241   3.742  0.00  0.00    -0.018 A 
HETATM   16  C   UNK N   1      27.828  12.057   2.284  0.00  0.00     0.102 A 
HETATM   17  C   UNK N   1      27.329  11.429   3.450  0.00  0.00     0.102 A 
HETATM   18  C   UNK N   1      26.278  12.038   4.153  0.00  0.00     0.049 A 
HETATM   19  C   UNK N   1      24.648  13.952   4.594  0.00  0.00     0.227 C 
BRANCH  16  20
HETATM   20  O   UNK N   1      28.864  11.567   1.553  0.00  0.00    -0.353 OA
HETATM   21  C   UNK N   1      29.720  12.315   0.779  0.00  0.00     0.210 C 
ENDBRANCH  16  20
BRANCH  17  22
HETATM   22  O   UNK N   1      27.866  10.264   3.891  0.00  0.00    -0.353 OA
HETATM   23  C   UNK N   1      28.870  10.191   4.829  0.00  0.00     0.210 C 
ENDBRANCH  17  22
BRANCH  19  24
HETATM   24  C   UNK N   1      23.670  13.123   5.486  0.00  0.00     0.077 C 
BRANCH  24  25
HETATM   25  C   UNK N   1      23.584  13.181   6.988  0.00  0.00    -0.053 A 
HETATM   26  C   UNK N   1      24.701  13.110   7.820  0.00  0.00     0.010 A 
HETATM   27  C   UNK N   1      24.551  12.997   9.202  0.00  0.00     0.040 A 
HETATM   28  C   UNK N   1      23.271  12.990   9.782  0.00  0.00     0.101 A 
HETATM   29  C   UNK N   1      22.144  13.151   8.962  0.00  0.00     0.102 A 
HETATM   30  C   UNK N   1      22.309  13.230   7.567  0.00  0.00     0.046 A 
BRANCH  28  31
HETATM   31  O   UNK N   1      23.107  12.821  11.116  0.00  0.00    -0.353 OA
HETATM   32  C   UNK N   1      22.942  11.586  11.703  0.00  0.00     0.210 C 
ENDBRANCH  28  31
BRANCH  29  33
HETATM   33  O   UNK N   1      20.914  13.202   9.532  0.00  0.00    -0.353 OA
HETATM   34  C   UNK N   1      20.124  14.330   9.526  0.00  0.00     0.210 C 
ENDBRANCH  29  33
ENDBRANCH  24  25
ENDBRANCH  19  24
ENDBRANCH   8   9
ENDBRANCH   7   8
ENDBRANCH   5   7
ENDBRANCH   4   5
ENDBRANCH   3   4
ENDBRANCH   2   3
ENDBRANCH   1   2
BRANCH   1  35
HETATM   35  C   UNK N   1      21.489  19.420   3.211  0.00  0.00     0.027 C 
BRANCH  35  36
HETATM   36  C   UNK N   1      22.260  20.510   2.456  0.00  0.00     0.178 C 
BRANCH  36  37
HETATM   37  O   UNK N   1      23.380  20.952   3.140  0.00  0.00    -0.321 OA
BRANCH  37  38
HETATM   38  C   UNK N   1      24.635  20.462   2.959  0.00  0.00     0.260 C 
HETATM   39  O   UNK N   1      25.249  20.763   1.946  0.00  0.00    -0.265 OA
BRANCH  38  40
HETATM   40  C   UNK N   1      25.275  19.572   3.997  0.00  0.00     0.139 C 
BRANCH  40  41
HETATM   41  C   UNK N   1      26.664  19.096   3.588  0.00  0.00     0.247 C 
BRANCH  41  42
HETATM   42  N   UNK N   1      27.526  18.695   4.708  0.00  0.00    -0.062 N 
HETATM   43  C   UNK N   1      26.777  17.878   5.679  0.00  0.00     0.242 C 
HETATM   44  C   UNK N   1      27.590  17.559   6.948  0.00  0.00     0.067 C 
HETATM   45  C   UNK N   1      29.074  17.447   6.720  0.00  0.00    -0.045 A 
HETATM   46  C   UNK N   1      29.899  17.112   7.794  0.00  0.00     0.047 A 
HETATM   47  C   UNK N   1      29.643  17.672   5.454  0.00  0.00    -0.018 A 
HETATM   48  C   UNK N   1      31.281  16.957   7.629  0.00  0.00     0.102 A 
HETATM   49  C   UNK N   1      31.848  17.152   6.345  0.00  0.00     0.102 A 
HETATM   50  C   UNK N   1      31.019  17.535   5.283  0.00  0.00     0.049 A 
HETATM   51  C   UNK N   1      28.767  17.998   4.268  0.00  0.00     0.227 C 
HETATM   52  C   UNK N   1      27.873  19.971   5.332  0.00  0.00     0.273 C 
BRANCH  48  53
HETATM   53  O   UNK N   1      32.008  16.582   8.714  0.00  0.00    -0.353 OA
HETATM   54  C   UNK N   1      32.092  15.304   9.217  0.00  0.00     0.210 C 
ENDBRANCH  48  53
BRANCH  49  55
HETATM   55  O   UNK N   1      33.167  16.922   6.138  0.00  0.00    -0.353 OA
HETATM   56  C   UNK N   1      33.690  15.659   5.980  0.00  0.00     0.210 C 
ENDBRANCH  49  55
BRANCH  51  57
HETATM   57  C   UNK N   1      28.482  16.680   3.500  0.00  0.00     0.077 C 
BRANCH  57  58
HETATM   58  C   UNK N   1      29.481  15.582   3.721  0.00  0.00    -0.053 A 
HETATM   59  C   UNK N   1      29.259  14.592   4.677  0.00  0.00     0.010 A 
HETATM   60  C   UNK N   1      30.194  13.592   4.902  0.00  0.00     0.040 A 
HETATM   61  C   UNK N   1      31.375  13.538   4.140  0.00  0.00     0.101 A 
HETATM   62  C   UNK N   1      31.584  14.501   3.137  0.00  0.00     0.102 A 
HETATM   63  C   UNK N   1      30.638  15.520   2.935  0.00  0.00     0.046 A 
BRANCH  61  64
HETATM   64  O   UNK N   1      32.301  12.579   4.358  0.00  0.00    -0.353 OA
HETATM   65  C   UNK N   1      32.195  11.299   3.856  0.00  0.00     0.210 C 
ENDBRANCH  61  64
BRANCH  62  66
HETATM   66  O   UNK N   1      32.710  14.424   2.380  0.00  0.00    -0.353 OA
HETATM   67  C   UNK N   1      33.763  15.300   2.507  0.00  0.00     0.210 C 
ENDBRANCH  62  66
ENDBRANCH  57  58
ENDBRANCH  51  57
ENDBRANCH  41  42
ENDBRANCH  40  41
ENDBRANCH  38  40
ENDBRANCH  37  38
ENDBRANCH  36  37
ENDBRANCH  35  36
ENDBRANCH   1  35
TORSDOF 26
ENDMDL
MODEL 5
REMARK VINA RESULT:      -6.1      1.879      6.140
REMARK  26 active torsions:
REMARK  status: ('A' for Active; 'I' for Inactive)
REMARK    1  A    between atoms: N_2  and  C_27 
REMARK    2  A    between atoms: C_7  and  O_25 
REMARK    3  A    between atoms: C_8  and  O_23 
REMARK    4  A    between atoms: C_11  and  C_12 
REMARK    5  A    between atoms: C_12  and  C_13 
REMARK    6  A    between atoms: C_16  and  O_21 
REMARK    7  A    between atoms: C_17  and  O_19 
REMARK    8  A    between atoms: C_27  and  C_28 
REMARK    9  A    between atoms: C_28  and  C_29 
REMARK   10  A    between atoms: C_29  and  O_31 
REMARK   11  A    between atoms: O_31  and  C_32 
REMARK   12  A    between atoms: C_32  and  C_33 
REMARK   13  A    between atoms: C_33  and  C_34 
REMARK   14  A    between atoms: C_34  and  C_35 
REMARK   15  A    between atoms: C_35  and  C_36 
REMARK   16  A    between atoms: C_36  and  O_37 
REMARK   17  A    between atoms: O_37  and  C_38 
REMARK   18  A    between atoms: C_38  and  C_40 
REMARK   19  A    between atoms: C_40  and  C_41 
REMARK   20  A    between atoms: N_42  and  C_41 
REMARK   21  A    between atoms: C_47  and  O_65 
REMARK   22  A    between atoms: C_48  and  O_63 
REMARK   23  A    between atoms: C_51  and  C_52 
REMARK   24  A    between atoms: C_52  and  C_53 
REMARK   25  A    between atoms: C_56  and  O_61 
REMARK   26  A    between atoms: C_57  and  O_59 
ROOT
HETATM    1  C   UNK N   1      22.966  18.971   3.913  0.00  0.00     0.004 C 
ENDROOT
BRANCH   1   2
HETATM    2  C   UNK N   1      21.537  19.011   4.421  0.00  0.00     0.027 C 
BRANCH   2   3
HETATM    3  C   UNK N   1      20.697  19.898   3.511  0.00  0.00     0.178 C 
BRANCH   3   4
HETATM    4  O   UNK N   1      19.914  19.130   2.675  0.00  0.00    -0.321 OA
BRANCH   4   5
HETATM    5  C   UNK N   1      20.310  18.779   1.425  0.00  0.00     0.260 C 
HETATM    6  O   UNK N   1      20.700  19.625   0.631  0.00  0.00    -0.265 OA
BRANCH   5   7
HETATM    7  C   UNK N   1      20.270  17.339   1.018  0.00  0.00     0.139 C 
BRANCH   7   8
HETATM    8  C   UNK N   1      20.992  16.403   2.005  0.00  0.00     0.247 C 
BRANCH   8   9
HETATM    9  N   UNK N   1      20.394  15.059   2.208  0.00  0.00    -0.062 N 
HETATM   10  C   UNK N   1      19.598  14.706   1.052  0.00  0.00     0.273 C 
HETATM   11  C   UNK N   1      19.397  15.161   3.276  0.00  0.00     0.242 C 
HETATM   12  C   UNK N   1      20.004  15.564   4.613  0.00  0.00     0.067 C 
HETATM   13  C   UNK N   1      21.225  14.766   4.927  0.00  0.00    -0.045 A 
HETATM   14  C   UNK N   1      21.660  14.737   6.252  0.00  0.00     0.047 A 
HETATM   15  C   UNK N   1      21.904  14.025   3.938  0.00  0.00    -0.018 A 
HETATM   16  C   UNK N   1      22.759  13.968   6.639  0.00  0.00     0.102 A 
HETATM   17  C   UNK N   1      23.457  13.225   5.656  0.00  0.00     0.102 A 
HETATM   18  C   UNK N   1      23.012  13.272   4.326  0.00  0.00     0.049 A 
HETATM   19  C   UNK N   1      21.359  13.958   2.506  0.00  0.00     0.227 C 
BRANCH  16  20
HETATM   20  O   UNK N   1      23.089  13.962   7.958  0.00  0.00    -0.353 OA
HETATM   21  C   UNK N   1      22.445  13.246   8.940  0.00  0.00     0.210 C 
ENDBRANCH  16  20
BRANCH  17  22
HETATM   22  O   UNK N   1      24.533  12.471   5.995  0.00  0.00    -0.353 OA
HETATM   23  C   UNK N   1      25.767  12.995   6.304  0.00  0.00     0.210 C 
ENDBRANCH  17  22
BRANCH  19  24
HETATM   24  C   UNK N   1      22.326  13.693   1.309  0.00  0.00     0.077 C 
BRANCH  24  25
HETATM   25  C   UNK N   1      22.631  12.348   0.704  0.00  0.00    -0.053 A 
HETATM   26  C   UNK N   1      23.607  12.154  -0.273  0.00  0.00     0.010 A 
HETATM   27  C   UNK N   1      23.730  10.925  -0.919  0.00  0.00     0.040 A 
HETATM   28  C   UNK N   1      22.897   9.849  -0.571  0.00  0.00     0.101 A 
HETATM   29  C   UNK N   1      21.972  10.007   0.473  0.00  0.00     0.102 A 
HETATM   30  C   UNK N   1      21.836  11.263   1.092  0.00  0.00     0.046 A 
BRANCH  28  31
HETATM   31  O   UNK N   1      22.964   8.667  -1.229  0.00  0.00    -0.353 OA
HETATM   32  C   UNK N   1      22.537   8.506  -2.529  0.00  0.00     0.210 C 
ENDBRANCH  28  31
BRANCH  29  33
HETATM   33  O   UNK N   1      21.210   8.949   0.845  0.00  0.00    -0.353 OA
HETATM   34  C   UNK N   1      21.377   8.279   2.037  0.00  0.00     0.210 C 
ENDBRANCH  29  33
ENDBRANCH  24  25
ENDBRANCH  19  24
ENDBRANCH   8   9
ENDBRANCH   7   8
ENDBRANCH   5   7
ENDBRANCH   4   5
ENDBRANCH   3   4
ENDBRANCH   2   3
ENDBRANCH   1   2
BRANCH   1  35
HETATM   35  C   UNK N   1      23.296  20.161   3.038  0.00  0.00     0.027 C 
BRANCH  35  36
HETATM   36  C   UNK N   1      24.792  20.495   3.102  0.00  0.00     0.178 C 
BRANCH  36  37
HETATM   37  O   UNK N   1      25.262  20.621   4.399  0.00  0.00    -0.321 OA
BRANCH  37  38
HETATM   38  C   UNK N   1      26.570  20.540   4.755  0.00  0.00     0.260 C 
HETATM   39  O   UNK N   1      27.011  21.328   5.578  0.00  0.00    -0.265 OA
BRANCH  38  40
HETATM   40  C   UNK N   1      27.470  19.483   4.160  0.00  0.00     0.139 C 
BRANCH  40  41
HETATM   41  C   UNK N   1      27.592  18.248   5.044  0.00  0.00     0.247 C 
BRANCH  41  42
HETATM   42  N   UNK N   1      27.136  17.001   4.415  0.00  0.00    -0.062 N 
HETATM   43  C   UNK N   1      26.446  17.277   3.143  0.00  0.00     0.242 C 
HETATM   44  C   UNK N   1      25.814  16.018   2.519  0.00  0.00     0.067 C 
HETATM   45  C   UNK N   1      26.555  14.742   2.816  0.00  0.00    -0.045 A 
HETATM   46  C   UNK N   1      26.095  13.549   2.256  0.00  0.00     0.047 A 
HETATM   47  C   UNK N   1      27.694  14.727   3.640  0.00  0.00    -0.018 A 
HETATM   48  C   UNK N   1      26.768  12.340   2.468  0.00  0.00     0.102 A 
HETATM   49  C   UNK N   1      27.934  12.332   3.273  0.00  0.00     0.102 A 
HETATM   50  C   UNK N   1      28.362  13.525   3.869  0.00  0.00     0.049 A 
HETATM   51  C   UNK N   1      28.233  16.010   4.225  0.00  0.00     0.227 C 
HETATM   52  C   UNK N   1      26.165  16.481   5.377  0.00  0.00     0.273 C 
BRANCH  48  53
HETATM   53  O   UNK N   1      26.285  11.230   1.849  0.00  0.00    -0.353 OA
HETATM   54  C   UNK N   1      25.409  10.324   2.401  0.00  0.00     0.210 C 
ENDBRANCH  48  53
BRANCH  49  55
HETATM   55  O   UNK N   1      28.655  11.194   3.422  0.00  0.00    -0.353 OA
HETATM   56  C   UNK N   1      29.771  10.911   2.669  0.00  0.00     0.210 C 
ENDBRANCH  49  55
BRANCH  51  57
HETATM   57  C   UNK N   1      29.363  16.528   3.296  0.00  0.00     0.077 C 
BRANCH  57  58
HETATM   58  C   UNK N   1      30.741  16.505   3.891  0.00  0.00    -0.053 A 
HETATM   59  C   UNK N   1      31.815  15.963   3.188  0.00  0.00     0.010 A 
HETATM   60  C   UNK N   1      33.085  15.916   3.748  0.00  0.00     0.040 A 
HETATM   61  C   UNK N   1      33.318  16.451   5.027  0.00  0.00     0.101 A 
HETATM   62  C   UNK N   1      32.252  17.049   5.721  0.00  0.00     0.102 A 
HETATM   63  C   UNK N   1      30.968  17.070   5.152  0.00  0.00     0.046 A 
BRANCH  61  64
HETATM   64  O   UNK N   1      34.546  16.400   5.590  0.00  0.00    -0.353 OA
HETATM   65  C   UNK N   1      35.237  15.224   5.787  0.00  0.00     0.210 C 
ENDBRANCH  61  64
BRANCH  62  66
HETATM   66  O   UNK N   1      32.491  17.596   6.943  0.00  0.00    -0.353 OA
HETATM   67  C   UNK N   1      31.606  17.506   7.993  0.00  0.00     0.210 C 
ENDBRANCH  62  66
ENDBRANCH  57  58
ENDBRANCH  51  57
ENDBRANCH  41  42
ENDBRANCH  40  41
ENDBRANCH  38  40
ENDBRANCH  37  38
ENDBRANCH  36  37
ENDBRANCH  35  36
ENDBRANCH   1  35
TORSDOF 26
ENDMDL
MODEL 6
REMARK VINA RESULT:      -6.0      3.158      7.333
REMARK  26 active torsions:
REMARK  status: ('A' for Active; 'I' for Inactive)
REMARK    1  A    between atoms: N_2  and  C_27 
REMARK    2  A    between atoms: C_7  and  O_25 
REMARK    3  A    between atoms: C_8  and  O_23 
REMARK    4  A    between atoms: C_11  and  C_12 
REMARK    5  A    between atoms: C_12  and  C_13 
REMARK    6  A    between atoms: C_16  and  O_21 
REMARK    7  A    between atoms: C_17  and  O_19 
REMARK    8  A    between atoms: C_27  and  C_28 
REMARK    9  A    between atoms: C_28  and  C_29 
REMARK   10  A    between atoms: C_29  and  O_31 
REMARK   11  A    between atoms: O_31  and  C_32 
REMARK   12  A    between atoms: C_32  and  C_33 
REMARK   13  A    between atoms: C_33  and  C_34 
REMARK   14  A    between atoms: C_34  and  C_35 
REMARK   15  A    between atoms: C_35  and  C_36 
REMARK   16  A    between atoms: C_36  and  O_37 
REMARK   17  A    between atoms: O_37  and  C_38 
REMARK   18  A    between atoms: C_38  and  C_40 
REMARK   19  A    between atoms: C_40  and  C_41 
REMARK   20  A    between atoms: N_42  and  C_41 
REMARK   21  A    between atoms: C_47  and  O_65 
REMARK   22  A    between atoms: C_48  and  O_63 
REMARK   23  A    between atoms: C_51  and  C_52 
REMARK   24  A    between atoms: C_52  and  C_53 
REMARK   25  A    between atoms: C_56  and  O_61 
REMARK   26  A    between atoms: C_57  and  O_59 
ROOT
HETATM    1  C   UNK N   1      27.633  19.674   4.991  0.00  0.00     0.004 C 
ENDROOT
BRANCH   1   2
HETATM    2  C   UNK N   1      26.582  19.199   4.007  0.00  0.00     0.027 C 
BRANCH   2   3
HETATM    3  C   UNK N   1      25.194  19.424   4.594  0.00  0.00     0.178 C 
BRANCH   3   4
HETATM    4  O   UNK N   1      24.234  18.811   3.817  0.00  0.00    -0.321 OA
BRANCH   4   5
HETATM    5  C   UNK N   1      23.073  19.426   3.473  0.00  0.00     0.260 C 
HETATM    6  O   UNK N   1      23.067  20.598   3.121  0.00  0.00    -0.265 OA
BRANCH   5   7
HETATM    7  C   UNK N   1      21.790  18.658   3.526  0.00  0.00     0.139 C 
BRANCH   7   8
HETATM    8  C   UNK N   1      21.976  17.181   3.919  0.00  0.00     0.247 C 
BRANCH   8   9
HETATM    9  N   UNK N   1      20.908  16.239   3.498  0.00  0.00    -0.062 N 
HETATM   10  C   UNK N   1      20.466  16.576   2.162  0.00  0.00     0.273 C 
HETATM   11  C   UNK N   1      19.721  16.504   4.314  0.00  0.00     0.242 C 
HETATM   12  C   UNK N   1      19.954  16.249   5.796  0.00  0.00     0.067 C 
HETATM   13  C   UNK N   1      20.634  14.941   6.031  0.00  0.00    -0.045 A 
HETATM   14  C   UNK N   1      20.568  14.394   7.312  0.00  0.00     0.047 A 
HETATM   15  C   UNK N   1      21.290  14.247   4.993  0.00  0.00    -0.018 A 
HETATM   16  C   UNK N   1      21.127  13.147   7.599  0.00  0.00     0.102 A 
HETATM   17  C   UNK N   1      21.797  12.442   6.570  0.00  0.00     0.102 A 
HETATM   18  C   UNK N   1      21.863  13.011   5.289  0.00  0.00     0.049 A 
HETATM   19  C   UNK N   1      21.261  14.788   3.558  0.00  0.00     0.227 C 
BRANCH  16  20
HETATM   20  O   UNK N   1      20.980  12.668   8.862  0.00  0.00    -0.353 OA
HETATM   21  C   UNK N   1      21.243  13.366  10.018  0.00  0.00     0.210 C 
ENDBRANCH  16  20
BRANCH  17  22
HETATM   22  O   UNK N   1      22.357  11.231   6.813  0.00  0.00    -0.353 OA
HETATM   23  C   UNK N   1      23.703  10.972   6.690  0.00  0.00     0.210 C 
ENDBRANCH  17  22
BRANCH  19  24
HETATM   24  C   UNK N   1      22.407  14.428   2.559  0.00  0.00     0.077 C 
BRANCH  24  25
HETATM   25  C   UNK N   1      23.825  14.929   2.628  0.00  0.00    -0.053 A 
HETATM   26  C   UNK N   1      24.649  15.046   1.509  0.00  0.00     0.010 A 
HETATM   27  C   UNK N   1      26.002  15.351   1.652  0.00  0.00     0.040 A 
HETATM   28  C   UNK N   1      26.550  15.583   2.924  0.00  0.00     0.101 A 
HETATM   29  C   UNK N   1      25.712  15.556   4.049  0.00  0.00     0.102 A 
HETATM   30  C   UNK N   1      24.356  15.213   3.893  0.00  0.00     0.046 A 
BRANCH  28  31
HETATM   31  O   UNK N   1      27.874  15.822   3.085  0.00  0.00    -0.353 OA
HETATM   32  C   UNK N   1      28.848  14.902   2.765  0.00  0.00     0.210 C 
ENDBRANCH  28  31
BRANCH  29  33
HETATM   33  O   UNK N   1      26.233  15.837   5.269  0.00  0.00    -0.353 OA
HETATM   34  C   UNK N   1      26.654  14.869   6.153  0.00  0.00     0.210 C 
ENDBRANCH  29  33
ENDBRANCH  24  25
ENDBRANCH  19  24
ENDBRANCH   8   9
ENDBRANCH   7   8
ENDBRANCH   5   7
ENDBRANCH   4   5
ENDBRANCH   3   4
ENDBRANCH   2   3
ENDBRANCH   1   2
BRANCH   1  35
HETATM   35  C   UNK N   1      28.509  18.542   5.485  0.00  0.00     0.027 C 
BRANCH  35  36
HETATM   36  C   UNK N   1      28.180  18.184   6.939  0.00  0.00     0.178 C 
BRANCH  36  37
HETATM   37  O   UNK N   1      28.933  18.900   7.856  0.00  0.00    -0.321 OA
BRANCH  37  38
HETATM   38  C   UNK N   1      29.807  18.345   8.735  0.00  0.00     0.260 C 
HETATM   39  O   UNK N   1      29.440  18.131   9.881  0.00  0.00    -0.265 OA
BRANCH  38  40
HETATM   40  C   UNK N   1      31.208  17.977   8.307  0.00  0.00     0.139 C 
BRANCH  40  41
HETATM   41  C   UNK N   1      31.366  16.487   8.030  0.00  0.00     0.247 C 
BRANCH  41  42
HETATM   42  N   UNK N   1      31.813  16.164   6.668  0.00  0.00    -0.062 N 
HETATM   43  C   UNK N   1      32.093  17.392   5.904  0.00  0.00     0.242 C 
HETATM   44  C   UNK N   1      32.418  17.115   4.423  0.00  0.00     0.067 C 
HETATM   45  C   UNK N   1      33.097  15.794   4.175  0.00  0.00    -0.045 A 
HETATM   46  C   UNK N   1      33.480  15.466   2.875  0.00  0.00     0.047 A 
HETATM   47  C   UNK N   1      33.352  14.891   5.222  0.00  0.00    -0.018 A 
HETATM   48  C   UNK N   1      34.149  14.269   2.594  0.00  0.00     0.102 A 
HETATM   49  C   UNK N   1      34.434  13.374   3.654  0.00  0.00     0.102 A 
HETATM   50  C   UNK N   1      34.005  13.689   4.949  0.00  0.00     0.049 A 
HETATM   51  C   UNK N   1      32.982  15.240   6.643  0.00  0.00     0.227 C 
HETATM   52  C   UNK N   1      30.648  15.499   6.087  0.00  0.00     0.273 C 
BRANCH  48  53
HETATM   53  O   UNK N   1      34.532  14.045   1.309  0.00  0.00    -0.353 OA
HETATM   54  C   UNK N   1      35.712  14.467   0.741  0.00  0.00     0.210 C 
ENDBRANCH  48  53
BRANCH  49  55
HETATM   55  O   UNK N   1      35.158  12.251   3.426  0.00  0.00    -0.353 OA
HETATM   56  C   UNK N   1      36.523  12.195   3.589  0.00  0.00     0.210 C 
ENDBRANCH  49  55
BRANCH  51  57
HETATM   57  C   UNK N   1      34.237  15.831   7.338  0.00  0.00     0.077 C 
BRANCH  57  58
HETATM   58  C   UNK N   1      34.457  15.380   8.753  0.00  0.00    -0.053 A 
HETATM   59  C   UNK N   1      34.696  16.303   9.770  0.00  0.00     0.010 A 
HETATM   60  C   UNK N   1      34.927  15.886  11.074  0.00  0.00     0.040 A 
HETATM   61  C   UNK N   1      34.888  14.519  11.400  0.00  0.00     0.101 A 
HETATM   62  C   UNK N   1      34.595  13.585  10.392  0.00  0.00     0.102 A 
HETATM   63  C   UNK N   1      34.384  14.019   9.073  0.00  0.00     0.046 A 
BRANCH  61  64
HETATM   64  O   UNK N   1      35.125  14.098  12.662  0.00  0.00    -0.353 OA
HETATM   65  C   UNK N   1      36.389  14.024  13.209  0.00  0.00     0.210 C 
ENDBRANCH  61  64
BRANCH  62  66
HETATM   66  O   UNK N   1      34.525  12.267  10.721  0.00  0.00    -0.353 OA
HETATM   67  C   UNK N   1      35.520  11.364  10.424  0.00  0.00     0.210 C 
ENDBRANCH  62  66
ENDBRANCH  57  58
ENDBRANCH  51  57
ENDBRANCH  41  42
ENDBRANCH  40  41
ENDBRANCH  38  40
ENDBRANCH  37  38
ENDBRANCH  36  37
ENDBRANCH  35  36
ENDBRANCH   1  35
TORSDOF 26
ENDMDL
MODEL 7
REMARK VINA RESULT:      -5.9      2.167     10.269
REMARK  26 active torsions:
REMARK  status: ('A' for Active; 'I' for Inactive)
REMARK    1  A    between atoms: N_2  and  C_27 
REMARK    2  A    between atoms: C_7  and  O_25 
REMARK    3  A    between atoms: C_8  and  O_23 
REMARK    4  A    between atoms: C_11  and  C_12 
REMARK    5  A    between atoms: C_12  and  C_13 
REMARK    6  A    between atoms: C_16  and  O_21 
REMARK    7  A    between atoms: C_17  and  O_19 
REMARK    8  A    between atoms: C_27  and  C_28 
REMARK    9  A    between atoms: C_28  and  C_29 
REMARK   10  A    between atoms: C_29  and  O_31 
REMARK   11  A    between atoms: O_31  and  C_32 
REMARK   12  A    between atoms: C_32  and  C_33 
REMARK   13  A    between atoms: C_33  and  C_34 
REMARK   14  A    between atoms: C_34  and  C_35 
REMARK   15  A    between atoms: C_35  and  C_36 
REMARK   16  A    between atoms: C_36  and  O_37 
REMARK   17  A    between atoms: O_37  and  C_38 
REMARK   18  A    between atoms: C_38  and  C_40 
REMARK   19  A    between atoms: C_40  and  C_41 
REMARK   20  A    between atoms: N_42  and  C_41 
REMARK   21  A    between atoms: C_47  and  O_65 
REMARK   22  A    between atoms: C_48  and  O_63 
REMARK   23  A    between atoms: C_51  and  C_52 
REMARK   24  A    between atoms: C_52  and  C_53 
REMARK   25  A    between atoms: C_56  and  O_61 
REMARK   26  A    between atoms: C_57  and  O_59 
ROOT
HETATM    1  C   UNK N   1      24.499  18.271   4.136  0.00  0.00     0.004 C 
ENDROOT
BRANCH   1   2
HETATM    2  C   UNK N   1      25.823  18.707   3.539  0.00  0.00     0.027 C 
BRANCH   2   3
HETATM    3  C   UNK N   1      25.958  20.221   3.647  0.00  0.00     0.178 C 
BRANCH   3   4
HETATM    4  O   UNK N   1      27.029  20.557   4.449  0.00  0.00    -0.321 OA
BRANCH   4   5
HETATM    5  C   UNK N   1      26.895  20.801   5.778  0.00  0.00     0.260 C 
HETATM    6  O   UNK N   1      26.495  21.886   6.178  0.00  0.00    -0.265 OA
BRANCH   5   7
HETATM    7  C   UNK N   1      27.242  19.727   6.762  0.00  0.00     0.139 C 
BRANCH   7   8
HETATM    8  C   UNK N   1      28.532  18.965   6.406  0.00  0.00     0.247 C 
BRANCH   8   9
HETATM    9  N   UNK N   1      28.575  17.524   6.765  0.00  0.00    -0.062 N 
HETATM   10  C   UNK N   1      27.295  16.915   6.472  0.00  0.00     0.273 C 
HETATM   11  C   UNK N   1      28.662  17.421   8.223  0.00  0.00     0.242 C 
HETATM   12  C   UNK N   1      29.936  18.038   8.783  0.00  0.00     0.067 C 
HETATM   13  C   UNK N   1      31.142  17.601   8.021  0.00  0.00    -0.045 A 
HETATM   14  C   UNK N   1      32.388  17.758   8.628  0.00  0.00     0.047 A 
HETATM   15  C   UNK N   1      31.040  17.010   6.744  0.00  0.00    -0.018 A 
HETATM   16  C   UNK N   1      33.559  17.321   8.006  0.00  0.00     0.102 A 
HETATM   17  C   UNK N   1      33.475  16.734   6.720  0.00  0.00     0.102 A 
HETATM   18  C   UNK N   1      32.215  16.592   6.119  0.00  0.00     0.049 A 
HETATM   19  C   UNK N   1      29.666  16.728   6.126  0.00  0.00     0.227 C 
BRANCH  16  20
HETATM   20  O   UNK N   1      34.726  17.471   8.686  0.00  0.00    -0.353 OA
HETATM   21  C   UNK N   1      35.065  16.814   9.847  0.00  0.00     0.210 C 
ENDBRANCH  16  20
BRANCH  17  22
HETATM   22  O   UNK N   1      34.592  16.303   6.083  0.00  0.00    -0.353 OA
HETATM   23  C   UNK N   1      34.579  15.411   5.035  0.00  0.00     0.210 C 
ENDBRANCH  17  22
BRANCH  19  24
HETATM   24  C   UNK N   1      29.501  16.659   4.574  0.00  0.00     0.077 C 
BRANCH  24  25
HETATM   25  C   UNK N   1      29.292  15.406   3.765  0.00  0.00    -0.053 A 
HETATM   26  C   UNK N   1      30.328  14.538   3.421  0.00  0.00     0.010 A 
HETATM   27  C   UNK N   1      30.107  13.488   2.531  0.00  0.00     0.040 A 
HETATM   28  C   UNK N   1      28.829  13.265   1.994  0.00  0.00     0.101 A 
HETATM   29  C   UNK N   1      27.760  14.078   2.402  0.00  0.00     0.102 A 
HETATM   30  C   UNK N   1      28.005  15.154   3.275  0.00  0.00     0.046 A 
BRANCH  28  31
HETATM   31  O   UNK N   1      28.612  12.287   1.082  0.00  0.00    -0.353 OA
HETATM   32  C   UNK N   1      28.901  10.961   1.319  0.00  0.00     0.210 C 
ENDBRANCH  28  31
BRANCH  29  33
HETATM   33  O   UNK N   1      26.516  13.823   1.926  0.00  0.00    -0.353 OA
HETATM   34  C   UNK N   1      25.568  13.115   2.630  0.00  0.00     0.210 C 
ENDBRANCH  29  33
ENDBRANCH  24  25
ENDBRANCH  19  24
ENDBRANCH   8   9
ENDBRANCH   7   8
ENDBRANCH   5   7
ENDBRANCH   4   5
ENDBRANCH   3   4
ENDBRANCH   2   3
ENDBRANCH   1   2
BRANCH   1  35
HETATM   35  C   UNK N   1      23.375  19.227   3.797  0.00  0.00     0.027 C 
BRANCH  35  36
HETATM   36  C   UNK N   1      22.029  18.697   4.304  0.00  0.00     0.178 C 
BRANCH  36  37
HETATM   37  O   UNK N   1      20.956  19.134   3.544  0.00  0.00    -0.321 OA
BRANCH  37  38
HETATM   38  C   UNK N   1      20.122  18.317   2.849  0.00  0.00     0.260 C 
HETATM   39  O   UNK N   1      18.932  18.591   2.796  0.00  0.00    -0.265 OA
BRANCH  38  40
HETATM   40  C   UNK N   1      20.650  17.096   2.136  0.00  0.00     0.139 C 
BRANCH  40  41
HETATM   41  C   UNK N   1      20.295  15.797   2.850  0.00  0.00     0.247 C 
BRANCH  41  42
HETATM   42  N   UNK N   1      20.796  14.583   2.192  0.00  0.00    -0.062 N 
HETATM   43  C   UNK N   1      21.966  14.887   1.350  0.00  0.00     0.242 C 
HETATM   44  C   UNK N   1      22.436  13.679   0.519  0.00  0.00     0.067 C 
HETATM   45  C   UNK N   1      22.194  12.345   1.173  0.00  0.00    -0.045 A 
HETATM   46  C   UNK N   1      22.628  11.187   0.527  0.00  0.00     0.047 A 
HETATM   47  C   UNK N   1      21.544  12.243   2.416  0.00  0.00    -0.018 A 
HETATM   48  C   UNK N   1      22.463   9.924   1.109  0.00  0.00     0.102 A 
HETATM   49  C   UNK N   1      21.836   9.826   2.376  0.00  0.00     0.102 A 
HETATM   50  C   UNK N   1      21.361  10.989   2.996  0.00  0.00     0.049 A 
HETATM   51  C   UNK N   1      21.099  13.484   3.152  0.00  0.00     0.227 C 
HETATM   52  C   UNK N   1      19.682  14.189   1.331  0.00  0.00     0.273 C 
BRANCH  48  53
HETATM   53  O   UNK N   1      22.956   8.850   0.439  0.00  0.00    -0.353 OA
HETATM   54  C   UNK N   1      23.634   8.897  -0.758  0.00  0.00     0.210 C 
ENDBRANCH  48  53
BRANCH  49  55
HETATM   55  O   UNK N   1      21.743   8.628   3.002  0.00  0.00    -0.353 OA
HETATM   56  C   UNK N   1      21.928   8.476   4.357  0.00  0.00     0.210 C 
ENDBRANCH  49  55
BRANCH  51  57
HETATM   57  C   UNK N   1      22.204  13.861   4.175  0.00  0.00     0.077 C 
BRANCH  57  58
HETATM   58  C   UNK N   1      21.853  13.618   5.614  0.00  0.00    -0.053 A 
HETATM   59  C   UNK N   1      21.913  12.336   6.160  0.00  0.00     0.010 A 
HETATM   60  C   UNK N   1      21.563  12.106   7.483  0.00  0.00     0.040 A 
HETATM   61  C   UNK N   1      21.173  13.173   8.311  0.00  0.00     0.101 A 
HETATM   62  C   UNK N   1      21.161  14.476   7.785  0.00  0.00     0.102 A 
HETATM   63  C   UNK N   1      21.498  14.692   6.438  0.00  0.00     0.046 A 
BRANCH  61  64
HETATM   64  O   UNK N   1      20.816  12.961   9.597  0.00  0.00    -0.353 OA
HETATM   65  C   UNK N   1      21.709  12.585  10.577  0.00  0.00     0.210 C 
ENDBRANCH  61  64
BRANCH  62  66
HETATM   66  O   UNK N   1      20.816  15.509   8.600  0.00  0.00    -0.353 OA
HETATM   67  C   UNK N   1      20.308  16.699   8.132  0.00  0.00     0.210 C 
ENDBRANCH  62  66
ENDBRANCH  57  58
ENDBRANCH  51  57
ENDBRANCH  41  42
ENDBRANCH  40  41
ENDBRANCH  38  40
ENDBRANCH  37  38
ENDBRANCH  36  37
ENDBRANCH  35  36
ENDBRANCH   1  35
TORSDOF 26
ENDMDL
MODEL 8
REMARK VINA RESULT:      -5.8      3.486     10.079
REMARK  26 active torsions:
REMARK  status: ('A' for Active; 'I' for Inactive)
REMARK    1  A    between atoms: N_2  and  C_27 
REMARK    2  A    between atoms: C_7  and  O_25 
REMARK    3  A    between atoms: C_8  and  O_23 
REMARK    4  A    between atoms: C_11  and  C_12 
REMARK    5  A    between atoms: C_12  and  C_13 
REMARK    6  A    between atoms: C_16  and  O_21 
REMARK    7  A    between atoms: C_17  and  O_19 
REMARK    8  A    between atoms: C_27  and  C_28 
REMARK    9  A    between atoms: C_28  and  C_29 
REMARK   10  A    between atoms: C_29  and  O_31 
REMARK   11  A    between atoms: O_31  and  C_32 
REMARK   12  A    between atoms: C_32  and  C_33 
REMARK   13  A    between atoms: C_33  and  C_34 
REMARK   14  A    between atoms: C_34  and  C_35 
REMARK   15  A    between atoms: C_35  and  C_36 
REMARK   16  A    between atoms: C_36  and  O_37 
REMARK   17  A    between atoms: O_37  and  C_38 
REMARK   18  A    between atoms: C_38  and  C_40 
REMARK   19  A    between atoms: C_40  and  C_41 
REMARK   20  A    between atoms: N_42  and  C_41 
REMARK   21  A    between atoms: C_47  and  O_65 
REMARK   22  A    between atoms: C_48  and  O_63 
REMARK   23  A    between atoms: C_51  and  C_52 
REMARK   24  A    between atoms: C_52  and  C_53 
REMARK   25  A    between atoms: C_56  and  O_61 
REMARK   26  A    between atoms: C_57  and  O_59 
ROOT
HETATM    1  C   UNK N   1      32.088  16.081   8.720  0.00  0.00     0.004 C 
ENDROOT
BRANCH   1   2
HETATM    2  C   UNK N   1      33.364  15.701   9.446  0.00  0.00     0.027 C 
BRANCH   2   3
HETATM    3  C   UNK N   1      34.539  16.468   8.850  0.00  0.00     0.178 C 
BRANCH   3   4
HETATM    4  O   UNK N   1      34.921  15.911   7.648  0.00  0.00    -0.321 OA
BRANCH   4   5
HETATM    5  C   UNK N   1      34.561  16.443   6.451  0.00  0.00     0.260 C 
HETATM    6  O   UNK N   1      34.563  17.654   6.279  0.00  0.00    -0.265 OA
BRANCH   5   7
HETATM    7  C   UNK N   1      34.159  15.532   5.333  0.00  0.00     0.139 C 
BRANCH   7   8
HETATM    8  C   UNK N   1      32.635  15.362   5.199  0.00  0.00     0.247 C 
BRANCH   8   9
HETATM    9  N   UNK N   1      32.064  15.504   3.836  0.00  0.00    -0.062 N 
HETATM   10  C   UNK N   1      32.949  16.314   3.025  0.00  0.00     0.273 C 
HETATM   11  C   UNK N   1      30.858  16.329   3.930  0.00  0.00     0.242 C 
HETATM   12  C   UNK N   1      29.771  15.688   4.782  0.00  0.00     0.067 C 
HETATM   13  C   UNK N   1      29.561  14.255   4.422  0.00  0.00    -0.045 A 
HETATM   14  C   UNK N   1      28.369  13.652   4.823  0.00  0.00     0.047 A 
HETATM   15  C   UNK N   1      30.507  13.532   3.666  0.00  0.00    -0.018 A 
HETATM   16  C   UNK N   1      28.070  12.333   4.475  0.00  0.00     0.102 A 
HETATM   17  C   UNK N   1      29.013  11.591   3.724  0.00  0.00     0.102 A 
HETATM   18  C   UNK N   1      30.212  12.210   3.337  0.00  0.00     0.049 A 
HETATM   19  C   UNK N   1      31.761  14.227   3.122  0.00  0.00     0.227 C 
BRANCH  16  20
HETATM   20  O   UNK N   1      26.868  11.836   4.869  0.00  0.00    -0.353 OA
HETATM   21  C   UNK N   1      25.873  11.391   4.029  0.00  0.00     0.210 C 
ENDBRANCH  16  20
BRANCH  17  22
HETATM   22  O   UNK N   1      28.760  10.305   3.373  0.00  0.00    -0.353 OA
HETATM   23  C   UNK N   1      29.374   9.664   2.322  0.00  0.00     0.210 C 
ENDBRANCH  17  22
BRANCH  19  24
HETATM   24  C   UNK N   1      33.055  13.401   2.836  0.00  0.00     0.077 C 
BRANCH  24  25
HETATM   25  C   UNK N   1      33.607  13.072   1.474  0.00  0.00    -0.053 A 
HETATM   26  C   UNK N   1      32.915  12.308   0.533  0.00  0.00     0.010 A 
HETATM   27  C   UNK N   1      33.540  11.893  -0.641  0.00  0.00     0.040 A 
HETATM   28  C   UNK N   1      34.866  12.268  -0.916  0.00  0.00     0.101 A 
HETATM   29  C   UNK N   1      35.541  13.110  -0.019  0.00  0.00     0.102 A 
HETATM   30  C   UNK N   1      34.909  13.493   1.179  0.00  0.00     0.046 A 
BRANCH  28  31
HETATM   31  O   UNK N   1      35.506  11.823  -2.023  0.00  0.00    -0.353 OA
HETATM   32  C   UNK N   1      34.845  11.340  -3.131  0.00  0.00     0.210 C 
ENDBRANCH  28  31
BRANCH  29  33
HETATM   33  O   UNK N   1      36.800  13.516  -0.315  0.00  0.00    -0.353 OA
HETATM   34  C   UNK N   1      37.820  13.556   0.610  0.00  0.00     0.210 C 
ENDBRANCH  29  33
ENDBRANCH  24  25
ENDBRANCH  19  24
ENDBRANCH   8   9
ENDBRANCH   7   8
ENDBRANCH   5   7
ENDBRANCH   4   5
ENDBRANCH   3   4
ENDBRANCH   2   3
ENDBRANCH   1   2
BRANCH   1  35
HETATM   35  C   UNK N   1      31.982  17.574   8.491  0.00  0.00     0.027 C 
BRANCH  35  36
HETATM   36  C   UNK N   1      30.668  18.127   9.055  0.00  0.00     0.178 C 
BRANCH  36  37
HETATM   37  O   UNK N   1      29.555  17.698   8.350  0.00  0.00    -0.321 OA
BRANCH  37  38
HETATM   38  C   UNK N   1      28.302  18.197   8.512  0.00  0.00     0.260 C 
HETATM   39  O   UNK N   1      27.607  17.773   9.423  0.00  0.00    -0.265 OA
BRANCH  38  40
HETATM   40  C   UNK N   1      27.773  19.274   7.594  0.00  0.00     0.139 C 
BRANCH  40  41
HETATM   41  C   UNK N   1      27.877  18.896   6.122  0.00  0.00     0.247 C 
BRANCH  41  42
HETATM   42  N   UNK N   1      26.819  19.458   5.272  0.00  0.00    -0.062 N 
HETATM   43  C   UNK N   1      27.345  19.806   3.941  0.00  0.00     0.242 C 
HETATM   44  C   UNK N   1      26.315  20.540   3.062  0.00  0.00     0.067 C 
HETATM   45  C   UNK N   1      24.885  20.149   3.327  0.00  0.00    -0.045 A 
HETATM   46  C   UNK N   1      23.875  20.718   2.551  0.00  0.00     0.047 A 
HETATM   47  C   UNK N   1      24.549  19.228   4.334  0.00  0.00    -0.018 A 
HETATM   48  C   UNK N   1      22.532  20.362   2.730  0.00  0.00     0.102 A 
HETATM   49  C   UNK N   1      22.199  19.409   3.724  0.00  0.00     0.102 A 
HETATM   50  C   UNK N   1      23.214  18.878   4.530  0.00  0.00     0.049 A 
HETATM   51  C   UNK N   1      25.628  18.570   5.161  0.00  0.00     0.227 C 
HETATM   52  C   UNK N   1      26.451  20.688   5.972  0.00  0.00     0.273 C 
BRANCH  48  53
HETATM   53  O   UNK N   1      21.614  20.924   1.901  0.00  0.00    -0.353 OA
HETATM   54  C   UNK N   1      20.740  20.236   1.091  0.00  0.00     0.210 C 
ENDBRANCH  48  53
BRANCH  49  55
HETATM   55  O   UNK N   1      20.921  18.979   3.858  0.00  0.00    -0.353 OA
HETATM   56  C   UNK N   1      20.575  17.647   3.856  0.00  0.00     0.210 C 
ENDBRANCH  49  55
BRANCH  51  57
HETATM   57  C   UNK N   1      25.955  17.194   4.522  0.00  0.00     0.077 C 
BRANCH  57  58
HETATM   58  C   UNK N   1      25.465  16.000   5.287  0.00  0.00    -0.053 A 
HETATM   59  C   UNK N   1      26.010  15.671   6.527  0.00  0.00     0.010 A 
HETATM   60  C   UNK N   1      25.577  14.551   7.224  0.00  0.00     0.040 A 
HETATM   61  C   UNK N   1      24.550  13.743   6.704  0.00  0.00     0.101 A 
HETATM   62  C   UNK N   1      23.958  14.097   5.480  0.00  0.00     0.102 A 
HETATM   63  C   UNK N   1      24.420  15.221   4.776  0.00  0.00     0.046 A 
BRANCH  61  64
HETATM   64  O   UNK N   1      24.129  12.642   7.365  0.00  0.00    -0.353 OA
HETATM   65  C   UNK N   1      23.175  12.677   8.359  0.00  0.00     0.210 C 
ENDBRANCH  61  64
BRANCH  62  66
HETATM   66  O   UNK N   1      22.941  13.332   4.999  0.00  0.00    -0.353 OA
HETATM   67  C   UNK N   1      21.731  13.853   4.604  0.00  0.00     0.210 C 
ENDBRANCH  62  66
ENDBRANCH  57  58
ENDBRANCH  51  57
ENDBRANCH  41  42
ENDBRANCH  40  41
ENDBRANCH  38  40
ENDBRANCH  37  38
ENDBRANCH  36  37
ENDBRANCH  35  36
ENDBRANCH   1  35
TORSDOF 26
ENDMDL
MODEL 9
REMARK VINA RESULT:      -5.8      3.160      8.938
REMARK  26 active torsions:
REMARK  status: ('A' for Active; 'I' for Inactive)
REMARK    1  A    between atoms: N_2  and  C_27 
REMARK    2  A    between atoms: C_7  and  O_25 
REMARK    3  A    between atoms: C_8  and  O_23 
REMARK    4  A    between atoms: C_11  and  C_12 
REMARK    5  A    between atoms: C_12  and  C_13 
REMARK    6  A    between atoms: C_16  and  O_21 
REMARK    7  A    between atoms: C_17  and  O_19 
REMARK    8  A    between atoms: C_27  and  C_28 
REMARK    9  A    between atoms: C_28  and  C_29 
REMARK   10  A    between atoms: C_29  and  O_31 
REMARK   11  A    between atoms: O_31  and  C_32 
REMARK   12  A    between atoms: C_32  and  C_33 
REMARK   13  A    between atoms: C_33  and  C_34 
REMARK   14  A    between atoms: C_34  and  C_35 
REMARK   15  A    between atoms: C_35  and  C_36 
REMARK   16  A    between atoms: C_36  and  O_37 
REMARK   17  A    between atoms: O_37  and  C_38 
REMARK   18  A    between atoms: C_38  and  C_40 
REMARK   19  A    between atoms: C_40  and  C_41 
REMARK   20  A    between atoms: N_42  and  C_41 
REMARK   21  A    between atoms: C_47  and  O_65 
REMARK   22  A    between atoms: C_48  and  O_63 
REMARK   23  A    between atoms: C_51  and  C_52 
REMARK   24  A    between atoms: C_52  and  C_53 
REMARK   25  A    between atoms: C_56  and  O_61 
REMARK   26  A    between atoms: C_57  and  O_59 
ROOT
HETATM    1  C   UNK N   1      32.377  17.174   5.745  0.00  0.00     0.004 C 
ENDROOT
BRANCH   1   2
HETATM    2  C   UNK N   1      33.297  17.158   6.951  0.00  0.00     0.027 C 
BRANCH   2   3
HETATM    3  C   UNK N   1      32.642  17.911   8.102  0.00  0.00     0.178 C 
BRANCH   3   4
HETATM    4  O   UNK N   1      31.461  17.302   8.470  0.00  0.00    -0.321 OA
BRANCH   4   5
HETATM    5  C   UNK N   1      30.320  18.003   8.698  0.00  0.00     0.260 C 
HETATM    6  O   UNK N   1      30.360  19.118   9.199  0.00  0.00    -0.265 OA
BRANCH   5   7
HETATM    7  C   UNK N   1      29.000  17.400   8.328  0.00  0.00     0.139 C 
BRANCH   7   8
HETATM    8  C   UNK N   1      28.373  18.026   7.069  0.00  0.00     0.247 C 
BRANCH   8   9
HETATM    9  N   UNK N   1      28.161  17.122   5.910  0.00  0.00    -0.062 N 
HETATM   10  C   UNK N   1      29.061  15.993   6.007  0.00  0.00     0.273 C 
HETATM   11  C   UNK N   1      28.626  17.811   4.704  0.00  0.00     0.242 C 
HETATM   12  C   UNK N   1      27.836  19.078   4.407  0.00  0.00     0.067 C 
HETATM   13  C   UNK N   1      26.365  18.847   4.505  0.00  0.00    -0.045 A 
HETATM   14  C   UNK N   1      25.518  19.774   3.897  0.00  0.00     0.047 A 
HETATM   15  C   UNK N   1      25.832  17.712   5.152  0.00  0.00    -0.018 A 
HETATM   16  C   UNK N   1      24.133  19.599   3.892  0.00  0.00     0.102 A 
HETATM   17  C   UNK N   1      23.583  18.469   4.545  0.00  0.00     0.102 A 
HETATM   18  C   UNK N   1      24.447  17.551   5.161  0.00  0.00     0.049 A 
HETATM   19  C   UNK N   1      26.763  16.632   5.716  0.00  0.00     0.227 C 
BRANCH  16  20
HETATM   20  O   UNK N   1      23.385  20.526   3.239  0.00  0.00    -0.353 OA
HETATM   21  C   UNK N   1      22.333  20.253   2.396  0.00  0.00     0.210 C 
ENDBRANCH  16  20
BRANCH  17  22
HETATM   22  O   UNK N   1      22.241  18.270   4.566  0.00  0.00    -0.353 OA
HETATM   23  C   UNK N   1      21.641  17.073   4.246  0.00  0.00     0.210 C 
ENDBRANCH  17  22
BRANCH  19  24
HETATM   24  C   UNK N   1      26.293  15.733   6.904  0.00  0.00     0.077 C 
BRANCH  24  25
HETATM   25  C   UNK N   1      25.725  14.343   6.786  0.00  0.00    -0.053 A 
HETATM   26  C   UNK N   1      25.699  13.628   5.589  0.00  0.00     0.010 A 
HETATM   27  C   UNK N   1      25.010  12.419   5.499  0.00  0.00     0.040 A 
HETATM   28  C   UNK N   1      24.362  11.882   6.624  0.00  0.00     0.101 A 
HETATM   29  C   UNK N   1      24.457  12.549   7.855  0.00  0.00     0.102 A 
HETATM   30  C   UNK N   1      25.127  13.785   7.922  0.00  0.00     0.046 A 
BRANCH  28  31
HETATM   31  O   UNK N   1      23.639  10.740   6.538  0.00  0.00    -0.353 OA
HETATM   32  C   UNK N   1      22.428  10.664   5.887  0.00  0.00     0.210 C 
ENDBRANCH  28  31
BRANCH  29  33
HETATM   33  O   UNK N   1      23.879  11.998   8.951  0.00  0.00    -0.353 OA
HETATM   34  C   UNK N   1      23.472  12.734  10.042  0.00  0.00     0.210 C 
ENDBRANCH  29  33
ENDBRANCH  24  25
ENDBRANCH  19  24
ENDBRANCH   8   9
ENDBRANCH   7   8
ENDBRANCH   5   7
ENDBRANCH   4   5
ENDBRANCH   3   4
ENDBRANCH   2   3
ENDBRANCH   1   2
BRANCH   1  35
HETATM   35  C   UNK N   1      33.036  17.794   4.531  0.00  0.00     0.027 C 
BRANCH  35  36
HETATM   36  C   UNK N   1      32.690  17.014   3.257  0.00  0.00     0.178 C 
BRANCH  36  37
HETATM   37  O   UNK N   1      33.421  15.845   3.123  0.00  0.00    -0.321 OA
BRANCH  37  38
HETATM   38  C   UNK N   1      32.882  14.624   2.872  0.00  0.00     0.260 C 
HETATM   39  O   UNK N   1      33.324  13.959   1.947  0.00  0.00    -0.265 OA
BRANCH  38  40
HETATM   40  C   UNK N   1      31.764  14.080   3.730  0.00  0.00     0.139 C 
BRANCH  40  41
HETATM   41  C   UNK N   1      30.999  12.950   3.052  0.00  0.00     0.247 C 
BRANCH  41  42
HETATM   42  N   UNK N   1      29.554  13.187   2.920  0.00  0.00    -0.062 N 
HETATM   43  C   UNK N   1      29.283  14.591   2.566  0.00  0.00     0.242 C 
HETATM   44  C   UNK N   1      27.780  14.929   2.565  0.00  0.00     0.067 C 
HETATM   45  C   UNK N   1      26.887  13.778   2.188  0.00  0.00    -0.045 A 
HETATM   46  C   UNK N   1      25.511  13.989   2.107  0.00  0.00     0.047 A 
HETATM   47  C   UNK N   1      27.409  12.501   1.915  0.00  0.00    -0.018 A 
HETATM   48  C   UNK N   1      24.638  12.963   1.723  0.00  0.00     0.102 A 
HETATM   49  C   UNK N   1      25.169  11.686   1.419  0.00  0.00     0.102 A 
HETATM   50  C   UNK N   1      26.546  11.469   1.547  0.00  0.00     0.049 A 
HETATM   51  C   UNK N   1      28.898  12.256   1.959  0.00  0.00     0.227 C 
HETATM   52  C   UNK N   1      29.053  12.933   4.270  0.00  0.00     0.273 C 
BRANCH  48  53
HETATM   53  O   UNK N   1      23.317  13.263   1.622  0.00  0.00    -0.353 OA
HETATM   54  C   UNK N   1      22.693  13.763   0.501  0.00  0.00     0.210 C 
ENDBRANCH  48  53
BRANCH  49  55
HETATM   55  O   UNK N   1      24.360  10.700   0.959  0.00  0.00    -0.353 OA
HETATM   56  C   UNK N   1      23.920   9.664   1.749  0.00  0.00     0.210 C 
ENDBRANCH  49  55
BRANCH  51  57
HETATM   57  C   UNK N   1      29.451  12.388   0.515  0.00  0.00     0.077 C 
BRANCH  57  58
HETATM   58  C   UNK N   1      29.984  11.118  -0.084  0.00  0.00    -0.053 A 
HETATM   59  C   UNK N   1      30.124   9.966   0.687  0.00  0.00     0.010 A 
HETATM   60  C   UNK N   1      30.642   8.800   0.141  0.00  0.00     0.040 A 
HETATM   61  C   UNK N   1      31.005   8.749  -1.216  0.00  0.00     0.101 A 
HETATM   62  C   UNK N   1      30.818   9.890  -2.015  0.00  0.00     0.102 A 
HETATM   63  C   UNK N   1      30.312  11.071  -1.445  0.00  0.00     0.046 A 
BRANCH  61  64
HETATM   64  O   UNK N   1      31.524   7.625  -1.757  0.00  0.00    -0.353 OA
HETATM   65  C   UNK N   1      32.346   6.763  -1.062  0.00  0.00     0.210 C 
ENDBRANCH  61  64
BRANCH  62  66
HETATM   66  O   UNK N   1      31.138   9.826  -3.335  0.00  0.00    -0.353 OA
HETATM   67  C   UNK N   1      30.195   9.773  -4.335  0.00  0.00     0.210 C 
ENDBRANCH  62  66
ENDBRANCH  57  58
ENDBRANCH  51  57
ENDBRANCH  41  42
ENDBRANCH  40  41
ENDBRANCH  38  40
ENDBRANCH  37  38
ENDBRANCH  36  37
ENDBRANCH  35  36
ENDBRANCH   1  35
TORSDOF 26
ENDMDL
