MODEL 1
REMARK VINA RESULT:      -7.5      0.000      0.000
REMARK  9 active torsions:
REMARK  status: ('A' for Active; 'I' for Inactive)
REMARK    1  A    between atoms: C_15  and  C_14 
REMARK    2  A    between atoms: S_28  and  C_14 
REMARK    3  A    between atoms: C_20  and  C_15 
REMARK    4  A    between atoms: C_22  and  C_16 
REMARK    5  A    between atoms: S_29  and  C_17 
REMARK    6  A    between atoms: C_18  and  S_29 
REMARK    7  A    between atoms: C_19  and  C_21 
REMARK       I    between atoms: N_23  and  C_20 
REMARK    8  A    between atoms: O_26  and  C_21 
REMARK    9  A    between atoms: S_28  and  C_22 
ROOT
HETATM    1  C   UNK N   1      33.896  14.679   8.025  0.00  0.00     0.053 C 
HETATM    2  C   UNK N   1      35.072  15.393  10.033  0.00  0.00     0.142 C 
HETATM    3  C   UNK N   1      34.785  15.807   8.592  0.00  0.00     0.073 C 
HETATM    4  C   UNK N   1      33.585  13.774   9.206  0.00  0.00     0.186 C 
HETATM    5  C   UNK N   1      35.509  13.051  10.689  0.00  0.00     0.225 C 
HETATM    6  N   UNK N   1      34.737  14.003  10.053  0.00  0.00    -0.336 N 
HETATM    7  O   UNK N   1      35.191  11.873  10.621  0.00  0.00    -0.273 OA
ENDROOT
BRANCH   4   8
HETATM    8  C   UNK N   1      33.232  12.357   8.799  0.00  0.00     0.163 C 
HETATM    9  O   UNK N   1      33.620  11.904   7.734  0.00  0.00    -0.648 OA
BRANCH   8  10
HETATM   10  O   UNK N   1      32.413  11.617   9.571  0.00  0.00    -0.775 OA
HETATM   11  H   UNK N   1      32.680  11.158  10.343  0.00  0.00     0.167 HD
ENDBRANCH   8  10
ENDBRANCH   4   8
BRANCH   5  12
HETATM   12  C   UNK N   1      36.751  13.364  11.532  0.00  0.00     0.084 C 
HETATM   13  C   UNK N   1      37.974  12.892  10.766  0.00  0.00     0.020 C 
BRANCH  12  14
HETATM   14  C   UNK N   1      36.851  12.807  12.952  0.00  0.00     0.096 C 
BRANCH  14  15
HETATM   15  S   UNK N   1      36.144  13.979  14.161  0.00  0.00    -0.086 SA
BRANCH  15  16
HETATM   16  C   UNK N   1      35.069  12.769  14.951  0.00  0.00     0.219 C 
HETATM   17  O   UNK N   1      34.219  12.204  14.279  0.00  0.00    -0.280 OA
BRANCH  16  18
HETATM   18  C   UNK N   1      35.154  12.508  16.405  0.00  0.00     0.021 A 
HETATM   19  C   UNK N   1      35.160  13.571  17.321  0.00  0.00     0.016 A 
HETATM   20  C   UNK N   1      35.234  13.323  18.693  0.00  0.00     0.001 A 
HETATM   21  C   UNK N   1      35.290  12.008  19.163  0.00  0.00     0.000 A 
HETATM   22  C   UNK N   1      35.279  10.942  18.260  0.00  0.00     0.001 A 
HETATM   23  C   UNK N   1      35.218  11.190  16.885  0.00  0.00     0.016 A 
ENDBRANCH  16  18
ENDBRANCH  15  16
ENDBRANCH  14  15
ENDBRANCH  12  14
ENDBRANCH   5  12
BRANCH   3  24
HETATM   24  S   UNK N   1      33.970  17.445   8.632  0.00  0.00    -0.123 SA
BRANCH  24  25
HETATM   25  C   UNK N   1      33.060  17.315   7.090  0.00  0.00     0.001 A 
HETATM   26  C   UNK N   1      33.729  17.419   5.866  0.00  0.00     0.018 A 
HETATM   27  C   UNK N   1      33.006  17.365   4.669  0.00  0.00     0.001 A 
HETATM   28  C   UNK N   1      31.616  17.209   4.696  0.00  0.00     0.000 A 
HETATM   29  C   UNK N   1      30.948  17.113   5.919  0.00  0.00     0.001 A 
HETATM   30  C   UNK N   1      31.668  17.177   7.114  0.00  0.00     0.018 A 
ENDBRANCH  24  25
ENDBRANCH   3  24
TORSDOF 9
ENDMDL
MODEL 2
REMARK VINA RESULT:      -7.5      1.983      9.145
REMARK  9 active torsions:
REMARK  status: ('A' for Active; 'I' for Inactive)
REMARK    1  A    between atoms: C_15  and  C_14 
REMARK    2  A    between atoms: S_28  and  C_14 
REMARK    3  A    between atoms: C_20  and  C_15 
REMARK    4  A    between atoms: C_22  and  C_16 
REMARK    5  A    between atoms: S_29  and  C_17 
REMARK    6  A    between atoms: C_18  and  S_29 
REMARK    7  A    between atoms: C_19  and  C_21 
REMARK       I    between atoms: N_23  and  C_20 
REMARK    8  A    between atoms: O_26  and  C_21 
REMARK    9  A    between atoms: S_28  and  C_22 
ROOT
HETATM    1  C   UNK N   1      34.972  11.741  13.075  0.00  0.00     0.053 C 
HETATM    2  C   UNK N   1      35.322  13.863  11.935  0.00  0.00     0.142 C 
HETATM    3  C   UNK N   1      35.084  13.262  13.318  0.00  0.00     0.073 C 
HETATM    4  C   UNK N   1      35.315  11.537  11.609  0.00  0.00     0.186 C 
HETATM    5  C   UNK N   1      34.187  13.033   9.903  0.00  0.00     0.225 C 
HETATM    6  N   UNK N   1      34.932  12.815  11.044  0.00  0.00    -0.336 N 
HETATM    7  O   UNK N   1      33.843  12.083   9.216  0.00  0.00    -0.273 OA
ENDROOT
BRANCH   4   8
HETATM    8  C   UNK N   1      34.733  10.264  11.028  0.00  0.00     0.163 C 
HETATM    9  O   UNK N   1      33.762   9.735  11.546  0.00  0.00    -0.648 OA
BRANCH   8  10
HETATM   10  O   UNK N   1      35.338   9.658   9.988  0.00  0.00    -0.775 OA
HETATM   11  H   UNK N   1      35.332   8.733   9.833  0.00  0.00     0.167 HD
ENDBRANCH   8  10
ENDBRANCH   4   8
BRANCH   5  12
HETATM   12  C   UNK N   1      33.772  14.418   9.391  0.00  0.00     0.084 C 
HETATM   13  C   UNK N   1      32.695  14.231   8.338  0.00  0.00     0.020 C 
BRANCH  12  14
HETATM   14  C   UNK N   1      34.835  15.348   8.806  0.00  0.00     0.096 C 
BRANCH  14  15
HETATM   15  S   UNK N   1      35.020  16.849   9.830  0.00  0.00    -0.086 SA
BRANCH  15  16
HETATM   16  C   UNK N   1      34.570  17.998   8.518  0.00  0.00     0.219 C 
HETATM   17  O   UNK N   1      35.189  19.045   8.409  0.00  0.00    -0.280 OA
BRANCH  16  18
HETATM   18  C   UNK N   1      33.421  17.724   7.625  0.00  0.00     0.021 A 
HETATM   19  C   UNK N   1      33.624  17.470   6.261  0.00  0.00     0.016 A 
HETATM   20  C   UNK N   1      32.539  17.205   5.421  0.00  0.00     0.001 A 
HETATM   21  C   UNK N   1      31.243  17.180   5.942  0.00  0.00     0.000 A 
HETATM   22  C   UNK N   1      31.031  17.425   7.302  0.00  0.00     0.001 A 
HETATM   23  C   UNK N   1      32.115  17.703   8.140  0.00  0.00     0.016 A 
ENDBRANCH  16  18
ENDBRANCH  15  16
ENDBRANCH  14  15
ENDBRANCH  12  14
ENDBRANCH   5  12
BRANCH   3  24
HETATM   24  S   UNK N   1      36.490  13.742  14.387  0.00  0.00    -0.123 SA
BRANCH  24  25
HETATM   25  C   UNK N   1      36.029  12.809  15.849  0.00  0.00     0.001 A 
HETATM   26  C   UNK N   1      35.360  13.437  16.904  0.00  0.00     0.018 A 
HETATM   27  C   UNK N   1      35.047  12.714  18.061  0.00  0.00     0.001 A 
HETATM   28  C   UNK N   1      35.403  11.366  18.163  0.00  0.00     0.000 A 
HETATM   29  C   UNK N   1      36.078  10.741  17.112  0.00  0.00     0.001 A 
HETATM   30  C   UNK N   1      36.400  11.464  15.962  0.00  0.00     0.018 A 
ENDBRANCH  24  25
ENDBRANCH   3  24
TORSDOF 9
ENDMDL
MODEL 3
REMARK VINA RESULT:      -7.4      9.681     13.907
REMARK  9 active torsions:
REMARK  status: ('A' for Active; 'I' for Inactive)
REMARK    1  A    between atoms: C_15  and  C_14 
REMARK    2  A    between atoms: S_28  and  C_14 
REMARK    3  A    between atoms: C_20  and  C_15 
REMARK    4  A    between atoms: C_22  and  C_16 
REMARK    5  A    between atoms: S_29  and  C_17 
REMARK    6  A    between atoms: C_18  and  S_29 
REMARK    7  A    between atoms: C_19  and  C_21 
REMARK       I    between atoms: N_23  and  C_20 
REMARK    8  A    between atoms: O_26  and  C_21 
REMARK    9  A    between atoms: S_28  and  C_22 
ROOT
HETATM    1  C   UNK N   1      20.423  19.053   3.736  0.00  0.00     0.053 C 
HETATM    2  C   UNK N   1      22.431  17.792   4.290  0.00  0.00     0.142 C 
HETATM    3  C   UNK N   1      20.985  18.011   4.728  0.00  0.00     0.073 C 
HETATM    4  C   UNK N   1      21.510  19.247   2.692  0.00  0.00     0.186 C 
HETATM    5  C   UNK N   1      23.881  19.630   3.501  0.00  0.00     0.225 C 
HETATM    6  N   UNK N   1      22.699  18.919   3.452  0.00  0.00    -0.336 N 
HETATM    7  O   UNK N   1      24.022  20.617   2.793  0.00  0.00    -0.273 OA
ENDROOT
BRANCH   4   8
HETATM    8  C   UNK N   1      21.428  20.584   1.982  0.00  0.00     0.163 C 
HETATM    9  O   UNK N   1      21.455  20.640   0.763  0.00  0.00    -0.648 OA
BRANCH   8  10
HETATM   10  O   UNK N   1      21.414  21.727   2.695  0.00  0.00    -0.775 OA
HETATM   11  H   UNK N   1      22.176  22.228   2.913  0.00  0.00     0.167 HD
ENDBRANCH   8  10
ENDBRANCH   4   8
BRANCH   5  12
HETATM   12  C   UNK N   1      25.085  19.251   4.373  0.00  0.00     0.084 C 
HETATM   13  C   UNK N   1      25.901  20.506   4.625  0.00  0.00     0.020 C 
BRANCH  12  14
HETATM   14  C   UNK N   1      26.045  18.164   3.890  0.00  0.00     0.096 C 
BRANCH  14  15
HETATM   15  S   UNK N   1      27.767  18.569   4.344  0.00  0.00    -0.086 SA
BRANCH  15  16
HETATM   16  C   UNK N   1      27.801  17.515   5.805  0.00  0.00     0.219 C 
HETATM   17  O   UNK N   1      26.975  16.621   5.910  0.00  0.00    -0.280 OA
BRANCH  16  18
HETATM   18  C   UNK N   1      28.760  17.766   6.904  0.00  0.00     0.021 A 
HETATM   19  C   UNK N   1      28.404  18.582   7.988  0.00  0.00     0.016 A 
HETATM   20  C   UNK N   1      29.308  18.813   9.027  0.00  0.00     0.001 A 
HETATM   21  C   UNK N   1      30.573  18.219   8.997  0.00  0.00     0.000 A 
HETATM   22  C   UNK N   1      30.936  17.401   7.924  0.00  0.00     0.001 A 
HETATM   23  C   UNK N   1      30.035  17.180   6.877  0.00  0.00     0.016 A 
ENDBRANCH  16  18
ENDBRANCH  15  16
ENDBRANCH  14  15
ENDBRANCH  12  14
ENDBRANCH   5  12
BRANCH   3  24
HETATM   24  S   UNK N   1      20.131  16.394   4.670  0.00  0.00    -0.123 SA
BRANCH  24  25
HETATM   25  C   UNK N   1      20.397  15.903   6.375  0.00  0.00     0.001 A 
HETATM   26  C   UNK N   1      20.712  14.576   6.686  0.00  0.00     0.018 A 
HETATM   27  C   UNK N   1      20.871  14.190   8.022  0.00  0.00     0.001 A 
HETATM   28  C   UNK N   1      20.714  15.130   9.046  0.00  0.00     0.000 A 
HETATM   29  C   UNK N   1      20.392  16.453   8.735  0.00  0.00     0.001 A 
HETATM   30  C   UNK N   1      20.223  16.836   7.403  0.00  0.00     0.018 A 
ENDBRANCH  24  25
ENDBRANCH   3  24
TORSDOF 9
ENDMDL
MODEL 4
REMARK VINA RESULT:      -7.4     17.614     21.360
REMARK  9 active torsions:
REMARK  status: ('A' for Active; 'I' for Inactive)
REMARK    1  A    between atoms: C_15  and  C_14 
REMARK    2  A    between atoms: S_28  and  C_14 
REMARK    3  A    between atoms: C_20  and  C_15 
REMARK    4  A    between atoms: C_22  and  C_16 
REMARK    5  A    between atoms: S_29  and  C_17 
REMARK    6  A    between atoms: C_18  and  S_29 
REMARK    7  A    between atoms: C_19  and  C_21 
REMARK       I    between atoms: N_23  and  C_20 
REMARK    8  A    between atoms: O_26  and  C_21 
REMARK    9  A    between atoms: S_28  and  C_22 
ROOT
HETATM    1  C   UNK N   1      30.442  25.142  -3.325  0.00  0.00     0.053 C 
HETATM    2  C   UNK N   1      30.202  24.621  -5.691  0.00  0.00     0.142 C 
HETATM    3  C   UNK N   1      29.970  25.733  -4.671  0.00  0.00     0.073 C 
HETATM    4  C   UNK N   1      31.069  23.800  -3.667  0.00  0.00     0.186 C 
HETATM    5  C   UNK N   1      29.778  22.238  -5.190  0.00  0.00     0.225 C 
HETATM    6  N   UNK N   1      30.357  23.453  -4.880  0.00  0.00    -0.336 N 
HETATM    7  O   UNK N   1      29.908  21.295  -4.423  0.00  0.00    -0.273 OA
ENDROOT
BRANCH   4   8
HETATM    8  C   UNK N   1      31.076  22.827  -2.506  0.00  0.00     0.163 C 
HETATM    9  O   UNK N   1      30.336  22.998  -1.550  0.00  0.00    -0.648 OA
BRANCH   8  10
HETATM   10  O   UNK N   1      31.964  21.814  -2.479  0.00  0.00    -0.775 OA
HETATM   11  H   UNK N   1      32.800  21.827  -2.901  0.00  0.00     0.167 HD
ENDBRANCH   8  10
ENDBRANCH   4   8
BRANCH   5  12
HETATM   12  C   UNK N   1      28.990  21.957  -6.475  0.00  0.00     0.084 C 
HETATM   13  C   UNK N   1      29.968  21.486  -7.537  0.00  0.00     0.020 C 
BRANCH  12  14
HETATM   14  C   UNK N   1      28.140  23.069  -7.089  0.00  0.00     0.096 C 
BRANCH  14  15
HETATM   15  S   UNK N   1      26.376  22.842  -6.675  0.00  0.00    -0.086 SA
BRANCH  15  16
HETATM   16  C   UNK N   1      25.926  24.568  -6.930  0.00  0.00     0.219 C 
HETATM   17  O   UNK N   1      25.693  24.957  -8.065  0.00  0.00    -0.280 OA
BRANCH  16  18
HETATM   18  C   UNK N   1      25.909  25.526  -5.802  0.00  0.00     0.021 A 
HETATM   19  C   UNK N   1      25.288  26.777  -5.940  0.00  0.00     0.016 A 
HETATM   20  C   UNK N   1      25.268  27.678  -4.872  0.00  0.00     0.001 A 
HETATM   21  C   UNK N   1      25.856  27.329  -3.654  0.00  0.00     0.000 A 
HETATM   22  C   UNK N   1      26.471  26.084  -3.505  0.00  0.00     0.001 A 
HETATM   23  C   UNK N   1      26.503  25.187  -4.577  0.00  0.00     0.016 A 
ENDBRANCH  16  18
ENDBRANCH  15  16
ENDBRANCH  14  15
ENDBRANCH  12  14
ENDBRANCH   5  12
BRANCH   3  24
HETATM   24  S   UNK N   1      30.923  27.198  -5.214  0.00  0.00    -0.123 SA
BRANCH  24  25
HETATM   25  C   UNK N   1      29.653  28.439  -4.953  0.00  0.00     0.001 A 
HETATM   26  C   UNK N   1      28.948  28.965  -6.041  0.00  0.00     0.018 A 
HETATM   27  C   UNK N   1      27.993  29.968  -5.835  0.00  0.00     0.001 A 
HETATM   28  C   UNK N   1      27.744  30.443  -4.544  0.00  0.00     0.000 A 
HETATM   29  C   UNK N   1      28.453  29.923  -3.459  0.00  0.00     0.001 A 
HETATM   30  C   UNK N   1      29.413  28.930  -3.665  0.00  0.00     0.018 A 
ENDBRANCH  24  25
ENDBRANCH   3  24
TORSDOF 9
ENDMDL
MODEL 5
REMARK VINA RESULT:      -7.1      9.296     13.537
REMARK  9 active torsions:
REMARK  status: ('A' for Active; 'I' for Inactive)
REMARK    1  A    between atoms: C_15  and  C_14 
REMARK    2  A    between atoms: S_28  and  C_14 
REMARK    3  A    between atoms: C_20  and  C_15 
REMARK    4  A    between atoms: C_22  and  C_16 
REMARK    5  A    between atoms: S_29  and  C_17 
REMARK    6  A    between atoms: C_18  and  S_29 
REMARK    7  A    between atoms: C_19  and  C_21 
REMARK       I    between atoms: N_23  and  C_20 
REMARK    8  A    between atoms: O_26  and  C_21 
REMARK    9  A    between atoms: S_28  and  C_22 
ROOT
HETATM    1  C   UNK N   1      21.009  19.261   4.219  0.00  0.00     0.053 C 
HETATM    2  C   UNK N   1      23.023  18.014   4.778  0.00  0.00     0.142 C 
HETATM    3  C   UNK N   1      21.607  18.302   5.271  0.00  0.00     0.073 C 
HETATM    4  C   UNK N   1      22.039  19.338   3.105  0.00  0.00     0.186 C 
HETATM    5  C   UNK N   1      24.457  19.743   3.749  0.00  0.00     0.225 C 
HETATM    6  N   UNK N   1      23.263  19.055   3.828  0.00  0.00    -0.336 N 
HETATM    7  O   UNK N   1      24.575  20.658   2.947  0.00  0.00    -0.273 OA
ENDROOT
BRANCH   4   8
HETATM    8  C   UNK N   1      21.940  20.606   2.281  0.00  0.00     0.163 C 
HETATM    9  O   UNK N   1      21.905  20.551   1.062  0.00  0.00    -0.648 OA
BRANCH   8  10
HETATM   10  O   UNK N   1      21.978  21.809   2.886  0.00  0.00    -0.775 OA
HETATM   11  H   UNK N   1      21.362  22.500   2.739  0.00  0.00     0.167 HD
ENDBRANCH   8  10
ENDBRANCH   4   8
BRANCH   5  12
HETATM   12  C   UNK N   1      25.701  19.420   4.586  0.00  0.00     0.084 C 
HETATM   13  C   UNK N   1      26.277  20.725   5.103  0.00  0.00     0.020 C 
BRANCH  12  14
HETATM   14  C   UNK N   1      26.845  18.628   3.951  0.00  0.00     0.096 C 
BRANCH  14  15
HETATM   15  S   UNK N   1      27.068  17.022   4.792  0.00  0.00    -0.086 SA
BRANCH  15  16
HETATM   16  C   UNK N   1      28.767  17.340   5.300  0.00  0.00     0.219 C 
HETATM   17  O   UNK N   1      29.663  17.213   4.479  0.00  0.00    -0.280 OA
BRANCH  16  18
HETATM   18  C   UNK N   1      29.093  17.676   6.704  0.00  0.00     0.021 A 
HETATM   19  C   UNK N   1      28.126  18.249   7.542  0.00  0.00     0.016 A 
HETATM   20  C   UNK N   1      28.433  18.560   8.869  0.00  0.00     0.001 A 
HETATM   21  C   UNK N   1      29.708  18.288   9.372  0.00  0.00     0.000 A 
HETATM   22  C   UNK N   1      30.677  17.711   8.547  0.00  0.00     0.001 A 
HETATM   23  C   UNK N   1      30.374  17.412   7.215  0.00  0.00     0.016 A 
ENDBRANCH  16  18
ENDBRANCH  15  16
ENDBRANCH  14  15
ENDBRANCH  12  14
ENDBRANCH   5  12
BRANCH   3  24
HETATM   24  S   UNK N   1      20.725  16.704   5.406  0.00  0.00    -0.123 SA
BRANCH  24  25
HETATM   25  C   UNK N   1      21.070  16.082   3.759  0.00  0.00     0.001 A 
HETATM   26  C   UNK N   1      20.174  16.321   2.712  0.00  0.00     0.018 A 
HETATM   27  C   UNK N   1      20.426  15.791   1.442  0.00  0.00     0.001 A 
HETATM   28  C   UNK N   1      21.572  15.022   1.218  0.00  0.00     0.000 A 
HETATM   29  C   UNK N   1      22.463  14.777   2.265  0.00  0.00     0.001 A 
HETATM   30  C   UNK N   1      22.207  15.297   3.535  0.00  0.00     0.018 A 
ENDBRANCH  24  25
ENDBRANCH   3  24
TORSDOF 9
ENDMDL
MODEL 6
REMARK VINA RESULT:      -7.1     17.547     20.776
REMARK  9 active torsions:
REMARK  status: ('A' for Active; 'I' for Inactive)
REMARK    1  A    between atoms: C_15  and  C_14 
REMARK    2  A    between atoms: S_28  and  C_14 
REMARK    3  A    between atoms: C_20  and  C_15 
REMARK    4  A    between atoms: C_22  and  C_16 
REMARK    5  A    between atoms: S_29  and  C_17 
REMARK    6  A    between atoms: C_18  and  S_29 
REMARK    7  A    between atoms: C_19  and  C_21 
REMARK       I    between atoms: N_23  and  C_20 
REMARK    8  A    between atoms: O_26  and  C_21 
REMARK    9  A    between atoms: S_28  and  C_22 
ROOT
HETATM    1  C   UNK N   1      30.529  21.743  -4.798  0.00  0.00     0.053 C 
HETATM    2  C   UNK N   1      29.609  23.731  -5.860  0.00  0.00     0.142 C 
HETATM    3  C   UNK N   1      30.181  22.351  -6.174  0.00  0.00     0.073 C 
HETATM    4  C   UNK N   1      29.989  22.725  -3.772  0.00  0.00     0.186 C 
HETATM    5  C   UNK N   1      30.522  25.184  -4.082  0.00  0.00     0.225 C 
HETATM    6  N   UNK N   1      30.031  23.968  -4.515  0.00  0.00    -0.336 N 
HETATM    7  O   UNK N   1      30.916  25.300  -2.931  0.00  0.00    -0.273 OA
ENDROOT
BRANCH   4   8
HETATM    8  C   UNK N   1      30.690  22.638  -2.431  0.00  0.00     0.163 C 
HETATM    9  O   UNK N   1      31.791  22.118  -2.340  0.00  0.00    -0.648 OA
BRANCH   8  10
HETATM   10  O   UNK N   1      30.065  23.055  -1.313  0.00  0.00    -0.775 OA
HETATM   11  H   UNK N   1      29.454  22.542  -0.821  0.00  0.00     0.167 HD
ENDBRANCH   8  10
ENDBRANCH   4   8
BRANCH   5  12
HETATM   12  C   UNK N   1      30.584  26.450  -4.945  0.00  0.00     0.084 C 
HETATM   13  C   UNK N   1      31.720  27.317  -4.434  0.00  0.00     0.020 C 
BRANCH  12  14
HETATM   14  C   UNK N   1      29.343  27.335  -5.064  0.00  0.00     0.096 C 
BRANCH  14  15
HETATM   15  S   UNK N   1      29.036  28.234  -3.505  0.00  0.00    -0.086 SA
BRANCH  15  16
HETATM   16  C   UNK N   1      27.261  27.923  -3.485  0.00  0.00     0.219 C 
HETATM   17  O   UNK N   1      26.530  28.706  -2.898  0.00  0.00    -0.280 OA
BRANCH  16  18
HETATM   18  C   UNK N   1      26.694  26.703  -4.102  0.00  0.00     0.021 A 
HETATM   19  C   UNK N   1      26.875  25.450  -3.498  0.00  0.00     0.016 A 
HETATM   20  C   UNK N   1      26.334  24.300  -4.079  0.00  0.00     0.001 A 
HETATM   21  C   UNK N   1      25.596  24.396  -5.261  0.00  0.00     0.000 A 
HETATM   22  C   UNK N   1      25.405  25.641  -5.867  0.00  0.00     0.001 A 
HETATM   23  C   UNK N   1      25.957  26.790  -5.293  0.00  0.00     0.016 A 
ENDBRANCH  16  18
ENDBRANCH  15  16
ENDBRANCH  14  15
ENDBRANCH  12  14
ENDBRANCH   5  12
BRANCH   3  24
HETATM   24  S   UNK N   1      28.909  21.414  -7.099  0.00  0.00    -0.123 SA
BRANCH  24  25
HETATM   25  C   UNK N   1      29.996  20.237  -7.907  0.00  0.00     0.001 A 
HETATM   26  C   UNK N   1      29.514  18.983  -8.294  0.00  0.00     0.018 A 
HETATM   27  C   UNK N   1      30.380  18.052  -8.879  0.00  0.00     0.001 A 
HETATM   28  C   UNK N   1      31.726  18.374  -9.076  0.00  0.00     0.000 A 
HETATM   29  C   UNK N   1      32.210  19.624  -8.682  0.00  0.00     0.001 A 
HETATM   30  C   UNK N   1      31.348  20.549  -8.089  0.00  0.00     0.018 A 
ENDBRANCH  24  25
ENDBRANCH   3  24
TORSDOF 9
ENDMDL
MODEL 7
REMARK VINA RESULT:      -7.0      1.942      9.907
REMARK  9 active torsions:
REMARK  status: ('A' for Active; 'I' for Inactive)
REMARK    1  A    between atoms: C_15  and  C_14 
REMARK    2  A    between atoms: S_28  and  C_14 
REMARK    3  A    between atoms: C_20  and  C_15 
REMARK    4  A    between atoms: C_22  and  C_16 
REMARK    5  A    between atoms: S_29  and  C_17 
REMARK    6  A    between atoms: C_18  and  S_29 
REMARK    7  A    between atoms: C_19  and  C_21 
REMARK       I    between atoms: N_23  and  C_20 
REMARK    8  A    between atoms: O_26  and  C_21 
REMARK    9  A    between atoms: S_28  and  C_22 
ROOT
HETATM    1  C   UNK N   1      36.849  12.834  12.223  0.00  0.00     0.053 C 
HETATM    2  C   UNK N   1      35.702  14.981  12.210  0.00  0.00     0.142 C 
HETATM    3  C   UNK N   1      35.953  13.752  13.081  0.00  0.00     0.073 C 
HETATM    4  C   UNK N   1      37.201  13.647  10.988  0.00  0.00     0.186 C 
HETATM    5  C   UNK N   1      35.321  14.837   9.772  0.00  0.00     0.225 C 
HETATM    6  N   UNK N   1      36.062  14.539  10.899  0.00  0.00    -0.336 N 
HETATM    7  O   UNK N   1      35.658  14.380   8.690  0.00  0.00    -0.273 OA
ENDROOT
BRANCH   4   8
HETATM    8  C   UNK N   1      37.570  12.793   9.792  0.00  0.00     0.163 C 
HETATM    9  O   UNK N   1      38.547  13.066   9.113  0.00  0.00    -0.648 OA
BRANCH   8  10
HETATM   10  O   UNK N   1      36.771  11.775   9.416  0.00  0.00    -0.775 OA
HETATM   11  H   UNK N   1      36.809  11.347   8.583  0.00  0.00     0.167 HD
ENDBRANCH   8  10
ENDBRANCH   4   8
BRANCH   5  12
HETATM   12  C   UNK N   1      34.091  15.752   9.762  0.00  0.00     0.084 C 
HETATM   13  C   UNK N   1      32.944  14.997   9.115  0.00  0.00     0.020 C 
BRANCH  12  14
HETATM   14  C   UNK N   1      34.183  17.121   9.088  0.00  0.00     0.096 C 
BRANCH  14  15
HETATM   15  S   UNK N   1      32.604  17.555   8.280  0.00  0.00    -0.086 SA
BRANCH  15  16
HETATM   16  C   UNK N   1      33.285  17.610   6.613  0.00  0.00     0.219 C 
HETATM   17  O   UNK N   1      34.425  18.018   6.452  0.00  0.00    -0.280 OA
BRANCH  16  18
HETATM   18  C   UNK N   1      32.461  17.240   5.440  0.00  0.00     0.021 A 
HETATM   19  C   UNK N   1      31.151  16.766   5.610  0.00  0.00     0.016 A 
HETATM   20  C   UNK N   1      30.373  16.423   4.502  0.00  0.00     0.001 A 
HETATM   21  C   UNK N   1      30.893  16.564   3.214  0.00  0.00     0.000 A 
HETATM   22  C   UNK N   1      32.195  17.040   3.033  0.00  0.00     0.001 A 
HETATM   23  C   UNK N   1      32.979  17.371   4.142  0.00  0.00     0.016 A 
ENDBRANCH  16  18
ENDBRANCH  15  16
ENDBRANCH  14  15
ENDBRANCH  12  14
ENDBRANCH   5  12
BRANCH   3  24
HETATM   24  S   UNK N   1      36.738  14.317  14.634  0.00  0.00    -0.123 SA
BRANCH  24  25
HETATM   25  C   UNK N   1      36.259  12.939  15.678  0.00  0.00     0.001 A 
HETATM   26  C   UNK N   1      35.466  13.154  16.810  0.00  0.00     0.018 A 
HETATM   27  C   UNK N   1      35.137  12.081  17.646  0.00  0.00     0.001 A 
HETATM   28  C   UNK N   1      35.601  10.795  17.352  0.00  0.00     0.000 A 
HETATM   29  C   UNK N   1      36.400  10.582  16.226  0.00  0.00     0.001 A 
HETATM   30  C   UNK N   1      36.737  11.654  15.397  0.00  0.00     0.018 A 
ENDBRANCH  24  25
ENDBRANCH   3  24
TORSDOF 9
ENDMDL
MODEL 8
REMARK VINA RESULT:      -6.9     17.804     20.938
REMARK  9 active torsions:
REMARK  status: ('A' for Active; 'I' for Inactive)
REMARK    1  A    between atoms: C_15  and  C_14 
REMARK    2  A    between atoms: S_28  and  C_14 
REMARK    3  A    between atoms: C_20  and  C_15 
REMARK    4  A    between atoms: C_22  and  C_16 
REMARK    5  A    between atoms: S_29  and  C_17 
REMARK    6  A    between atoms: C_18  and  S_29 
REMARK    7  A    between atoms: C_19  and  C_21 
REMARK       I    between atoms: N_23  and  C_20 
REMARK    8  A    between atoms: O_26  and  C_21 
REMARK    9  A    between atoms: S_28  and  C_22 
ROOT
HETATM    1  C   UNK N   1      25.959  24.582  -6.782  0.00  0.00     0.053 C 
HETATM    2  C   UNK N   1      27.866  23.408  -5.829  0.00  0.00     0.142 C 
HETATM    3  C   UNK N   1      27.192  24.777  -5.874  0.00  0.00     0.073 C 
HETATM    4  C   UNK N   1      25.896  23.091  -7.069  0.00  0.00     0.186 C 
HETATM    5  C   UNK N   1      28.026  21.931  -7.804  0.00  0.00     0.225 C 
HETATM    6  N   UNK N   1      27.289  22.716  -6.940  0.00  0.00    -0.336 N 
HETATM    7  O   UNK N   1      27.477  21.412  -8.765  0.00  0.00    -0.273 OA
ENDROOT
BRANCH   4   8
HETATM    8  C   UNK N   1      25.152  22.757  -8.346  0.00  0.00     0.163 C 
HETATM    9  O   UNK N   1      24.993  23.604  -9.210  0.00  0.00    -0.648 OA
BRANCH   8  10
HETATM   10  O   UNK N   1      24.585  21.544  -8.500  0.00  0.00    -0.775 OA
HETATM   11  H   UNK N   1      25.060  20.742  -8.596  0.00  0.00     0.167 HD
ENDBRANCH   8  10
ENDBRANCH   4   8
BRANCH   5  12
HETATM   12  C   UNK N   1      29.518  21.618  -7.632  0.00  0.00     0.084 C 
HETATM   13  C   UNK N   1      30.158  21.590  -9.008  0.00  0.00     0.020 C 
BRANCH  12  14
HETATM   14  C   UNK N   1      29.934  20.341  -6.902  0.00  0.00     0.096 C 
BRANCH  14  15
HETATM   15  S   UNK N   1      31.753  20.189  -6.844  0.00  0.00    -0.086 SA
BRANCH  15  16
HETATM   16  C   UNK N   1      31.875  20.388  -5.057  0.00  0.00     0.219 C 
HETATM   17  O   UNK N   1      32.285  19.454  -4.384  0.00  0.00    -0.280 OA
BRANCH  16  18
HETATM   18  C   UNK N   1      31.419  21.630  -4.395  0.00  0.00     0.021 A 
HETATM   19  C   UNK N   1      31.907  22.879  -4.809  0.00  0.00     0.016 A 
HETATM   20  C   UNK N   1      31.471  24.051  -4.187  0.00  0.00     0.001 A 
HETATM   21  C   UNK N   1      30.532  23.985  -3.154  0.00  0.00     0.000 A 
HETATM   22  C   UNK N   1      30.035  22.747  -2.739  0.00  0.00     0.001 A 
HETATM   23  C   UNK N   1      30.481  21.573  -3.352  0.00  0.00     0.016 A 
ENDBRANCH  16  18
ENDBRANCH  15  16
ENDBRANCH  14  15
ENDBRANCH  12  14
ENDBRANCH   5  12
BRANCH   3  24
HETATM   24  S   UNK N   1      26.782  25.256  -4.156  0.00  0.00    -0.123 SA
BRANCH  24  25
HETATM   25  C   UNK N   1      26.816  27.037  -4.373  0.00  0.00     0.001 A 
HETATM   26  C   UNK N   1      27.525  27.604  -5.437  0.00  0.00     0.018 A 
HETATM   27  C   UNK N   1      27.587  28.996  -5.571  0.00  0.00     0.001 A 
HETATM   28  C   UNK N   1      26.941  29.819  -4.644  0.00  0.00     0.000 A 
HETATM   29  C   UNK N   1      26.239  29.252  -3.577  0.00  0.00     0.001 A 
HETATM   30  C   UNK N   1      26.186  27.864  -3.437  0.00  0.00     0.018 A 
ENDBRANCH  24  25
ENDBRANCH   3  24
TORSDOF 9
ENDMDL
MODEL 9
REMARK VINA RESULT:      -6.9      9.502     13.502
REMARK  9 active torsions:
REMARK  status: ('A' for Active; 'I' for Inactive)
REMARK    1  A    between atoms: C_15  and  C_14 
REMARK    2  A    between atoms: S_28  and  C_14 
REMARK    3  A    between atoms: C_20  and  C_15 
REMARK    4  A    between atoms: C_22  and  C_16 
REMARK    5  A    between atoms: S_29  and  C_17 
REMARK    6  A    between atoms: C_18  and  S_29 
REMARK    7  A    between atoms: C_19  and  C_21 
REMARK       I    between atoms: N_23  and  C_20 
REMARK    8  A    between atoms: O_26  and  C_21 
REMARK    9  A    between atoms: S_28  and  C_22 
ROOT
HETATM    1  C   UNK N   1      21.687  15.978   7.190  0.00  0.00     0.053 C 
HETATM    2  C   UNK N   1      23.493  14.962   5.912  0.00  0.00     0.142 C 
HETATM    3  C   UNK N   1      22.703  14.815   7.210  0.00  0.00     0.073 C 
HETATM    4  C   UNK N   1      21.832  16.621   5.820  0.00  0.00     0.186 C 
HETATM    5  C   UNK N   1      24.170  17.157   5.000  0.00  0.00     0.225 C 
HETATM    6  N   UNK N   1      23.208  16.301   5.498  0.00  0.00    -0.336 N 
HETATM    7  O   UNK N   1      23.866  18.306   4.716  0.00  0.00    -0.273 OA
ENDROOT
BRANCH   4   8
HETATM    8  C   UNK N   1      21.378  18.067   5.786  0.00  0.00     0.163 C 
HETATM    9  O   UNK N   1      21.220  18.691   6.822  0.00  0.00    -0.648 OA
BRANCH   8  10
HETATM   10  O   UNK N   1      21.060  18.647   4.612  0.00  0.00    -0.775 OA
HETATM   11  H   UNK N   1      20.301  19.177   4.468  0.00  0.00     0.167 HD
ENDBRANCH   8  10
ENDBRANCH   4   8
BRANCH   5  12
HETATM   12  C   UNK N   1      25.627  16.761   4.732  0.00  0.00     0.084 C 
HETATM   13  C   UNK N   1      25.647  15.794   3.563  0.00  0.00     0.020 C 
BRANCH  12  14
HETATM   14  C   UNK N   1      26.453  16.141   5.860  0.00  0.00     0.096 C 
BRANCH  14  15
HETATM   15  S   UNK N   1      28.207  15.995   5.375  0.00  0.00    -0.086 SA
BRANCH  15  16
HETATM   16  C   UNK N   1      28.757  17.424   6.325  0.00  0.00     0.219 C 
HETATM   17  O   UNK N   1      29.588  17.264   7.206  0.00  0.00    -0.280 OA
BRANCH  16  18
HETATM   18  C   UNK N   1      28.164  18.761   6.103  0.00  0.00     0.021 A 
HETATM   19  C   UNK N   1      27.703  19.525   7.185  0.00  0.00     0.016 A 
HETATM   20  C   UNK N   1      27.149  20.790   6.974  0.00  0.00     0.001 A 
HETATM   21  C   UNK N   1      27.064  21.308   5.679  0.00  0.00     0.000 A 
HETATM   22  C   UNK N   1      27.526  20.557   4.594  0.00  0.00     0.001 A 
HETATM   23  C   UNK N   1      28.069  19.286   4.804  0.00  0.00     0.016 A 
ENDBRANCH  16  18
ENDBRANCH  15  16
ENDBRANCH  14  15
ENDBRANCH  12  14
ENDBRANCH   5  12
BRANCH   3  24
HETATM   24  S   UNK N   1      21.933  13.155   7.212  0.00  0.00    -0.123 SA
BRANCH  24  25
HETATM   25  C   UNK N   1      22.278  12.715   8.917  0.00  0.00     0.001 A 
HETATM   26  C   UNK N   1      23.568  12.334   9.299  0.00  0.00     0.018 A 
HETATM   27  C   UNK N   1      23.820  11.946  10.620  0.00  0.00     0.001 A 
HETATM   28  C   UNK N   1      22.782  11.938  11.557  0.00  0.00     0.000 A 
HETATM   29  C   UNK N   1      21.492  12.312  11.174  0.00  0.00     0.001 A 
HETATM   30  C   UNK N   1      21.239  12.689   9.853  0.00  0.00     0.018 A 
ENDBRANCH  24  25
ENDBRANCH   3  24
TORSDOF 9
ENDMDL
