MODEL 1
REMARK VINA RESULT:      -6.2      0.000      0.000
REMARK  4 active torsions:
REMARK  status: ('A' for Active; 'I' for Inactive)
REMARK    1  A    between atoms: O_2  and  C_3 
REMARK    2  A    between atoms: C_7  and  C_8 
REMARK    3  A    between atoms: N_9  and  C_11 
REMARK    4  A    between atoms: C_18  and  O_19 
ROOT
HETATM    1  C   UNK N   1      21.150  18.505   4.455  0.00  0.00     0.102 A 
HETATM    2  C   UNK N   1      21.373  17.713   3.316  0.00  0.00     0.040 A 
HETATM    3  C   UNK N   1      21.722  16.368   3.449  0.00  0.00     0.004 A 
HETATM    4  C   UNK N   1      21.852  15.798   4.718  0.00  0.00     0.016 A 
HETATM    5  C   UNK N   1      21.634  16.569   5.867  0.00  0.00     0.015 A 
HETATM    6  C   UNK N   1      21.280  17.933   5.726  0.00  0.00     0.110 A 
ENDROOT
BRANCH   5   7
HETATM    7  C   UNK N   1      21.781  15.926   7.193  0.00  0.00     0.102 C 
HETATM    8  N   UNK N   1      22.080  14.678   7.270  0.00  0.00    -0.365 N 
ATOM      9  HN  UNK N   1      22.207  14.168   6.396  1.00  0.00     0.165 HD
BRANCH   8  10
HETATM   10  C   UNK N   1      22.247  13.958   8.476  0.00  0.00     0.031 A 
HETATM   11  C   UNK N   1      21.194  13.753   9.384  0.00  0.00     0.030 A 
HETATM   12  C   UNK N   1      21.419  13.031  10.563  0.00  0.00     0.009 A 
HETATM   13  C   UNK N   1      22.692  12.515  10.836  0.00  0.00    -0.062 A 
HETATM   14  C   UNK N   1      22.937  11.749  12.085  0.00  0.00     0.048 C 
HETATM   15  C   UNK N   1      23.737  12.719   9.935  0.00  0.00     0.009 A 
HETATM   16  C   UNK N   1      23.514  13.437   8.761  0.00  0.00     0.030 A 
ENDBRANCH   8  10
ENDBRANCH   5   7
BRANCH   6  17
HETATM   17  O   UNK N   1      21.063  18.706   6.808  0.00  0.00    -0.357 OA
HETATM   18  H   UNK N   1      21.244  18.373   7.666  0.00  0.00     0.217 HD
ENDBRANCH   6  17
BRANCH   1  19
HETATM   19  O   UNK N   1      20.810  19.812   4.355  0.00  0.00    -0.353 OA
HETATM   20  C   UNK N   1      20.686  20.478   3.158  0.00  0.00     0.210 C 
ENDBRANCH   1  19
TORSDOF 4
ENDMDL
MODEL 2
REMARK VINA RESULT:      -6.1     14.607     16.086
REMARK  4 active torsions:
REMARK  status: ('A' for Active; 'I' for Inactive)
REMARK    1  A    between atoms: O_2  and  C_3 
REMARK    2  A    between atoms: C_7  and  C_8 
REMARK    3  A    between atoms: N_9  and  C_11 
REMARK    4  A    between atoms: C_18  and  O_19 
ROOT
HETATM    1  C   UNK N   1      36.422  14.763  10.838  0.00  0.00     0.102 A 
HETATM    2  C   UNK N   1      36.445  13.805   9.810  0.00  0.00     0.040 A 
HETATM    3  C   UNK N   1      36.478  12.443  10.116  0.00  0.00     0.004 A 
HETATM    4  C   UNK N   1      36.488  12.021  11.448  0.00  0.00     0.016 A 
HETATM    5  C   UNK N   1      36.465  12.959  12.488  0.00  0.00     0.015 A 
HETATM    6  C   UNK N   1      36.432  14.339  12.172  0.00  0.00     0.110 A 
ENDROOT
BRANCH   5   7
HETATM    7  C   UNK N   1      36.477  12.471  13.887  0.00  0.00     0.102 C 
HETATM    8  N   UNK N   1      35.590  12.890  14.718  0.00  0.00    -0.365 N 
ATOM      9  HN  UNK N   1      34.898  13.556  14.375  1.00  0.00     0.165 HD
BRANCH   8  10
HETATM   10  C   UNK N   1      35.501  12.496  16.074  0.00  0.00     0.031 A 
HETATM   11  C   UNK N   1      35.272  13.415  17.112  0.00  0.00     0.030 A 
HETATM   12  C   UNK N   1      35.194  12.966  18.436  0.00  0.00     0.009 A 
HETATM   13  C   UNK N   1      35.343  11.604  18.725  0.00  0.00    -0.062 A 
HETATM   14  C   UNK N   1      35.261  11.121  20.127  0.00  0.00     0.048 C 
HETATM   15  C   UNK N   1      35.570  10.692  17.693  0.00  0.00     0.009 A 
HETATM   16  C   UNK N   1      35.648  11.138  16.375  0.00  0.00     0.030 A 
ENDBRANCH   8  10
ENDBRANCH   5   7
BRANCH   6  17
HETATM   17  O   UNK N   1      36.409  15.270  13.146  0.00  0.00    -0.357 OA
HETATM   18  H   UNK N   1      36.263  16.171  12.931  0.00  0.00     0.217 HD
ENDBRANCH   6  17
BRANCH   1  19
HETATM   19  O   UNK N   1      36.389  16.090  10.571  0.00  0.00    -0.353 OA
HETATM   20  C   UNK N   1      35.235  16.781  10.287  0.00  0.00     0.210 C 
ENDBRANCH   1  19
TORSDOF 4
ENDMDL
MODEL 3
REMARK VINA RESULT:      -6.0     12.012     14.728
REMARK  4 active torsions:
REMARK  status: ('A' for Active; 'I' for Inactive)
REMARK    1  A    between atoms: O_2  and  C_3 
REMARK    2  A    between atoms: C_7  and  C_8 
REMARK    3  A    between atoms: N_9  and  C_11 
REMARK    4  A    between atoms: C_18  and  O_19 
ROOT
HETATM    1  C   UNK N   1      35.464  13.563  12.480  0.00  0.00     0.102 A 
HETATM    2  C   UNK N   1      36.768  13.044  12.399  0.00  0.00     0.040 A 
HETATM    3  C   UNK N   1      37.541  13.252  11.255  0.00  0.00     0.004 A 
HETATM    4  C   UNK N   1      37.023  13.979  10.180  0.00  0.00     0.016 A 
HETATM    5  C   UNK N   1      35.727  14.505  10.239  0.00  0.00     0.015 A 
HETATM    6  C   UNK N   1      34.947  14.291  11.402  0.00  0.00     0.110 A 
ENDROOT
BRANCH   5   7
HETATM    7  C   UNK N   1      35.216  15.271   9.078  0.00  0.00     0.102 C 
HETATM    8  N   UNK N   1      34.057  14.999   8.592  0.00  0.00    -0.365 N 
ATOM      9  HN  UNK N   1      33.523  14.252   9.035  1.00  0.00     0.165 HD
BRANCH   8  10
HETATM   10  C   UNK N   1      33.466  15.659   7.489  0.00  0.00     0.031 A 
HETATM   11  C   UNK N   1      32.163  15.372   7.048  0.00  0.00     0.030 A 
HETATM   12  C   UNK N   1      31.631  16.059   5.950  0.00  0.00     0.009 A 
HETATM   13  C   UNK N   1      32.397  17.030   5.293  0.00  0.00    -0.062 A 
HETATM   14  C   UNK N   1      31.838  17.762   4.127  0.00  0.00     0.048 C 
HETATM   15  C   UNK N   1      33.690  17.314   5.731  0.00  0.00     0.009 A 
HETATM   16  C   UNK N   1      34.220  16.631   6.824  0.00  0.00     0.030 A 
ENDBRANCH   8  10
ENDBRANCH   5   7
BRANCH   6  17
HETATM   17  O   UNK N   1      33.695  14.783  11.494  0.00  0.00    -0.357 OA
HETATM   18  H   UNK N   1      33.158  14.844  10.729  0.00  0.00     0.217 HD
ENDBRANCH   6  17
BRANCH   1  19
HETATM   19  O   UNK N   1      34.692  13.377  13.576  0.00  0.00    -0.353 OA
HETATM   20  C   UNK N   1      35.194  13.049  14.814  0.00  0.00     0.210 C 
ENDBRANCH   1  19
TORSDOF 4
ENDMDL
MODEL 4
REMARK VINA RESULT:      -6.0     10.583     13.030
REMARK  4 active torsions:
REMARK  status: ('A' for Active; 'I' for Inactive)
REMARK    1  A    between atoms: O_2  and  C_3 
REMARK    2  A    between atoms: C_7  and  C_8 
REMARK    3  A    between atoms: N_9  and  C_11 
REMARK    4  A    between atoms: C_18  and  O_19 
ROOT
HETATM    1  C   UNK N   1      35.181  14.347  11.272  0.00  0.00     0.102 A 
HETATM    2  C   UNK N   1      36.385  14.158  10.573  0.00  0.00     0.040 A 
HETATM    3  C   UNK N   1      36.470  14.473   9.215  0.00  0.00     0.004 A 
HETATM    4  C   UNK N   1      35.356  14.980   8.540  0.00  0.00     0.016 A 
HETATM    5  C   UNK N   1      34.146  15.176   9.218  0.00  0.00     0.015 A 
HETATM    6  C   UNK N   1      34.066  14.854  10.594  0.00  0.00     0.110 A 
ENDROOT
BRANCH   5   7
HETATM    7  C   UNK N   1      32.989  15.715   8.466  0.00  0.00     0.102 C 
HETATM    8  N   UNK N   1      32.203  16.566   9.024  0.00  0.00    -0.365 N 
ATOM      9  HN  UNK N   1      32.411  16.842   9.983  1.00  0.00     0.165 HD
BRANCH   8  10
HETATM   10  C   UNK N   1      31.070  17.147   8.407  0.00  0.00     0.031 A 
HETATM   11  C   UNK N   1      30.226  18.048   9.079  0.00  0.00     0.030 A 
HETATM   12  C   UNK N   1      29.119  18.592   8.416  0.00  0.00     0.009 A 
HETATM   13  C   UNK N   1      28.854  18.239   7.088  0.00  0.00    -0.062 A 
HETATM   14  C   UNK N   1      27.680  18.813   6.379  0.00  0.00     0.048 C 
HETATM   15  C   UNK N   1      29.692  17.344   6.422  0.00  0.00     0.009 A 
HETATM   16  C   UNK N   1      30.794  16.802   7.080  0.00  0.00     0.030 A 
ENDBRANCH   8  10
ENDBRANCH   5   7
BRANCH   6  17
HETATM   17  O   UNK N   1      32.918  15.029  11.279  0.00  0.00    -0.357 OA
HETATM   18  H   UNK N   1      32.173  14.493  11.090  0.00  0.00     0.217 HD
ENDBRANCH   6  17
BRANCH   1  19
HETATM   19  O   UNK N   1      35.070  14.050  12.588  0.00  0.00    -0.353 OA
HETATM   20  C   UNK N   1      34.996  12.765  13.075  0.00  0.00     0.210 C 
ENDBRANCH   1  19
TORSDOF 4
ENDMDL
MODEL 5
REMARK VINA RESULT:      -6.0     11.990     13.824
REMARK  4 active torsions:
REMARK  status: ('A' for Active; 'I' for Inactive)
REMARK    1  A    between atoms: O_2  and  C_3 
REMARK    2  A    between atoms: C_7  and  C_8 
REMARK    3  A    between atoms: N_9  and  C_11 
REMARK    4  A    between atoms: C_18  and  O_19 
ROOT
HETATM    1  C   UNK N   1      33.618  15.198   8.756  0.00  0.00     0.102 A 
HETATM    2  C   UNK N   1      34.647  14.972   7.826  0.00  0.00     0.040 A 
HETATM    3  C   UNK N   1      35.835  14.354   8.222  0.00  0.00     0.004 A 
HETATM    4  C   UNK N   1      36.010  13.954   9.550  0.00  0.00     0.016 A 
HETATM    5  C   UNK N   1      34.997  14.169  10.493  0.00  0.00     0.015 A 
HETATM    6  C   UNK N   1      33.795  14.796  10.086  0.00  0.00     0.110 A 
ENDROOT
BRANCH   5   7
HETATM    7  C   UNK N   1      35.223  13.729  11.890  0.00  0.00     0.102 C 
HETATM    8  N   UNK N   1      34.609  12.693  12.342  0.00  0.00    -0.365 N 
ATOM      9  HN  UNK N   1      33.978  12.204  11.708  1.00  0.00     0.165 HD
BRANCH   8  10
HETATM   10  C   UNK N   1      34.743  12.181  13.654  0.00  0.00     0.031 A 
HETATM   11  C   UNK N   1      34.072  11.023  14.083  0.00  0.00     0.030 A 
HETATM   12  C   UNK N   1      34.245  10.563  15.394  0.00  0.00     0.009 A 
HETATM   13  C   UNK N   1      35.084  11.255  16.276  0.00  0.00    -0.062 A 
HETATM   14  C   UNK N   1      35.271  10.772  17.668  0.00  0.00     0.048 C 
HETATM   15  C   UNK N   1      35.750  12.405  15.849  0.00  0.00     0.009 A 
HETATM   16  C   UNK N   1      35.579  12.863  14.544  0.00  0.00     0.030 A 
ENDBRANCH   8  10
ENDBRANCH   5   7
BRANCH   6  17
HETATM   17  O   UNK N   1      32.799  15.019  10.966  0.00  0.00    -0.357 OA
HETATM   18  H   UNK N   1      32.226  14.320  11.213  0.00  0.00     0.217 HD
ENDBRANCH   6  17
BRANCH   1  19
HETATM   19  O   UNK N   1      32.457  15.795   8.400  0.00  0.00    -0.353 OA
HETATM   20  C   UNK N   1      32.306  17.157   8.281  0.00  0.00     0.210 C 
ENDBRANCH   1  19
TORSDOF 4
ENDMDL
MODEL 6
REMARK VINA RESULT:      -6.0      5.702      6.561
REMARK  4 active torsions:
REMARK  status: ('A' for Active; 'I' for Inactive)
REMARK    1  A    between atoms: O_2  and  C_3 
REMARK    2  A    between atoms: C_7  and  C_8 
REMARK    3  A    between atoms: N_9  and  C_11 
REMARK    4  A    between atoms: C_18  and  O_19 
ROOT
HETATM    1  C   UNK N   1      22.981  19.095   4.005  0.00  0.00     0.102 A 
HETATM    2  C   UNK N   1      23.079  20.119   3.048  0.00  0.00     0.040 A 
HETATM    3  C   UNK N   1      24.327  20.632   2.689  0.00  0.00     0.004 A 
HETATM    4  C   UNK N   1      25.490  20.130   3.280  0.00  0.00     0.016 A 
HETATM    5  C   UNK N   1      25.415  19.110   4.235  0.00  0.00     0.015 A 
HETATM    6  C   UNK N   1      24.147  18.593   4.596  0.00  0.00     0.110 A 
ENDROOT
BRANCH   5   7
HETATM    7  C   UNK N   1      26.672  18.606   4.837  0.00  0.00     0.102 C 
HETATM    8  N   UNK N   1      26.944  18.870   6.066  0.00  0.00    -0.365 N 
ATOM      9  HN  UNK N   1      26.270  19.428   6.589  1.00  0.00     0.165 HD
BRANCH   8  10
HETATM   10  C   UNK N   1      28.108  18.445   6.747  0.00  0.00     0.031 A 
HETATM   11  C   UNK N   1      28.360  18.778   8.089  0.00  0.00     0.030 A 
HETATM   12  C   UNK N   1      29.532  18.327   8.711  0.00  0.00     0.009 A 
HETATM   13  C   UNK N   1      30.449  17.547   7.997  0.00  0.00    -0.062 A 
HETATM   14  C   UNK N   1      31.693  17.066   8.651  0.00  0.00     0.048 C 
HETATM   15  C   UNK N   1      30.198  17.217   6.665  0.00  0.00     0.009 A 
HETATM   16  C   UNK N   1      29.033  17.665   6.045  0.00  0.00     0.030 A 
ENDBRANCH   8  10
ENDBRANCH   5   7
BRANCH   6  17
HETATM   17  O   UNK N   1      24.036  17.611   5.512  0.00  0.00    -0.357 OA
HETATM   18  H   UNK N   1      23.508  16.858   5.331  0.00  0.00     0.217 HD
ENDBRANCH   6  17
BRANCH   1  19
HETATM   19  O   UNK N   1      21.785  18.578   4.372  0.00  0.00    -0.353 OA
HETATM   20  C   UNK N   1      20.687  18.539   3.545  0.00  0.00     0.210 C 
ENDBRANCH   1  19
TORSDOF 4
ENDMDL
MODEL 7
REMARK VINA RESULT:      -5.9     16.429     16.944
REMARK  4 active torsions:
REMARK  status: ('A' for Active; 'I' for Inactive)
REMARK    1  A    between atoms: O_2  and  C_3 
REMARK    2  A    between atoms: C_7  and  C_8 
REMARK    3  A    between atoms: N_9  and  C_11 
REMARK    4  A    between atoms: C_18  and  O_19 
ROOT
HETATM    1  C   UNK N   1      26.900  27.404  -4.095  0.00  0.00     0.102 A 
HETATM    2  C   UNK N   1      25.716  27.985  -4.580  0.00  0.00     0.040 A 
HETATM    3  C   UNK N   1      24.876  27.268  -5.435  0.00  0.00     0.004 A 
HETATM    4  C   UNK N   1      25.208  25.964  -5.815  0.00  0.00     0.016 A 
HETATM    5  C   UNK N   1      26.383  25.366  -5.343  0.00  0.00     0.015 A 
HETATM    6  C   UNK N   1      27.231  26.098  -4.477  0.00  0.00     0.110 A 
ENDROOT
BRANCH   5   7
HETATM    7  C   UNK N   1      26.698  23.983  -5.770  0.00  0.00     0.102 C 
HETATM    8  N   UNK N   1      27.825  23.728  -6.335  0.00  0.00    -0.365 N 
ATOM      9  HN  UNK N   1      28.472  24.505  -6.470  1.00  0.00     0.165 HD
BRANCH   8  10
HETATM   10  C   UNK N   1      28.236  22.451  -6.784  0.00  0.00     0.031 A 
HETATM   11  C   UNK N   1      27.549  21.749  -7.788  0.00  0.00     0.030 A 
HETATM   12  C   UNK N   1      28.003  20.487  -8.191  0.00  0.00     0.009 A 
HETATM   13  C   UNK N   1      29.139  19.926  -7.595  0.00  0.00    -0.062 A 
HETATM   14  C   UNK N   1      29.625  18.588  -8.018  0.00  0.00     0.048 C 
HETATM   15  C   UNK N   1      29.820  20.625  -6.597  0.00  0.00     0.009 A 
HETATM   16  C   UNK N   1      29.369  21.881  -6.195  0.00  0.00     0.030 A 
ENDBRANCH   8  10
ENDBRANCH   5   7
BRANCH   6  17
HETATM   17  O   UNK N   1      28.370  25.556  -4.003  0.00  0.00    -0.357 OA
HETATM   18  H   UNK N   1      28.572  25.612  -3.090  0.00  0.00     0.217 HD
ENDBRANCH   6  17
BRANCH   1  19
HETATM   19  O   UNK N   1      27.733  28.076  -3.265  0.00  0.00    -0.353 OA
HETATM   20  C   UNK N   1      27.430  29.297  -2.709  0.00  0.00     0.210 C 
ENDBRANCH   1  19
TORSDOF 4
ENDMDL
MODEL 8
REMARK VINA RESULT:      -5.8     12.906     15.851
REMARK  4 active torsions:
REMARK  status: ('A' for Active; 'I' for Inactive)
REMARK    1  A    between atoms: O_2  and  C_3 
REMARK    2  A    between atoms: C_7  and  C_8 
REMARK    3  A    between atoms: N_9  and  C_11 
REMARK    4  A    between atoms: C_18  and  O_19 
ROOT
HETATM    1  C   UNK N   1      36.668  13.802  15.066  0.00  0.00     0.102 A 
HETATM    2  C   UNK N   1      36.126  12.620  15.599  0.00  0.00     0.040 A 
HETATM    3  C   UNK N   1      35.213  11.865  14.860  0.00  0.00     0.004 A 
HETATM    4  C   UNK N   1      34.831  12.280  13.581  0.00  0.00     0.016 A 
HETATM    5  C   UNK N   1      35.359  13.454  13.030  0.00  0.00     0.015 A 
HETATM    6  C   UNK N   1      36.284  14.216  13.785  0.00  0.00     0.110 A 
ENDROOT
BRANCH   5   7
HETATM    7  C   UNK N   1      34.928  13.859  11.672  0.00  0.00     0.102 C 
HETATM    8  N   UNK N   1      34.615  15.084  11.437  0.00  0.00    -0.365 N 
ATOM      9  HN  UNK N   1      34.678  15.744  12.212  1.00  0.00     0.165 HD
BRANCH   8  10
HETATM   10  C   UNK N   1      34.191  15.586  10.185  0.00  0.00     0.031 A 
HETATM   11  C   UNK N   1      33.215  14.942   9.406  0.00  0.00     0.030 A 
HETATM   12  C   UNK N   1      32.836  15.487   8.173  0.00  0.00     0.009 A 
HETATM   13  C   UNK N   1      33.428  16.672   7.718  0.00  0.00    -0.062 A 
HETATM   14  C   UNK N   1      33.029  17.255   6.411  0.00  0.00     0.048 C 
HETATM   15  C   UNK N   1      34.397  17.311   8.492  0.00  0.00     0.009 A 
HETATM   16  C   UNK N   1      34.775  16.769   9.719  0.00  0.00     0.030 A 
ENDBRANCH   8  10
ENDBRANCH   5   7
BRANCH   6  17
HETATM   17  O   UNK N   1      36.813  15.351  13.287  0.00  0.00    -0.357 OA
HETATM   18  H   UNK N   1      36.327  16.152  13.326  0.00  0.00     0.217 HD
ENDBRANCH   6  17
BRANCH   1  19
HETATM   19  O   UNK N   1      37.555  14.553  15.760  0.00  0.00    -0.353 OA
HETATM   20  C   UNK N   1      37.188  15.560  16.622  0.00  0.00     0.210 C 
ENDBRANCH   1  19
TORSDOF 4
ENDMDL
MODEL 9
REMARK VINA RESULT:      -5.7      7.262      8.171
REMARK  4 active torsions:
REMARK  status: ('A' for Active; 'I' for Inactive)
REMARK    1  A    between atoms: O_2  and  C_3 
REMARK    2  A    between atoms: C_7  and  C_8 
REMARK    3  A    between atoms: N_9  and  C_11 
REMARK    4  A    between atoms: C_18  and  O_19 
ROOT
HETATM    1  C   UNK N   1      24.547  18.790   4.380  0.00  0.00     0.102 A 
HETATM    2  C   UNK N   1      24.373  19.782   3.400  0.00  0.00     0.040 A 
HETATM    3  C   UNK N   1      25.465  20.523   2.943  0.00  0.00     0.004 A 
HETATM    4  C   UNK N   1      26.742  20.283   3.459  0.00  0.00     0.016 A 
HETATM    5  C   UNK N   1      26.938  19.299   4.436  0.00  0.00     0.015 A 
HETATM    6  C   UNK N   1      25.827  18.551   4.895  0.00  0.00     0.110 A 
ENDROOT
BRANCH   5   7
HETATM    7  C   UNK N   1      28.307  19.077   4.956  0.00  0.00     0.102 C 
HETATM    8  N   UNK N   1      28.857  17.920   4.836  0.00  0.00    -0.365 N 
ATOM      9  HN  UNK N   1      28.318  17.186   4.378  1.00  0.00     0.165 HD
BRANCH   8  10
HETATM   10  C   UNK N   1      30.155  17.590   5.292  0.00  0.00     0.031 A 
HETATM   11  C   UNK N   1      30.418  17.243   6.628  0.00  0.00     0.030 A 
HETATM   12  C   UNK N   1      31.724  16.925   7.021  0.00  0.00     0.009 A 
HETATM   13  C   UNK N   1      32.765  16.953   6.085  0.00  0.00    -0.062 A 
HETATM   14  C   UNK N   1      34.152  16.617   6.496  0.00  0.00     0.048 C 
HETATM   15  C   UNK N   1      32.502  17.298   4.759  0.00  0.00     0.009 A 
HETATM   16  C   UNK N   1      31.203  17.614   4.367  0.00  0.00     0.030 A 
ENDBRANCH   8  10
ENDBRANCH   5   7
BRANCH   6  17
HETATM   17  O   UNK N   1      25.978  17.596   5.835  0.00  0.00    -0.357 OA
HETATM   18  H   UNK N   1      25.234  17.289   6.315  0.00  0.00     0.217 HD
ENDBRANCH   6  17
BRANCH   1  19
HETATM   19  O   UNK N   1      23.506  18.056   4.841  0.00  0.00    -0.353 OA
HETATM   20  C   UNK N   1      22.620  17.394   4.023  0.00  0.00     0.210 C 
ENDBRANCH   1  19
TORSDOF 4
ENDMDL
