MODEL 1
REMARK VINA RESULT:      -1.3      0.000      0.000
REMARK  3 active torsions:
REMARK  status: ('A' for Active; 'I' for Inactive)
REMARK    1  A    between atoms: C_2  and  C_9 
REMARK    2  A    between atoms: C_13  and  C_20 
REMARK    3  A    between atoms: Mg_23  and  Mg_23 
ROOT
HETATM    1 Mg   UNK N   1      38.596  29.706  19.362  0.00  0.00     0.000 Mg
ENDROOT
TORSDOF 3
ENDMDL
MODEL 2
REMARK VINA RESULT:      -1.2     10.767     10.767
REMARK  3 active torsions:
REMARK  status: ('A' for Active; 'I' for Inactive)
REMARK    1  A    between atoms: C_2  and  C_9 
REMARK    2  A    between atoms: C_13  and  C_20 
REMARK    3  A    between atoms: Mg_23  and  Mg_23 
ROOT
HETATM    1 Mg   UNK N   1      39.964  21.073  13.075  0.00  0.00     0.000 Mg
ENDROOT
TORSDOF 3
ENDMDL
MODEL 3
REMARK VINA RESULT:      -1.2     11.042     11.042
REMARK  3 active torsions:
REMARK  status: ('A' for Active; 'I' for Inactive)
REMARK    1  A    between atoms: C_2  and  C_9 
REMARK    2  A    between atoms: C_13  and  C_20 
REMARK    3  A    between atoms: Mg_23  and  Mg_23 
ROOT
HETATM    1 Mg   UNK N   1      35.636  21.382  12.738  0.00  0.00     0.000 Mg
ENDROOT
TORSDOF 3
ENDMDL
MODEL 4
REMARK VINA RESULT:      -1.1     15.613     15.613
REMARK  3 active torsions:
REMARK  status: ('A' for Active; 'I' for Inactive)
REMARK    1  A    between atoms: C_2  and  C_9 
REMARK    2  A    between atoms: C_13  and  C_20 
REMARK    3  A    between atoms: Mg_23  and  Mg_23 
ROOT
HETATM    1 Mg   UNK N   1      43.320  25.304   5.147  0.00  0.00     0.000 Mg
ENDROOT
TORSDOF 3
ENDMDL
MODEL 5
REMARK VINA RESULT:      -1.1     17.064     17.064
REMARK  3 active torsions:
REMARK  status: ('A' for Active; 'I' for Inactive)
REMARK    1  A    between atoms: C_2  and  C_9 
REMARK    2  A    between atoms: C_13  and  C_20 
REMARK    3  A    between atoms: Mg_23  and  Mg_23 
ROOT
HETATM    1 Mg   UNK N   1      21.588  31.056  19.649  0.00  0.00     0.000 Mg
ENDROOT
TORSDOF 3
ENDMDL
MODEL 6
REMARK VINA RESULT:      -1.0      9.039      9.039
REMARK  3 active torsions:
REMARK  status: ('A' for Active; 'I' for Inactive)
REMARK    1  A    between atoms: C_2  and  C_9 
REMARK    2  A    between atoms: C_13  and  C_20 
REMARK    3  A    between atoms: Mg_23  and  Mg_23 
ROOT
HETATM    1 Mg   UNK N   1      41.691  21.639  22.017  0.00  0.00     0.000 Mg
ENDROOT
TORSDOF 3
ENDMDL
MODEL 7
REMARK VINA RESULT:      -1.0      4.994      4.994
REMARK  3 active torsions:
REMARK  status: ('A' for Active; 'I' for Inactive)
REMARK    1  A    between atoms: C_2  and  C_9 
REMARK    2  A    between atoms: C_13  and  C_20 
REMARK    3  A    between atoms: Mg_23  and  Mg_23 
ROOT
HETATM    1 Mg   UNK N   1      42.899  29.357  16.852  0.00  0.00     0.000 Mg
ENDROOT
TORSDOF 3
ENDMDL
MODEL 8
REMARK VINA RESULT:      -1.0     25.523     25.523
REMARK  3 active torsions:
REMARK  status: ('A' for Active; 'I' for Inactive)
REMARK    1  A    between atoms: C_2  and  C_9 
REMARK    2  A    between atoms: C_13  and  C_20 
REMARK    3  A    between atoms: Mg_23  and  Mg_23 
ROOT
HETATM    1 Mg   UNK N   1      17.312  25.062   6.062  0.00  0.00     0.000 Mg
ENDROOT
TORSDOF 3
ENDMDL
MODEL 9
REMARK VINA RESULT:      -1.0     10.229     10.229
REMARK  3 active torsions:
REMARK  status: ('A' for Active; 'I' for Inactive)
REMARK    1  A    between atoms: C_2  and  C_9 
REMARK    2  A    between atoms: C_13  and  C_20 
REMARK    3  A    between atoms: Mg_23  and  Mg_23 
ROOT
HETATM    1 Mg   UNK N   1      46.722  23.987  16.936  0.00  0.00     0.000 Mg
ENDROOT
TORSDOF 3
ENDMDL
