REMARK  6 active torsions:
REMARK  status: ('A' for Active; 'I' for Inactive)
REMARK    1  A    between atoms: C_18  and  C_13 
REMARK    2  A    between atoms: N_26  and  C_13 
REMARK    3  A    between atoms: C_17  and  C_16 
REMARK    4  A    between atoms: O_31  and  C_16 
REMARK    5  A    between atoms: O_30  and  C_25 
REMARK    6  A    between atoms: O_31  and  C_25 
ROOT
HETATM    1  C   UNK N   1       3.539  -3.173  -0.257  0.00  0.00     0.310 C 
HETATM    2  C   UNK N   1      -3.525   0.244  -0.017  0.00  0.00     0.155 C 
HETATM    3  C   UNK N   1      -0.131   3.206   0.295  0.00  0.00     0.003 A 
HETATM    4  C   UNK N   1       1.152   2.604   0.179  0.00  0.00     0.008 A 
HETATM    5  C   UNK N   1      -1.309   2.418   0.235  0.00  0.00     0.030 A 
HETATM    6  C   UNK N   1       3.753   1.006   0.492  0.00  0.00     0.019 C 
HETATM    7  C   UNK N   1       1.140  -1.752  -0.349  0.00  0.00     0.077 C 
HETATM    8  C   UNK N   1       4.694  -1.117  -0.586  0.00  0.00     0.278 C 
HETATM    9  C   UNK N   1      -1.425  -1.108  -0.226  0.00  0.00     0.098 A 
HETATM   10  C   UNK N   1       5.015   0.279  -0.007  0.00  0.00     0.032 C 
HETATM   11  C   UNK N   1      -0.055  -0.847  -0.211  0.00  0.00    -0.027 A 
HETATM   12  C   UNK N   1       1.252   1.206   0.032  0.00  0.00    -0.039 A 
HETATM   13  C   UNK N   1       2.526   0.433  -0.198  0.00  0.00     0.053 C 
HETATM   14  C   UNK N   1      -1.152   1.042   0.061  0.00  0.00     0.045 A 
HETATM   15  C   UNK N   1       2.381  -1.050   0.301  0.00  0.00     0.235 C 
HETATM   16  C   UNK N   1       0.077   0.493  -0.033  0.00  0.00     0.005 A 
HETATM   17  N   UNK N   1       3.670  -1.799   0.212  0.00  0.00     0.090 N 
HETATM   18  N   UNK N   1      -2.083   0.072  -0.054  0.00  0.00    -0.360 N 
ENDROOT
BRANCH  10  19
HETATM   19  C   UNK N   1       5.658   1.119  -1.113  0.00  0.00     0.130 C 
BRANCH  19  20
HETATM   20  N   UNK N   1       6.944   1.637  -0.701  0.00  0.00    -0.350 N 
HETATM   21  C   UNK N   1       7.126   2.640   0.098  0.00  0.00     0.258 C 
ATOM     22  HN  UNK N   1       7.775   1.174  -1.070  1.00  0.00     0.163 HD
BRANCH  21  23
HETATM   23  O   UNK N   1       8.383   2.947   0.467  0.00  0.00    -0.327 OA
HETATM   24  H   UNK N   1       9.006   2.296   0.724  0.00  0.00     0.221 HD
ENDBRANCH  21  23
BRANCH  21  25
HETATM   25  O   UNK N   1       6.104   3.383   0.606  0.00  0.00    -0.312 OA
BRANCH  25  26
HETATM   26  C   UNK N   1       4.969   3.716  -0.101  0.00  0.00     0.218 C 
BRANCH  26  27
HETATM   27  C   UNK N   1       4.761   5.192  -0.068  0.00  0.00    -0.034 A 
HETATM   28  C   UNK N   1       3.469   5.711   0.068  0.00  0.00     0.009 A 
HETATM   29  C   UNK N   1       3.270   7.096   0.084  0.00  0.00     0.001 A 
HETATM   30  C   UNK N   1       4.362   7.962  -0.027  0.00  0.00     0.000 A 
HETATM   31  C   UNK N   1       5.654   7.446  -0.159  0.00  0.00     0.001 A 
HETATM   32  C   UNK N   1       5.853   6.064  -0.187  0.00  0.00     0.009 A 
ENDBRANCH  26  27
ENDBRANCH  25  26
ENDBRANCH  21  25
ENDBRANCH  19  20
ENDBRANCH  10  19
TORSDOF 6
