MODEL 1
REMARK VINA RESULT:      -1.8      0.000      0.000
REMARK  6 active torsions:
REMARK  status: ('A' for Active; 'I' for Inactive)
REMARK    1  A    between atoms: O_2  and  Si_4 
REMARK    2  A    between atoms: Si_4  and  O_5 
REMARK    3  A    between atoms: Si_4  and  O_7 
REMARK    4  A    between atoms: Si_13  and  O_16 
REMARK    5  A    between atoms: Si_13  and  O_18 
REMARK    6  A    between atoms: Mg_20  and  Mg_20 
ROOT
HETATM    1  O   UNK N   1      35.458  22.121  12.850  0.00  0.00    -0.411 OA
HETATM    2  H   UNK N   1      35.350  21.739  11.965  0.00  0.00     0.205 HD
HETATM    3  H   UNK N   1      36.305  22.037  13.315  0.00  0.00     0.205 HD
ENDROOT
TORSDOF 6
ENDMDL
MODEL 2
REMARK VINA RESULT:      -1.5     19.772     19.772
REMARK  6 active torsions:
REMARK  status: ('A' for Active; 'I' for Inactive)
REMARK    1  A    between atoms: O_2  and  Si_4 
REMARK    2  A    between atoms: Si_4  and  O_5 
REMARK    3  A    between atoms: Si_4  and  O_7 
REMARK    4  A    between atoms: Si_13  and  O_16 
REMARK    5  A    between atoms: Si_13  and  O_18 
REMARK    6  A    between atoms: Mg_20  and  Mg_20 
ROOT
HETATM    1  O   UNK N   1      20.609  20.611  -0.117  0.00  0.00    -0.411 OA
HETATM    2  H   UNK N   1      20.909  20.097  -0.883  0.00  0.00     0.205 HD
HETATM    3  H   UNK N   1      21.258  21.007   0.485  0.00  0.00     0.205 HD
ENDROOT
TORSDOF 6
ENDMDL
MODEL 3
REMARK VINA RESULT:      -1.4     10.371     10.371
REMARK  6 active torsions:
REMARK  status: ('A' for Active; 'I' for Inactive)
REMARK    1  A    between atoms: O_2  and  Si_4 
REMARK    2  A    between atoms: Si_4  and  O_5 
REMARK    3  A    between atoms: Si_4  and  O_7 
REMARK    4  A    between atoms: Si_13  and  O_16 
REMARK    5  A    between atoms: Si_13  and  O_18 
REMARK    6  A    between atoms: Mg_20  and  Mg_20 
ROOT
HETATM    1  O   UNK N   1      41.252  21.761  21.445  0.00  0.00    -0.411 OA
HETATM    2  H   UNK N   1      41.144  21.379  20.560  0.00  0.00     0.205 HD
HETATM    3  H   UNK N   1      42.099  21.676  21.909  0.00  0.00     0.205 HD
ENDROOT
TORSDOF 6
ENDMDL
MODEL 4
REMARK VINA RESULT:      -1.3     18.829     18.829
REMARK  6 active torsions:
REMARK  status: ('A' for Active; 'I' for Inactive)
REMARK    1  A    between atoms: O_2  and  Si_4 
REMARK    2  A    between atoms: Si_4  and  O_5 
REMARK    3  A    between atoms: Si_4  and  O_7 
REMARK    4  A    between atoms: Si_13  and  O_16 
REMARK    5  A    between atoms: Si_13  and  O_18 
REMARK    6  A    between atoms: Mg_20  and  Mg_20 
ROOT
HETATM    1  O   UNK N   1      17.989  26.179   7.114  0.00  0.00    -0.411 OA
HETATM    2  H   UNK N   1      17.188  26.609   6.777  0.00  0.00     0.205 HD
HETATM    3  H   UNK N   1      18.612  25.762   6.498  0.00  0.00     0.205 HD
ENDROOT
TORSDOF 6
ENDMDL
MODEL 5
REMARK VINA RESULT:      -1.3     16.556     16.556
REMARK  6 active torsions:
REMARK  status: ('A' for Active; 'I' for Inactive)
REMARK    1  A    between atoms: O_2  and  Si_4 
REMARK    2  A    between atoms: Si_4  and  O_5 
REMARK    3  A    between atoms: Si_4  and  O_7 
REMARK    4  A    between atoms: Si_13  and  O_16 
REMARK    5  A    between atoms: Si_13  and  O_18 
REMARK    6  A    between atoms: Mg_20  and  Mg_20 
ROOT
HETATM    1  O   UNK N   1      19.138  19.834  11.257  0.00  0.00    -0.411 OA
HETATM    2  H   UNK N   1      18.312  20.204  10.908  0.00  0.00     0.205 HD
HETATM    3  H   UNK N   1      19.783  20.415  11.691  0.00  0.00     0.205 HD
ENDROOT
TORSDOF 6
ENDMDL
MODEL 6
REMARK VINA RESULT:      -1.2     11.320     11.320
REMARK  6 active torsions:
REMARK  status: ('A' for Active; 'I' for Inactive)
REMARK    1  A    between atoms: O_2  and  Si_4 
REMARK    2  A    between atoms: Si_4  and  O_5 
REMARK    3  A    between atoms: Si_4  and  O_7 
REMARK    4  A    between atoms: Si_13  and  O_16 
REMARK    5  A    between atoms: Si_13  and  O_18 
REMARK    6  A    between atoms: Mg_20  and  Mg_20 
ROOT
HETATM    1  O   UNK N   1      24.805  21.393   9.092  0.00  0.00    -0.411 OA
HETATM    2  H   UNK N   1      25.264  20.770   8.507  0.00  0.00     0.205 HD
HETATM    3  H   UNK N   1      23.846  21.515   9.014  0.00  0.00     0.205 HD
ENDROOT
TORSDOF 6
ENDMDL
MODEL 7
REMARK VINA RESULT:      -1.2     15.064     15.064
REMARK  6 active torsions:
REMARK  status: ('A' for Active; 'I' for Inactive)
REMARK    1  A    between atoms: O_2  and  Si_4 
REMARK    2  A    between atoms: Si_4  and  O_5 
REMARK    3  A    between atoms: Si_4  and  O_7 
REMARK    4  A    between atoms: Si_13  and  O_16 
REMARK    5  A    between atoms: Si_13  and  O_18 
REMARK    6  A    between atoms: Mg_20  and  Mg_20 
ROOT
HETATM    1  O   UNK N   1      32.865  21.100  -1.954  0.00  0.00    -0.411 OA
HETATM    2  H   UNK N   1      33.165  20.586  -2.720  0.00  0.00     0.205 HD
HETATM    3  H   UNK N   1      33.514  21.497  -1.351  0.00  0.00     0.205 HD
ENDROOT
TORSDOF 6
ENDMDL
MODEL 8
REMARK VINA RESULT:      -1.2     11.676     11.676
REMARK  6 active torsions:
REMARK  status: ('A' for Active; 'I' for Inactive)
REMARK    1  A    between atoms: O_2  and  Si_4 
REMARK    2  A    between atoms: Si_4  and  O_5 
REMARK    3  A    between atoms: Si_4  and  O_7 
REMARK    4  A    between atoms: Si_13  and  O_16 
REMARK    5  A    between atoms: Si_13  and  O_18 
REMARK    6  A    between atoms: Mg_20  and  Mg_20 
ROOT
HETATM    1  O   UNK N   1      26.791  14.395  11.614  0.00  0.00    -0.411 OA
HETATM    2  H   UNK N   1      26.145  14.954  12.073  0.00  0.00     0.205 HD
HETATM    3  H   UNK N   1      27.118  14.650  10.737  0.00  0.00     0.205 HD
ENDROOT
TORSDOF 6
ENDMDL
MODEL 9
REMARK VINA RESULT:      -1.2     16.936     16.936
REMARK  6 active torsions:
REMARK  status: ('A' for Active; 'I' for Inactive)
REMARK    1  A    between atoms: O_2  and  Si_4 
REMARK    2  A    between atoms: Si_4  and  O_5 
REMARK    3  A    between atoms: Si_4  and  O_7 
REMARK    4  A    between atoms: Si_13  and  O_16 
REMARK    5  A    between atoms: Si_13  and  O_18 
REMARK    6  A    between atoms: Mg_20  and  Mg_20 
ROOT
HETATM    1  O   UNK N   1      18.968  25.236  10.564  0.00  0.00    -0.411 OA
HETATM    2  H   UNK N   1      18.775  25.712  11.386  0.00  0.00     0.205 HD
HETATM    3  H   UNK N   1      18.465  24.438  10.336  0.00  0.00     0.205 HD
ENDROOT
TORSDOF 6
ENDMDL
