REMARK  6 active torsions:
REMARK  status: ('A' for Active; 'I' for Inactive)
REMARK    1  A    between atoms: C_1  and  C_13 
REMARK    2  A    between atoms: C_6  and  O_7 
REMARK    3  A    between atoms: C_13  and  C_14 
REMARK    4  A    between atoms: C_13  and  C_16 
REMARK    5  A    between atoms: C_16  and  C_17 
REMARK    6  A    between atoms: C_17  and  O_18 
ROOT
HETATM    1  C   UNK N   1      -0.783   0.032  -0.064  0.00  0.00    -0.052 A 
HETATM    2  C   UNK N   1       0.467  -0.549  -0.338  0.00  0.00     0.020 A 
HETATM    3  C   UNK N   1       1.647   0.176  -0.170  0.00  0.00    -0.025 A 
HETATM    4  C   UNK N   1       1.591   1.523   0.246  0.00  0.00    -0.023 A 
HETATM    5  C   UNK N   1       2.774   2.257   0.387  0.00  0.00     0.049 A 
HETATM    6  C   UNK N   1       4.014   1.657   0.130  0.00  0.00     0.069 A 
HETATM    7  C   UNK N   1       4.061   0.306  -0.264  0.00  0.00     0.037 A 
HETATM    8  C   UNK N   1       2.882  -0.427  -0.416  0.00  0.00     0.015 A 
HETATM    9  C   UNK N   1       0.354   2.112   0.518  0.00  0.00     0.013 A 
HETATM   10  C   UNK N   1      -0.824   1.367   0.378  0.00  0.00     0.008 A 
ENDROOT
BRANCH   1  11
HETATM   11  C   UNK N   1      -2.045  -0.800  -0.284  0.00  0.00     0.036 C 
BRANCH  11  12
HETATM   12  C   UNK N   1      -1.821  -2.219   0.256  0.00  0.00     0.006 C 
HETATM   13  C   UNK N   1      -2.273  -3.242  -0.769  0.00  0.00     0.006 C 
ENDBRANCH  11  12
BRANCH  11  14
HETATM   14  C   UNK N   1      -3.415  -0.214   0.210  0.00  0.00     0.046 C 
HETATM   15  C   UNK N   1      -4.537  -1.183  -0.140  0.00  0.00     0.027 C 
HETATM   16  C   UNK N   1      -3.386  -0.062   1.725  0.00  0.00     0.027 C 
BRANCH  14  17
HETATM   17  C   UNK N   1      -3.802   1.114  -0.411  0.00  0.00     0.148 C 
HETATM   18  O   UNK N   1      -3.114   1.640  -1.261  0.00  0.00    -0.649 OA
BRANCH  17  19
HETATM   19  O   UNK N   1      -4.957   1.708  -0.031  0.00  0.00    -0.776 OA
HETATM   20  H   UNK N   1      -5.001   2.606   0.232  0.00  0.00     0.167 HD
ENDBRANCH  17  19
ENDBRANCH  14  17
ENDBRANCH  11  14
ENDBRANCH   1  11
BRANCH   6  21
HETATM   21  O   UNK N   1       5.143   2.393   0.265  0.00  0.00    -0.356 OA
HETATM   22  C   UNK N   1       6.404   1.890   0.033  0.00  0.00     0.210 C 
ENDBRANCH   6  21
TORSDOF 6
