REMARK  4 active torsions:
REMARK  status: ('A' for Active; 'I' for Inactive)
REMARK    1  A    between atoms: C_15  and  C_6 
REMARK    2  A    between atoms: O_16  and  C_9 
REMARK    3  A    between atoms: O_17  and  C_10 
REMARK    4  A    between atoms: O_21  and  C_15 
ROOT
HETATM    1  C   UNK N   1       6.664   1.001   0.000  0.00  0.00     0.004 A 
HETATM    2  C   UNK N   1       5.461   0.301  -0.000  0.00  0.00     0.017 A 
HETATM    3  C   UNK N   1       6.658   2.394   0.000  0.00  0.00     0.037 A 
HETATM    4  C   UNK N   1       0.513   0.179  -0.000  0.00  0.00     0.035 A 
HETATM    5  C   UNK N   1      -0.807   2.196  -0.000  0.00  0.00     0.055 A 
HETATM    6  C   UNK N   1      -0.733   0.798  -0.000  0.00  0.00     0.041 A 
HETATM    7  C   UNK N   1       4.240   0.987  -0.000  0.00  0.00     0.032 A 
HETATM    8  C   UNK N   1       1.688   0.927  -0.000  0.00  0.00     0.033 A 
HETATM    9  C   UNK N   1       5.451   3.099   0.000  0.00  0.00     0.080 A 
HETATM   10  C   UNK N   1       0.361   2.969  -0.000  0.00  0.00     0.082 A 
HETATM   11  C   UNK N   1       4.220   2.400  -0.000  0.00  0.00     0.062 A 
HETATM   12  C   UNK N   1       1.630   2.338  -0.000  0.00  0.00     0.062 A 
HETATM   13  C   UNK N   1       2.981   0.222  -0.000  0.00  0.00     0.194 A 
HETATM   14  C   UNK N   1       2.906   3.115  -0.000  0.00  0.00     0.199 A 
HETATM   15  O   UNK N   1       3.009  -1.002  -0.000  0.00  0.00    -0.287 OA
HETATM   16  O   UNK N   1       2.875   4.338   0.000  0.00  0.00    -0.286 OA
ENDROOT
BRANCH   6  17
HETATM   17  C   UNK N   1      -1.951  -0.031   0.000  0.00  0.00     0.176 C 
HETATM   18  O   UNK N   1      -1.863  -1.250   0.000  0.00  0.00    -0.646 OA
BRANCH  17  19
HETATM   19  O   UNK N   1      -3.168   0.545   0.000  0.00  0.00    -0.773 OA
HETATM   20  H   UNK N   1      -3.244   1.479   0.000  0.00  0.00     0.167 HD
ENDBRANCH  17  19
ENDBRANCH   6  17
BRANCH  10  21
HETATM   21  O   UNK N   1       0.252   4.310  -0.000  0.00  0.00    -0.360 OA
HETATM   22  H   UNK N   1       1.023   4.843  -0.000  0.00  0.00     0.217 HD
ENDBRANCH  10  21
BRANCH   9  23
HETATM   23  O   UNK N   1       5.487   4.443   0.000  0.00  0.00    -0.360 OA
HETATM   24  H   UNK N   1       6.310   4.889   0.000  0.00  0.00     0.217 HD
ENDBRANCH   9  23
TORSDOF 4
