MODEL 1
REMARK VINA RESULT:      -6.9      0.000      0.000
REMARK  4 active torsions:
REMARK  status: ('A' for Active; 'I' for Inactive)
REMARK    1  A    between atoms: C_15  and  C_9 
REMARK    2  A    between atoms: O_16  and  C_10 
REMARK    3  A    between atoms: O_17  and  C_11 
REMARK    4  A    between atoms: O_20  and  C_15 
ROOT
HETATM    1  C   UNK N   1      31.775  15.777   6.768  0.00  0.00     0.003 A 
HETATM    2  C   UNK N   1      31.004  16.291   5.728  0.00  0.00     0.008 A 
HETATM    3  C   UNK N   1      31.531  16.181   8.078  0.00  0.00     0.037 A 
HETATM    4  C   UNK N   1      29.205  17.712   4.818  0.00  0.00     0.079 A 
HETATM    5  C   UNK N   1      27.385  19.170   4.039  0.00  0.00     0.027 A 
HETATM    6  C   UNK N   1      26.051  20.539   5.507  0.00  0.00     0.055 A 
HETATM    7  C   UNK N   1      29.985  17.209   5.987  0.00  0.00    -0.037 A 
HETATM    8  C   UNK N   1      28.119  18.694   5.119  0.00  0.00    -0.036 A 
HETATM    9  C   UNK N   1      26.354  20.087   4.216  0.00  0.00     0.041 A 
HETATM   10  C   UNK N   1      30.516  17.099   8.360  0.00  0.00     0.080 A 
HETATM   11  C   UNK N   1      26.778  20.073   6.611  0.00  0.00     0.081 A 
HETATM   12  C   UNK N   1      29.725  17.629   7.311  0.00  0.00     0.055 A 
HETATM   13  C   UNK N   1      27.828  19.138   6.427  0.00  0.00     0.055 A 
HETATM   14  C   UNK N   1      28.632  18.611   7.565  0.00  0.00     0.199 A 
HETATM   15  O   UNK N   1      28.395  18.983   8.707  0.00  0.00    -0.286 OA
ENDROOT
BRANCH   9  16
HETATM   16  C   UNK N   1      25.600  20.566   3.043  0.00  0.00     0.176 C 
HETATM   17  O   UNK N   1      26.161  21.227   2.182  0.00  0.00    -0.646 OA
BRANCH  16  18
HETATM   18  O   UNK N   1      24.291  20.281   2.910  0.00  0.00    -0.773 OA
HETATM   19  H   UNK N   1      23.673  20.621   3.526  0.00  0.00     0.167 HD
ENDBRANCH  16  18
ENDBRANCH   9  16
BRANCH  11  20
HETATM   20  O   UNK N   1      26.458  20.529   7.836  0.00  0.00    -0.360 OA
HETATM   21  H   UNK N   1      25.668  21.015   7.964  0.00  0.00     0.217 HD
ENDBRANCH  11  20
BRANCH  10  22
HETATM   22  O   UNK N   1      30.312  17.464   9.638  0.00  0.00    -0.360 OA
HETATM   23  H   UNK N   1      29.961  16.848  10.250  0.00  0.00     0.217 HD
ENDBRANCH  10  22
TORSDOF 4
ENDMDL
MODEL 2
REMARK VINA RESULT:      -6.8     10.117     12.067
REMARK  4 active torsions:
REMARK  status: ('A' for Active; 'I' for Inactive)
REMARK    1  A    between atoms: C_15  and  C_9 
REMARK    2  A    between atoms: O_16  and  C_10 
REMARK    3  A    between atoms: O_17  and  C_11 
REMARK    4  A    between atoms: O_20  and  C_15 
ROOT
HETATM    1  C   UNK N   1      32.353  20.931  -4.092  0.00  0.00     0.003 A 
HETATM    2  C   UNK N   1      31.475  21.091  -5.160  0.00  0.00     0.008 A 
HETATM    3  C   UNK N   1      32.090  21.557  -2.877  0.00  0.00     0.037 A 
HETATM    4  C   UNK N   1      29.438  21.997  -6.217  0.00  0.00     0.079 A 
HETATM    5  C   UNK N   1      27.379  22.964  -7.151  0.00  0.00     0.027 A 
HETATM    6  C   UNK N   1      25.887  24.388  -5.902  0.00  0.00     0.055 A 
HETATM    7  C   UNK N   1      30.328  21.876  -5.025  0.00  0.00    -0.037 A 
HETATM    8  C   UNK N   1      28.216  22.843  -6.048  0.00  0.00    -0.036 A 
HETATM    9  C   UNK N   1      26.218  23.728  -7.093  0.00  0.00     0.041 A 
HETATM   10  C   UNK N   1      30.948  22.347  -2.719  0.00  0.00     0.080 A 
HETATM   11  C   UNK N   1      26.717  24.280  -4.778  0.00  0.00     0.081 A 
HETATM   12  C   UNK N   1      30.046  22.518  -3.798  0.00  0.00     0.055 A 
HETATM   13  C   UNK N   1      27.900  23.500  -4.839  0.00  0.00     0.055 A 
HETATM   14  C   UNK N   1      28.816  23.352  -3.674  0.00  0.00     0.199 A 
HETATM   15  O   UNK N   1      28.559  23.914  -2.618  0.00  0.00    -0.286 OA
ENDROOT
BRANCH   9  16
HETATM   16  C   UNK N   1      25.357  23.830  -8.287  0.00  0.00     0.176 C 
HETATM   17  O   UNK N   1      24.508  22.978  -8.504  0.00  0.00    -0.646 OA
BRANCH  16  18
HETATM   18  O   UNK N   1      25.497  24.859  -9.144  0.00  0.00    -0.773 OA
HETATM   19  H   UNK N   1      26.001  25.609  -8.896  0.00  0.00     0.167 HD
ENDBRANCH  16  18
ENDBRANCH   9  16
BRANCH  11  20
HETATM   20  O   UNK N   1      26.368  24.927  -3.651  0.00  0.00    -0.360 OA
HETATM   21  H   UNK N   1      26.936  24.911  -2.906  0.00  0.00     0.217 HD
ENDBRANCH  11  20
BRANCH  10  22
HETATM   22  O   UNK N   1      30.729  22.935  -1.529  0.00  0.00    -0.360 OA
HETATM   23  H   UNK N   1      29.884  23.286  -1.328  0.00  0.00     0.217 HD
ENDBRANCH  10  22
TORSDOF 4
ENDMDL
MODEL 3
REMARK VINA RESULT:      -6.7     10.137     12.782
REMARK  4 active torsions:
REMARK  status: ('A' for Active; 'I' for Inactive)
REMARK    1  A    between atoms: C_15  and  C_9 
REMARK    2  A    between atoms: O_16  and  C_10 
REMARK    3  A    between atoms: O_17  and  C_11 
REMARK    4  A    between atoms: O_20  and  C_15 
ROOT
HETATM    1  C   UNK N   1      25.888  24.503  -6.811  0.00  0.00     0.003 A 
HETATM    2  C   UNK N   1      26.944  23.614  -6.991  0.00  0.00     0.008 A 
HETATM    3  C   UNK N   1      25.706  25.125  -5.579  0.00  0.00     0.037 A 
HETATM    4  C   UNK N   1      28.932  22.374  -6.219  0.00  0.00     0.079 A 
HETATM    5  C   UNK N   1      30.899  21.199  -5.326  0.00  0.00     0.027 A 
HETATM    6  C   UNK N   1      31.698  21.460  -3.067  0.00  0.00     0.055 A 
HETATM    7  C   UNK N   1      27.826  23.339  -5.945  0.00  0.00    -0.037 A 
HETATM    8  C   UNK N   1      29.864  22.095  -5.084  0.00  0.00    -0.036 A 
HETATM    9  C   UNK N   1      31.817  20.874  -4.334  0.00  0.00     0.041 A 
HETATM   10  C   UNK N   1      26.577  24.864  -4.517  0.00  0.00     0.080 A 
HETATM   11  C   UNK N   1      30.663  22.367  -2.800  0.00  0.00     0.081 A 
HETATM   12  C   UNK N   1      27.656  23.962  -4.688  0.00  0.00     0.055 A 
HETATM   13  C   UNK N   1      29.728  22.696  -3.814  0.00  0.00     0.055 A 
HETATM   14  C   UNK N   1      28.610  23.653  -3.584  0.00  0.00     0.199 A 
HETATM   15  O   UNK N   1      28.474  24.185  -2.490  0.00  0.00    -0.286 OA
ENDROOT
BRANCH   9  16
HETATM   16  C   UNK N   1      32.900  19.917  -4.633  0.00  0.00     0.176 C 
HETATM   17  O   UNK N   1      33.274  19.756  -5.785  0.00  0.00    -0.646 OA
BRANCH  16  18
HETATM   18  O   UNK N   1      33.485  19.216  -3.644  0.00  0.00    -0.773 OA
HETATM   19  H   UNK N   1      33.539  18.283  -3.700  0.00  0.00     0.167 HD
ENDBRANCH  16  18
ENDBRANCH   9  16
BRANCH  11  20
HETATM   20  O   UNK N   1      30.579  22.911  -1.573  0.00  0.00    -0.360 OA
HETATM   21  H   UNK N   1      29.746  22.990  -1.151  0.00  0.00     0.217 HD
ENDBRANCH  11  20
BRANCH  10  22
HETATM   22  O   UNK N   1      26.368  25.484  -3.343  0.00  0.00    -0.360 OA
HETATM   23  H   UNK N   1      25.503  25.752  -3.102  0.00  0.00     0.217 HD
ENDBRANCH  10  22
TORSDOF 4
ENDMDL
MODEL 4
REMARK VINA RESULT:      -6.7      1.841      6.081
REMARK  4 active torsions:
REMARK  status: ('A' for Active; 'I' for Inactive)
REMARK    1  A    between atoms: C_15  and  C_9 
REMARK    2  A    between atoms: O_16  and  C_10 
REMARK    3  A    between atoms: O_17  and  C_11 
REMARK    4  A    between atoms: O_20  and  C_15 
ROOT
HETATM    1  C   UNK N   1      26.616  20.467   4.311  0.00  0.00     0.003 A 
HETATM    2  C   UNK N   1      27.619  19.518   4.138  0.00  0.00     0.008 A 
HETATM    3  C   UNK N   1      26.236  20.850   5.595  0.00  0.00     0.037 A 
HETATM    4  C   UNK N   1      29.315  17.932   4.972  0.00  0.00     0.079 A 
HETATM    5  C   UNK N   1      30.971  16.388   5.931  0.00  0.00     0.027 A 
HETATM    6  C   UNK N   1      31.317  16.105   8.300  0.00  0.00     0.055 A 
HETATM    7  C   UNK N   1      28.250  18.942   5.243  0.00  0.00    -0.037 A 
HETATM    8  C   UNK N   1      29.977  17.330   6.170  0.00  0.00    -0.036 A 
HETATM    9  C   UNK N   1      31.645  15.771   6.979  0.00  0.00     0.041 A 
HETATM   10  C   UNK N   1      26.855  20.287   6.715  0.00  0.00     0.080 A 
HETATM   11  C   UNK N   1      30.318  17.052   8.564  0.00  0.00     0.081 A 
HETATM   12  C   UNK N   1      27.876  19.319   6.552  0.00  0.00     0.055 A 
HETATM   13  C   UNK N   1      29.632  17.680   7.493  0.00  0.00     0.055 A 
HETATM   14  C   UNK N   1      28.563  18.693   7.718  0.00  0.00     0.199 A 
HETATM   15  O   UNK N   1      28.250  19.010   8.858  0.00  0.00    -0.286 OA
ENDROOT
BRANCH   9  16
HETATM   16  C   UNK N   1      32.693  14.776   6.682  0.00  0.00     0.176 C 
HETATM   17  O   UNK N   1      33.836  15.141   6.449  0.00  0.00    -0.646 OA
BRANCH  16  18
HETATM   18  O   UNK N   1      32.402  13.462   6.665  0.00  0.00    -0.773 OA
HETATM   19  H   UNK N   1      32.451  12.961   7.455  0.00  0.00     0.167 HD
ENDBRANCH  16  18
ENDBRANCH   9  16
BRANCH  11  20
HETATM   20  O   UNK N   1      30.029  17.349   9.844  0.00  0.00    -0.360 OA
HETATM   21  H   UNK N   1      29.393  16.843  10.310  0.00  0.00     0.217 HD
ENDBRANCH  11  20
BRANCH  10  22
HETATM   22  O   UNK N   1      26.459  20.683   7.938  0.00  0.00    -0.360 OA
HETATM   23  H   UNK N   1      27.097  20.922   8.582  0.00  0.00     0.217 HD
ENDBRANCH  10  22
TORSDOF 4
ENDMDL
MODEL 5
REMARK VINA RESULT:      -6.7      9.967     11.339
REMARK  4 active torsions:
REMARK  status: ('A' for Active; 'I' for Inactive)
REMARK    1  A    between atoms: C_15  and  C_9 
REMARK    2  A    between atoms: O_16  and  C_10 
REMARK    3  A    between atoms: O_17  and  C_11 
REMARK    4  A    between atoms: O_20  and  C_15 
ROOT
HETATM    1  C   UNK N   1      33.103  19.662  -6.815  0.00  0.00     0.003 A 
HETATM    2  C   UNK N   1      31.939  20.416  -6.922  0.00  0.00     0.008 A 
HETATM    3  C   UNK N   1      33.742  19.541  -5.583  0.00  0.00     0.037 A 
HETATM    4  C   UNK N   1      30.151  21.846  -6.001  0.00  0.00     0.079 A 
HETATM    5  C   UNK N   1      28.430  23.261  -4.961  0.00  0.00     0.027 A 
HETATM    6  C   UNK N   1      28.421  23.851  -2.624  0.00  0.00     0.055 A 
HETATM    7  C   UNK N   1      31.402  21.056  -5.803  0.00  0.00    -0.037 A 
HETATM    8  C   UNK N   1      29.595  22.522  -4.789  0.00  0.00    -0.036 A 
HETATM    9  C   UNK N   1      27.835  23.926  -3.894  0.00  0.00     0.041 A 
HETATM   10  C   UNK N   1      33.222  20.173  -4.450  0.00  0.00     0.080 A 
HETATM   11  C   UNK N   1      29.596  23.112  -2.428  0.00  0.00     0.081 A 
HETATM   12  C   UNK N   1      32.038  20.944  -4.546  0.00  0.00     0.055 A 
HETATM   13  C   UNK N   1      30.200  22.434  -3.517  0.00  0.00     0.055 A 
HETATM   14  C   UNK N   1      31.448  21.635  -3.363  0.00  0.00     0.199 A 
HETATM   15  O   UNK N   1      31.988  21.547  -2.269  0.00  0.00    -0.286 OA
ENDROOT
BRANCH   9  16
HETATM   16  C   UNK N   1      26.599  24.699  -4.120  0.00  0.00     0.176 C 
HETATM   17  O   UNK N   1      26.349  25.671  -3.423  0.00  0.00    -0.646 OA
BRANCH  16  18
HETATM   18  O   UNK N   1      25.739  24.342  -5.092  0.00  0.00    -0.773 OA
HETATM   19  H   UNK N   1      25.034  24.914  -5.326  0.00  0.00     0.167 HD
ENDBRANCH  16  18
ENDBRANCH   9  16
BRANCH  11  20
HETATM   20  O   UNK N   1      30.131  23.061  -1.194  0.00  0.00    -0.360 OA
HETATM   21  H   UNK N   1      30.567  22.285  -0.904  0.00  0.00     0.217 HD
ENDBRANCH  11  20
BRANCH  10  22
HETATM   22  O   UNK N   1      33.868  20.032  -3.279  0.00  0.00    -0.360 OA
HETATM   23  H   UNK N   1      33.466  19.561  -2.576  0.00  0.00     0.217 HD
ENDBRANCH  10  22
TORSDOF 4
ENDMDL
MODEL 6
REMARK VINA RESULT:      -6.6      3.687      6.916
REMARK  4 active torsions:
REMARK  status: ('A' for Active; 'I' for Inactive)
REMARK    1  A    between atoms: C_15  and  C_9 
REMARK    2  A    between atoms: O_16  and  C_10 
REMARK    3  A    between atoms: O_17  and  C_11 
REMARK    4  A    between atoms: O_20  and  C_15 
ROOT
HETATM    1  C   UNK N   1      26.388  16.349   5.997  0.00  0.00     0.003 A 
HETATM    2  C   UNK N   1      27.405  16.672   6.891  0.00  0.00     0.008 A 
HETATM    3  C   UNK N   1      26.682  16.156   4.650  0.00  0.00     0.037 A 
HETATM    4  C   UNK N   1      29.755  17.153   7.470  0.00  0.00     0.079 A 
HETATM    5  C   UNK N   1      32.128  17.615   7.914  0.00  0.00     0.027 A 
HETATM    6  C   UNK N   1      33.835  17.585   6.212  0.00  0.00     0.055 A 
HETATM    7  C   UNK N   1      28.723  16.805   6.449  0.00  0.00    -0.037 A 
HETATM    8  C   UNK N   1      31.158  17.290   6.973  0.00  0.00    -0.036 A 
HETATM    9  C   UNK N   1      33.463  17.764   7.550  0.00  0.00     0.041 A 
HETATM   10  C   UNK N   1      27.994  16.284   4.186  0.00  0.00     0.080 A 
HETATM   11  C   UNK N   1      32.873  17.258   5.246  0.00  0.00     0.081 A 
HETATM   12  C   UNK N   1      29.038  16.612   5.085  0.00  0.00     0.055 A 
HETATM   13  C   UNK N   1      31.514  17.106   5.619  0.00  0.00     0.055 A 
HETATM   14  C   UNK N   1      30.452  16.759   4.634  0.00  0.00     0.199 A 
HETATM   15  O   UNK N   1      30.740  16.595   3.455  0.00  0.00    -0.286 OA
ENDROOT
BRANCH   9  16
HETATM   16  C   UNK N   1      34.461  18.109   8.580  0.00  0.00     0.176 C 
HETATM   17  O   UNK N   1      35.234  19.037   8.397  0.00  0.00    -0.646 OA
BRANCH  16  18
HETATM   18  O   UNK N   1      34.529  17.407   9.727  0.00  0.00    -0.773 OA
HETATM   19  H   UNK N   1      34.172  16.541   9.768  0.00  0.00     0.167 HD
ENDBRANCH  16  18
ENDBRANCH   9  16
BRANCH  11  20
HETATM   20  O   UNK N   1      33.267  17.093   3.970  0.00  0.00    -0.360 OA
HETATM   21  H   UNK N   1      33.302  16.234   3.597  0.00  0.00     0.217 HD
ENDBRANCH  11  20
BRANCH  10  22
HETATM   22  O   UNK N   1      28.238  16.089   2.877  0.00  0.00    -0.360 OA
HETATM   23  H   UNK N   1      28.751  15.356   2.600  0.00  0.00     0.217 HD
ENDBRANCH  10  22
TORSDOF 4
ENDMDL
MODEL 7
REMARK VINA RESULT:      -6.6      5.939      9.132
REMARK  4 active torsions:
REMARK  status: ('A' for Active; 'I' for Inactive)
REMARK    1  A    between atoms: C_15  and  C_9 
REMARK    2  A    between atoms: O_16  and  C_10 
REMARK    3  A    between atoms: O_17  and  C_11 
REMARK    4  A    between atoms: O_20  and  C_15 
ROOT
HETATM    1  C   UNK N   1      31.908  14.878   4.544  0.00  0.00     0.003 A 
HETATM    2  C   UNK N   1      32.194  14.264   5.760  0.00  0.00     0.008 A 
HETATM    3  C   UNK N   1      32.355  16.174   4.298  0.00  0.00     0.037 A 
HETATM    4  C   UNK N   1      33.192  14.208   8.015  0.00  0.00     0.079 A 
HETATM    5  C   UNK N   1      34.232  14.280  10.242  0.00  0.00     0.027 A 
HETATM    6  C   UNK N   1      35.438  16.187  11.090  0.00  0.00     0.055 A 
HETATM    7  C   UNK N   1      32.927  14.936   6.739  0.00  0.00    -0.037 A 
HETATM    8  C   UNK N   1      33.979  14.948   9.049  0.00  0.00    -0.036 A 
HETATM    9  C   UNK N   1      34.955  14.884  11.265  0.00  0.00     0.041 A 
HETATM   10  C   UNK N   1      33.091  16.865   5.264  0.00  0.00     0.080 A 
HETATM   11  C   UNK N   1      35.195  16.879   9.896  0.00  0.00     0.081 A 
HETATM   12  C   UNK N   1      33.388  16.251   6.506  0.00  0.00     0.055 A 
HETATM   13  C   UNK N   1      34.457  16.261   8.854  0.00  0.00     0.055 A 
HETATM   14  C   UNK N   1      34.170  16.951   7.565  0.00  0.00     0.199 A 
HETATM   15  O   UNK N   1      34.576  18.091   7.377  0.00  0.00    -0.286 OA
ENDROOT
BRANCH   9  16
HETATM   16  C   UNK N   1      35.201  14.141  12.516  0.00  0.00     0.176 C 
HETATM   17  O   UNK N   1      36.108  14.480  13.261  0.00  0.00    -0.646 OA
BRANCH  16  18
HETATM   18  O   UNK N   1      34.433  13.086  12.845  0.00  0.00    -0.773 OA
HETATM   19  H   UNK N   1      33.655  13.213  13.351  0.00  0.00     0.167 HD
ENDBRANCH  16  18
ENDBRANCH   9  16
BRANCH  11  20
HETATM   20  O   UNK N   1      35.673  18.130   9.762  0.00  0.00    -0.360 OA
HETATM   21  H   UNK N   1      35.462  18.633   9.001  0.00  0.00     0.217 HD
ENDBRANCH  11  20
BRANCH  10  22
HETATM   22  O   UNK N   1      33.504  18.115   4.989  0.00  0.00    -0.360 OA
HETATM   23  H   UNK N   1      34.213  18.253   4.391  0.00  0.00     0.217 HD
ENDBRANCH  10  22
TORSDOF 4
ENDMDL
MODEL 8
REMARK VINA RESULT:      -6.5      9.840     13.334
REMARK  4 active torsions:
REMARK  status: ('A' for Active; 'I' for Inactive)
REMARK    1  A    between atoms: C_15  and  C_9 
REMARK    2  A    between atoms: O_16  and  C_10 
REMARK    3  A    between atoms: O_17  and  C_11 
REMARK    4  A    between atoms: O_20  and  C_15 
ROOT
HETATM    1  C   UNK N   1      27.841  28.645  -6.415  0.00  0.00     0.003 A 
HETATM    2  C   UNK N   1      28.922  27.784  -6.252  0.00  0.00     0.008 A 
HETATM    3  C   UNK N   1      26.678  28.448  -5.675  0.00  0.00     0.037 A 
HETATM    4  C   UNK N   1      30.055  25.844  -5.234  0.00  0.00     0.079 A 
HETATM    5  C   UNK N   1      31.071  23.887  -4.145  0.00  0.00     0.027 A 
HETATM    6  C   UNK N   1      29.943  22.546  -2.490  0.00  0.00     0.055 A 
HETATM    7  C   UNK N   1      28.853  26.720  -5.350  0.00  0.00    -0.037 A 
HETATM    8  C   UNK N   1      29.958  24.711  -4.262  0.00  0.00    -0.036 A 
HETATM    9  C   UNK N   1      31.078  22.807  -3.268  0.00  0.00     0.041 A 
HETATM   10  C   UNK N   1      26.587  27.389  -4.767  0.00  0.00     0.080 A 
HETATM   11  C   UNK N   1      28.810  23.364  -2.592  0.00  0.00     0.081 A 
HETATM   12  C   UNK N   1      27.680  26.506  -4.591  0.00  0.00     0.055 A 
HETATM   13  C   UNK N   1      28.805  24.464  -3.487  0.00  0.00     0.055 A 
HETATM   14  C   UNK N   1      27.627  25.364  -3.634  0.00  0.00     0.199 A 
HETATM   15  O   UNK N   1      26.618  25.166  -2.970  0.00  0.00    -0.286 OA
ENDROOT
BRANCH   9  16
HETATM   16  C   UNK N   1      32.280  21.958  -3.174  0.00  0.00     0.176 C 
HETATM   17  O   UNK N   1      33.035  21.857  -4.129  0.00  0.00    -0.646 OA
BRANCH  16  18
HETATM   18  O   UNK N   1      32.556  21.288  -2.039  0.00  0.00    -0.773 OA
HETATM   19  H   UNK N   1      32.457  21.713  -1.209  0.00  0.00     0.167 HD
ENDBRANCH  16  18
ENDBRANCH   9  16
BRANCH  11  20
HETATM   20  O   UNK N   1      27.737  23.083  -1.829  0.00  0.00    -0.360 OA
HETATM   21  H   UNK N   1      27.817  22.488  -1.109  0.00  0.00     0.217 HD
ENDBRANCH  11  20
BRANCH  10  22
HETATM   22  O   UNK N   1      25.446  27.232  -4.071  0.00  0.00    -0.360 OA
HETATM   23  H   UNK N   1      25.344  27.650  -3.239  0.00  0.00     0.217 HD
ENDBRANCH  10  22
TORSDOF 4
ENDMDL
MODEL 9
REMARK VINA RESULT:      -6.5     11.945     15.399
REMARK  4 active torsions:
REMARK  status: ('A' for Active; 'I' for Inactive)
REMARK    1  A    between atoms: C_15  and  C_9 
REMARK    2  A    between atoms: O_16  and  C_10 
REMARK    3  A    between atoms: O_17  and  C_11 
REMARK    4  A    between atoms: O_20  and  C_15 
ROOT
HETATM    1  C   UNK N   1      34.294   7.696  19.725  0.00  0.00     0.003 A 
HETATM    2  C   UNK N   1      34.467   8.184  18.433  0.00  0.00     0.008 A 
HETATM    3  C   UNK N   1      34.395   8.560  20.812  0.00  0.00     0.037 A 
HETATM    4  C   UNK N   1      34.912   9.979  16.799  0.00  0.00     0.079 A 
HETATM    5  C   UNK N   1      35.366  11.855  15.277  0.00  0.00     0.027 A 
HETATM    6  C   UNK N   1      35.757  14.114  16.023  0.00  0.00     0.055 A 
HETATM    7  C   UNK N   1      34.741   9.535  18.215  0.00  0.00    -0.037 A 
HETATM    8  C   UNK N   1      35.205  11.430  16.591  0.00  0.00    -0.036 A 
HETATM    9  C   UNK N   1      35.641  13.186  14.980  0.00  0.00     0.041 A 
HETATM   10  C   UNK N   1      34.669   9.916  20.617  0.00  0.00     0.080 A 
HETATM   11  C   UNK N   1      35.597  13.707  17.355  0.00  0.00     0.081 A 
HETATM   12  C   UNK N   1      34.846  10.425  19.307  0.00  0.00     0.055 A 
HETATM   13  C   UNK N   1      35.317  12.350  17.655  0.00  0.00     0.055 A 
HETATM   14  C   UNK N   1      35.139  11.865  19.052  0.00  0.00     0.199 A 
HETATM   15  O   UNK N   1      35.233  12.647  19.989  0.00  0.00    -0.286 OA
ENDROOT
BRANCH   9  16
HETATM   16  C   UNK N   1      35.805  13.596  13.572  0.00  0.00     0.176 C 
HETATM   17  O   UNK N   1      34.823  13.793  12.874  0.00  0.00    -0.646 OA
BRANCH  16  18
HETATM   18  O   UNK N   1      37.034  13.755  13.047  0.00  0.00    -0.773 OA
HETATM   19  H   UNK N   1      37.551  13.005  12.828  0.00  0.00     0.167 HD
ENDBRANCH  16  18
ENDBRANCH   9  16
BRANCH  11  20
HETATM   20  O   UNK N   1      35.715  14.626  18.331  0.00  0.00    -0.360 OA
HETATM   21  H   UNK N   1      34.963  14.881  18.828  0.00  0.00     0.217 HD
ENDBRANCH  11  20
BRANCH  10  22
HETATM   22  O   UNK N   1      34.758  10.718  21.693  0.00  0.00    -0.360 OA
HETATM   23  H   UNK N   1      34.257  10.528  22.462  0.00  0.00     0.217 HD
ENDBRANCH  10  22
TORSDOF 4
ENDMDL
