MODEL 1
REMARK VINA RESULT:      -1.8      0.000      0.000
REMARK  1 active torsions:
REMARK  status: ('A' for Active; 'I' for Inactive)
REMARK    1  A    between atoms: Fe_8  and  Fe_8 
ROOT
HETATM    1  O   UNK N   1      35.458  22.121  12.850  0.00  0.00    -0.411 OA
HETATM    2  H   UNK N   1      34.840  22.091  12.104  0.00  0.00     0.205 HD
HETATM    3  H   UNK N   1      36.166  22.784  12.867  0.00  0.00     0.205 HD
ENDROOT
TORSDOF 1
ENDMDL
MODEL 2
REMARK VINA RESULT:      -1.5     19.772     19.772
REMARK  1 active torsions:
REMARK  status: ('A' for Active; 'I' for Inactive)
REMARK    1  A    between atoms: Fe_8  and  Fe_8 
ROOT
HETATM    1  O   UNK N   1      20.609  20.611  -0.117  0.00  0.00    -0.411 OA
HETATM    2  H   UNK N   1      20.079  21.353  -0.448  0.00  0.00     0.205 HD
HETATM    3  H   UNK N   1      20.471  19.719  -0.473  0.00  0.00     0.205 HD
ENDROOT
TORSDOF 1
ENDMDL
MODEL 3
REMARK VINA RESULT:      -1.4     10.371     10.371
REMARK  1 active torsions:
REMARK  status: ('A' for Active; 'I' for Inactive)
REMARK    1  A    between atoms: Fe_8  and  Fe_8 
ROOT
HETATM    1  O   UNK N   1      41.252  21.761  21.445  0.00  0.00    -0.411 OA
HETATM    2  H   UNK N   1      41.281  22.404  22.171  0.00  0.00     0.205 HD
HETATM    3  H   UNK N   1      41.102  20.822  21.634  0.00  0.00     0.205 HD
ENDROOT
TORSDOF 1
ENDMDL
MODEL 4
REMARK VINA RESULT:      -1.3     14.742     14.742
REMARK  1 active torsions:
REMARK  status: ('A' for Active; 'I' for Inactive)
REMARK    1  A    between atoms: Fe_8  and  Fe_8 
ROOT
HETATM    1  O   UNK N   1      47.532  19.043  20.730  0.00  0.00    -0.411 OA
HETATM    2  H   UNK N   1      46.913  19.013  19.983  0.00  0.00     0.205 HD
HETATM    3  H   UNK N   1      48.240  19.706  20.746  0.00  0.00     0.205 HD
ENDROOT
TORSDOF 1
ENDMDL
MODEL 5
REMARK VINA RESULT:      -1.3      5.089      5.089
REMARK  1 active torsions:
REMARK  status: ('A' for Active; 'I' for Inactive)
REMARK    1  A    between atoms: Fe_8  and  Fe_8 
ROOT
HETATM    1  O   UNK N   1      35.400  19.346   8.585  0.00  0.00    -0.411 OA
HETATM    2  H   UNK N   1      36.015  19.026   9.263  0.00  0.00     0.205 HD
HETATM    3  H   UNK N   1      34.642  18.801   8.321  0.00  0.00     0.205 HD
ENDROOT
TORSDOF 1
ENDMDL
MODEL 6
REMARK VINA RESULT:      -1.3     19.931     19.931
REMARK  1 active torsions:
REMARK  status: ('A' for Active; 'I' for Inactive)
REMARK    1  A    between atoms: Fe_8  and  Fe_8 
ROOT
HETATM    1  O   UNK N   1      20.344  24.379   0.055  0.00  0.00    -0.411 OA
HETATM    2  H   UNK N   1      19.725  24.349  -0.692  0.00  0.00     0.205 HD
HETATM    3  H   UNK N   1      21.052  25.041   0.072  0.00  0.00     0.205 HD
ENDROOT
TORSDOF 1
ENDMDL
MODEL 7
REMARK VINA RESULT:      -1.3     16.556     16.556
REMARK  1 active torsions:
REMARK  status: ('A' for Active; 'I' for Inactive)
REMARK    1  A    between atoms: Fe_8  and  Fe_8 
ROOT
HETATM    1  O   UNK N   1      19.138  19.834  11.257  0.00  0.00    -0.411 OA
HETATM    2  H   UNK N   1      19.166  20.477  11.984  0.00  0.00     0.205 HD
HETATM    3  H   UNK N   1      18.987  18.895  11.446  0.00  0.00     0.205 HD
ENDROOT
TORSDOF 1
ENDMDL
MODEL 8
REMARK VINA RESULT:      -1.2     11.320     11.320
REMARK  1 active torsions:
REMARK  status: ('A' for Active; 'I' for Inactive)
REMARK    1  A    between atoms: Fe_8  and  Fe_8 
ROOT
HETATM    1  O   UNK N   1      24.805  21.393   9.092  0.00  0.00    -0.411 OA
HETATM    2  H   UNK N   1      24.771  20.742   8.373  0.00  0.00     0.205 HD
HETATM    3  H   UNK N   1      25.012  21.107   9.995  0.00  0.00     0.205 HD
ENDROOT
TORSDOF 1
ENDMDL
MODEL 9
REMARK VINA RESULT:      -1.2     13.999     13.999
REMARK  1 active torsions:
REMARK  status: ('A' for Active; 'I' for Inactive)
REMARK    1  A    between atoms: Fe_8  and  Fe_8 
ROOT
HETATM    1  O   UNK N   1      47.638  28.502  15.479  0.00  0.00    -0.411 OA
HETATM    2  H   UNK N   1      47.603  27.851  14.761  0.00  0.00     0.205 HD
HETATM    3  H   UNK N   1      47.845  28.216  16.383  0.00  0.00     0.205 HD
ENDROOT
TORSDOF 1
ENDMDL
