MODEL 1
REMARK VINA RESULT:      -5.3      0.000      0.000
REMARK  4 active torsions:
REMARK  status: ('A' for Active; 'I' for Inactive)
REMARK    1  A    between atoms: C_1  and  C_2 
REMARK    2  A    between atoms: C_1  and  O_12 
REMARK    3  A    between atoms: C_2  and  O_13 
REMARK    4  A    between atoms: C_3  and  O_13 
ROOT
HETATM    1  C   UNK N   1      34.901  12.298  15.882  0.00  0.00     0.081 A 
HETATM    2  C   UNK N   1      34.642  10.970  15.487  0.00  0.00    -0.028 A 
HETATM    3  C   UNK N   1      34.659   9.935  16.426  0.00  0.00     0.009 A 
HETATM    4  C   UNK N   1      34.933  10.205  17.764  0.00  0.00     0.001 A 
HETATM    5  C   UNK N   1      35.191  11.511  18.174  0.00  0.00     0.009 A 
HETATM    6  C   UNK N   1      35.180  12.563  17.255  0.00  0.00    -0.028 A 
HETATM    7  C   UNK N   1      34.345  10.641  14.063  0.00  0.00     0.051 C 
HETATM    8  C   UNK N   1      35.468  13.926  17.790  0.00  0.00     0.051 C 
ENDROOT
BRANCH   1   9
HETATM    9  O   UNK N   1      34.869  13.261  14.918  0.00  0.00    -0.340 OA
BRANCH   9  10
HETATM   10  C   UNK N   1      35.967  13.825  14.311  0.00  0.00     0.285 C 
BRANCH  10  11
HETATM   11  C   UNK N   1      35.643  14.255  12.922  0.00  0.00     0.164 C 
HETATM   12  O   UNK N   1      34.621  13.843  12.391  0.00  0.00    -0.648 OA
BRANCH  11  13
HETATM   13  O   UNK N   1      36.458  15.086  12.249  0.00  0.00    -0.775 OA
HETATM   14  H   UNK N   1      37.157  15.521  12.696  0.00  0.00     0.167 HD
ENDBRANCH  11  13
ENDBRANCH  10  11
ENDBRANCH   9  10
ENDBRANCH   1   9
TORSDOF 4
ENDMDL
MODEL 2
REMARK VINA RESULT:      -5.3      0.085      2.410
REMARK  4 active torsions:
REMARK  status: ('A' for Active; 'I' for Inactive)
REMARK    1  A    between atoms: C_1  and  C_2 
REMARK    2  A    between atoms: C_1  and  O_12 
REMARK    3  A    between atoms: C_2  and  O_13 
REMARK    4  A    between atoms: C_3  and  O_13 
ROOT
HETATM    1  C   UNK N   1      34.915  12.254  15.910  0.00  0.00     0.081 A 
HETATM    2  C   UNK N   1      35.187  12.516  17.268  0.00  0.00    -0.028 A 
HETATM    3  C   UNK N   1      35.195  11.477  18.202  0.00  0.00     0.009 A 
HETATM    4  C   UNK N   1      34.935  10.170  17.802  0.00  0.00     0.001 A 
HETATM    5  C   UNK N   1      34.664   9.890  16.464  0.00  0.00     0.009 A 
HETATM    6  C   UNK N   1      34.650  10.911  15.510  0.00  0.00    -0.028 A 
HETATM    7  C   UNK N   1      35.470  13.903  17.736  0.00  0.00     0.051 C 
HETATM    8  C   UNK N   1      34.350  10.512  14.103  0.00  0.00     0.051 C 
ENDROOT
BRANCH   1   9
HETATM    9  O   UNK N   1      34.922  13.310  15.048  0.00  0.00    -0.340 OA
BRANCH   9  10
HETATM   10  C   UNK N   1      36.022  13.788  14.375  0.00  0.00     0.285 C 
BRANCH  10  11
HETATM   11  C   UNK N   1      35.654  14.221  12.998  0.00  0.00     0.164 C 
HETATM   12  O   UNK N   1      34.635  13.781  12.484  0.00  0.00    -0.648 OA
BRANCH  11  13
HETATM   13  O   UNK N   1      36.426  15.086  12.317  0.00  0.00    -0.775 OA
HETATM   14  H   UNK N   1      37.003  15.663  12.778  0.00  0.00     0.167 HD
ENDBRANCH  11  13
ENDBRANCH  10  11
ENDBRANCH   9  10
ENDBRANCH   1   9
TORSDOF 4
ENDMDL
MODEL 3
REMARK VINA RESULT:      -5.2      1.066      2.765
REMARK  4 active torsions:
REMARK  status: ('A' for Active; 'I' for Inactive)
REMARK    1  A    between atoms: C_1  and  C_2 
REMARK    2  A    between atoms: C_1  and  O_12 
REMARK    3  A    between atoms: C_2  and  O_13 
REMARK    4  A    between atoms: C_3  and  O_13 
ROOT
HETATM    1  C   UNK N   1      35.235  12.632  17.107  0.00  0.00     0.081 A 
HETATM    2  C   UNK N   1      35.264  13.328  18.332  0.00  0.00    -0.028 A 
HETATM    3  C   UNK N   1      35.245  12.631  19.543  0.00  0.00     0.009 A 
HETATM    4  C   UNK N   1      35.198  11.240  19.553  0.00  0.00     0.001 A 
HETATM    5  C   UNK N   1      35.169  10.534  18.353  0.00  0.00     0.009 A 
HETATM    6  C   UNK N   1      35.187  11.206  17.128  0.00  0.00    -0.028 A 
HETATM    7  C   UNK N   1      35.315  14.817  18.363  0.00  0.00     0.051 C 
HETATM    8  C   UNK N   1      35.153  10.364  15.897  0.00  0.00     0.051 C 
ENDROOT
BRANCH   1   9
HETATM    9  O   UNK N   1      35.256  13.369  15.961  0.00  0.00    -0.340 OA
BRANCH   9  10
HETATM   10  C   UNK N   1      36.361  13.601  15.176  0.00  0.00     0.285 C 
BRANCH  10  11
HETATM   11  C   UNK N   1      35.977  13.736  13.743  0.00  0.00     0.164 C 
HETATM   12  O   UNK N   1      34.833  13.466  13.403  0.00  0.00    -0.648 OA
BRANCH  11  13
HETATM   13  O   UNK N   1      36.867  14.149  12.825  0.00  0.00    -0.775 OA
HETATM   14  H   UNK N   1      37.479  14.827  13.037  0.00  0.00     0.167 HD
ENDBRANCH  11  13
ENDBRANCH  10  11
ENDBRANCH   9  10
ENDBRANCH   1   9
TORSDOF 4
ENDMDL
MODEL 4
REMARK VINA RESULT:      -5.2     13.339     14.558
REMARK  4 active torsions:
REMARK  status: ('A' for Active; 'I' for Inactive)
REMARK    1  A    between atoms: C_1  and  C_2 
REMARK    2  A    between atoms: C_1  and  O_12 
REMARK    3  A    between atoms: C_2  and  O_13 
REMARK    4  A    between atoms: C_3  and  O_13 
ROOT
HETATM    1  C   UNK N   1      22.126  12.416   9.833  0.00  0.00     0.081 A 
HETATM    2  C   UNK N   1      21.800  12.145  11.177  0.00  0.00    -0.028 A 
HETATM    3  C   UNK N   1      22.808  11.927  12.120  0.00  0.00     0.009 A 
HETATM    4  C   UNK N   1      24.147  11.975  11.742  0.00  0.00     0.001 A 
HETATM    5  C   UNK N   1      24.489  12.241  10.418  0.00  0.00     0.009 A 
HETATM    6  C   UNK N   1      23.501  12.463   9.456  0.00  0.00    -0.028 A 
HETATM    7  C   UNK N   1      20.378  12.086  11.621  0.00  0.00     0.051 C 
HETATM    8  C   UNK N   1      23.966  12.741   8.065  0.00  0.00     0.051 C 
ENDROOT
BRANCH   1   9
HETATM    9  O   UNK N   1      21.097  12.621   8.962  0.00  0.00    -0.340 OA
BRANCH   9  10
HETATM   10  C   UNK N   1      20.926  13.732   8.170  0.00  0.00     0.285 C 
BRANCH  10  11
HETATM   11  C   UNK N   1      20.246  14.822   8.926  0.00  0.00     0.164 C 
HETATM   12  O   UNK N   1      19.254  14.559   9.592  0.00  0.00    -0.648 OA
BRANCH  11  13
HETATM   13  O   UNK N   1      20.707  16.083   8.884  0.00  0.00    -0.775 OA
HETATM   14  H   UNK N   1      20.836  16.508   8.059  0.00  0.00     0.167 HD
ENDBRANCH  11  13
ENDBRANCH  10  11
ENDBRANCH   9  10
ENDBRANCH   1   9
TORSDOF 4
ENDMDL
MODEL 5
REMARK VINA RESULT:      -5.0     16.892     18.673
REMARK  4 active torsions:
REMARK  status: ('A' for Active; 'I' for Inactive)
REMARK    1  A    between atoms: C_1  and  C_2 
REMARK    2  A    between atoms: C_1  and  O_12 
REMARK    3  A    between atoms: C_2  and  O_13 
REMARK    4  A    between atoms: C_3  and  O_13 
ROOT
HETATM    1  C   UNK N   1      42.710  22.798   2.609  0.00  0.00     0.081 A 
HETATM    2  C   UNK N   1      41.446  22.747   1.987  0.00  0.00    -0.028 A 
HETATM    3  C   UNK N   1      40.645  21.608   2.103  0.00  0.00     0.009 A 
HETATM    4  C   UNK N   1      41.087  20.510   2.835  0.00  0.00     0.001 A 
HETATM    5  C   UNK N   1      42.333  20.541   3.457  0.00  0.00     0.009 A 
HETATM    6  C   UNK N   1      43.153  21.668   3.357  0.00  0.00    -0.028 A 
HETATM    7  C   UNK N   1      40.937  23.903   1.195  0.00  0.00     0.051 C 
HETATM    8  C   UNK N   1      44.469  21.606   4.057  0.00  0.00     0.051 C 
ENDROOT
BRANCH   1   9
HETATM    9  O   UNK N   1      43.443  23.938   2.458  0.00  0.00    -0.340 OA
BRANCH   9  10
HETATM   10  C   UNK N   1      44.496  24.105   1.589  0.00  0.00     0.285 C 
BRANCH  10  11
HETATM   11  C   UNK N   1      45.500  25.052   2.149  0.00  0.00     0.164 C 
HETATM   12  O   UNK N   1      45.332  26.255   2.007  0.00  0.00    -0.648 OA
BRANCH  11  13
HETATM   13  O   UNK N   1      46.584  24.601   2.804  0.00  0.00    -0.775 OA
HETATM   14  H   UNK N   1      47.267  25.196   3.046  0.00  0.00     0.167 HD
ENDBRANCH  11  13
ENDBRANCH  10  11
ENDBRANCH   9  10
ENDBRANCH   1   9
TORSDOF 4
ENDMDL
MODEL 6
REMARK VINA RESULT:      -5.0      9.531     11.583
REMARK  4 active torsions:
REMARK  status: ('A' for Active; 'I' for Inactive)
REMARK    1  A    between atoms: C_1  and  C_2 
REMARK    2  A    between atoms: C_1  and  O_12 
REMARK    3  A    between atoms: C_2  and  O_13 
REMARK    4  A    between atoms: C_3  and  O_13 
ROOT
HETATM    1  C   UNK N   1      30.948  17.374   6.578  0.00  0.00     0.081 A 
HETATM    2  C   UNK N   1      30.752  17.308   5.184  0.00  0.00    -0.028 A 
HETATM    3  C   UNK N   1      31.845  17.321   4.313  0.00  0.00     0.009 A 
HETATM    4  C   UNK N   1      33.141  17.399   4.813  0.00  0.00     0.001 A 
HETATM    5  C   UNK N   1      33.356  17.466   6.188  0.00  0.00     0.009 A 
HETATM    6  C   UNK N   1      32.281  17.455   7.080  0.00  0.00    -0.028 A 
HETATM    7  C   UNK N   1      29.379  17.223   4.609  0.00  0.00     0.051 C 
HETATM    8  C   UNK N   1      32.612  17.529   8.533  0.00  0.00     0.051 C 
ENDROOT
BRANCH   1   9
HETATM    9  O   UNK N   1      29.842  17.358   7.374  0.00  0.00    -0.340 OA
BRANCH   9  10
HETATM   10  C   UNK N   1      29.123  18.462   7.771  0.00  0.00     0.285 C 
BRANCH  10  11
HETATM   11  C   UNK N   1      28.688  18.328   9.190  0.00  0.00     0.164 C 
HETATM   12  O   UNK N   1      29.468  18.620  10.085  0.00  0.00    -0.648 OA
BRANCH  11  13
HETATM   13  O   UNK N   1      27.452  17.894   9.494  0.00  0.00    -0.775 OA
HETATM   14  H   UNK N   1      27.247  16.982   9.429  0.00  0.00     0.167 HD
ENDBRANCH  11  13
ENDBRANCH  10  11
ENDBRANCH   9  10
ENDBRANCH   1   9
TORSDOF 4
ENDMDL
MODEL 7
REMARK VINA RESULT:      -4.9      9.371     11.651
REMARK  4 active torsions:
REMARK  status: ('A' for Active; 'I' for Inactive)
REMARK    1  A    between atoms: C_1  and  C_2 
REMARK    2  A    between atoms: C_1  and  O_12 
REMARK    3  A    between atoms: C_2  and  O_13 
REMARK    4  A    between atoms: C_3  and  O_13 
ROOT
HETATM    1  C   UNK N   1      31.154  17.313   6.992  0.00  0.00     0.081 A 
HETATM    2  C   UNK N   1      32.542  17.450   7.189  0.00  0.00    -0.028 A 
HETATM    3  C   UNK N   1      33.410  17.517   6.096  0.00  0.00     0.009 A 
HETATM    4  C   UNK N   1      32.911  17.451   4.798  0.00  0.00     0.001 A 
HETATM    5  C   UNK N   1      31.542  17.315   4.582  0.00  0.00     0.009 A 
HETATM    6  C   UNK N   1      30.653  17.245   5.658  0.00  0.00    -0.028 A 
HETATM    7  C   UNK N   1      33.114  17.524   8.564  0.00  0.00     0.051 C 
HETATM    8  C   UNK N   1      29.205  17.101   5.326  0.00  0.00     0.051 C 
ENDROOT
BRANCH   1   9
HETATM    9  O   UNK N   1      30.361  17.252   8.099  0.00  0.00    -0.340 OA
BRANCH   9  10
HETATM   10  C   UNK N   1      29.931  18.330   8.837  0.00  0.00     0.285 C 
BRANCH  10  11
HETATM   11  C   UNK N   1      28.480  18.584   8.610  0.00  0.00     0.164 C 
HETATM   12  O   UNK N   1      28.139  19.336   7.708  0.00  0.00    -0.648 OA
BRANCH  11  13
HETATM   13  O   UNK N   1      27.548  17.999   9.382  0.00  0.00    -0.775 OA
HETATM   14  H   UNK N   1      27.790  17.620  10.204  0.00  0.00     0.167 HD
ENDBRANCH  11  13
ENDBRANCH  10  11
ENDBRANCH   9  10
ENDBRANCH   1   9
TORSDOF 4
ENDMDL
MODEL 8
REMARK VINA RESULT:      -4.9     16.826     18.676
REMARK  4 active torsions:
REMARK  status: ('A' for Active; 'I' for Inactive)
REMARK    1  A    between atoms: C_1  and  C_2 
REMARK    2  A    between atoms: C_1  and  O_12 
REMARK    3  A    between atoms: C_2  and  O_13 
REMARK    4  A    between atoms: C_3  and  O_13 
ROOT
HETATM    1  C   UNK N   1      42.696  22.735   2.664  0.00  0.00     0.081 A 
HETATM    2  C   UNK N   1      43.087  21.593   3.391  0.00  0.00    -0.028 A 
HETATM    3  C   UNK N   1      42.251  20.476   3.460  0.00  0.00     0.009 A 
HETATM    4  C   UNK N   1      41.020  20.478   2.809  0.00  0.00     0.001 A 
HETATM    5  C   UNK N   1      40.616  21.597   2.085  0.00  0.00     0.009 A 
HETATM    6  C   UNK N   1      41.433  22.727   2.001  0.00  0.00    -0.028 A 
HETATM    7  C   UNK N   1      44.398  21.552   4.101  0.00  0.00     0.051 C 
HETATM    8  C   UNK N   1      40.913  23.876   1.202  0.00  0.00     0.051 C 
ENDROOT
BRANCH   1   9
HETATM    9  O   UNK N   1      43.556  23.792   2.635  0.00  0.00    -0.340 OA
BRANCH   9  10
HETATM   10  C   UNK N   1      44.465  24.060   1.638  0.00  0.00     0.285 C 
BRANCH  10  11
HETATM   11  C   UNK N   1      45.475  25.055   2.093  0.00  0.00     0.164 C 
HETATM   12  O   UNK N   1      45.298  26.241   1.853  0.00  0.00    -0.648 OA
BRANCH  11  13
HETATM   13  O   UNK N   1      46.574  24.666   2.763  0.00  0.00    -0.775 OA
HETATM   14  H   UNK N   1      47.059  25.288   3.271  0.00  0.00     0.167 HD
ENDBRANCH  11  13
ENDBRANCH  10  11
ENDBRANCH   9  10
ENDBRANCH   1   9
TORSDOF 4
ENDMDL
MODEL 9
REMARK VINA RESULT:      -4.8     13.298     14.470
REMARK  4 active torsions:
REMARK  status: ('A' for Active; 'I' for Inactive)
REMARK    1  A    between atoms: C_1  and  C_2 
REMARK    2  A    between atoms: C_1  and  O_12 
REMARK    3  A    between atoms: C_2  and  O_13 
REMARK    4  A    between atoms: C_3  and  O_13 
ROOT
HETATM    1  C   UNK N   1      22.671  13.053   9.523  0.00  0.00     0.081 A 
HETATM    2  C   UNK N   1      24.074  12.993   9.409  0.00  0.00    -0.028 A 
HETATM    3  C   UNK N   1      24.845  12.448  10.440  0.00  0.00     0.009 A 
HETATM    4  C   UNK N   1      24.235  11.959  11.591  0.00  0.00     0.001 A 
HETATM    5  C   UNK N   1      22.849  12.011  11.722  0.00  0.00     0.009 A 
HETATM    6  C   UNK N   1      22.055  12.550  10.707  0.00  0.00    -0.028 A 
HETATM    7  C   UNK N   1      24.765  13.506   8.192  0.00  0.00     0.051 C 
HETATM    8  C   UNK N   1      20.581  12.561  10.939  0.00  0.00     0.051 C 
ENDROOT
BRANCH   1   9
HETATM    9  O   UNK N   1      21.975  13.596   8.483  0.00  0.00    -0.340 OA
BRANCH   9  10
HETATM   10  C   UNK N   1      21.620  14.919   8.360  0.00  0.00     0.285 C 
BRANCH  10  11
HETATM   11  C   UNK N   1      20.158  15.054   8.104  0.00  0.00     0.164 C 
HETATM   12  O   UNK N   1      19.735  14.917   6.965  0.00  0.00    -0.648 OA
BRANCH  11  13
HETATM   13  O   UNK N   1      19.304  15.324   9.107  0.00  0.00    -0.775 OA
HETATM   14  H   UNK N   1      19.630  15.630   9.931  0.00  0.00     0.167 HD
ENDBRANCH  11  13
ENDBRANCH  10  11
ENDBRANCH   9  10
ENDBRANCH   1   9
TORSDOF 4
ENDMDL
