MODEL 1
REMARK VINA RESULT:      -6.1      0.000      0.000
REMARK  4 active torsions:
REMARK  status: ('A' for Active; 'I' for Inactive)
REMARK    1  A    between atoms: C_5  and  O_15 
REMARK    2  A    between atoms: C_8  and  C_6 
REMARK    3  A    between atoms: C_8  and  C_9 
REMARK    4  A    between atoms: C_12  and  O_16 
ROOT
HETATM    1  O   UNK N   1      20.818  12.509   7.590  0.00  0.00    -0.287 OA
HETATM    2  C   UNK N   1      21.305  13.357   8.330  0.00  0.00     0.192 C 
ENDROOT
BRANCH   2   3
HETATM    3  C   UNK N   1      21.194  14.796   7.933  0.00  0.00     0.015 A 
HETATM    4  C   UNK N   1      20.283  15.639   8.590  0.00  0.00     0.018 A 
HETATM    5  C   UNK N   1      20.171  16.987   8.226  0.00  0.00     0.037 A 
HETATM    6  C   UNK N   1      20.970  17.503   7.201  0.00  0.00     0.065 A 
HETATM    7  C   UNK N   1      21.878  16.677   6.542  0.00  0.00     0.037 A 
HETATM    8  C   UNK N   1      21.987  15.337   6.906  0.00  0.00     0.018 A 
BRANCH   6   9
HETATM    9  O   UNK N   1      20.866  18.794   6.849  0.00  0.00    -0.361 OA
HETATM   10  H   UNK N   1      21.083  19.467   7.465  0.00  0.00     0.217 HD
ENDBRANCH   6   9
ENDBRANCH   2   3
BRANCH   2  11
HETATM   11  C   UNK N   1      21.981  12.903   9.585  0.00  0.00     0.015 A 
HETATM   12  C   UNK N   1      23.379  12.812   9.675  0.00  0.00     0.018 A 
HETATM   13  C   UNK N   1      24.000  12.388  10.848  0.00  0.00     0.037 A 
HETATM   14  C   UNK N   1      23.229  12.047  11.957  0.00  0.00     0.065 A 
HETATM   15  C   UNK N   1      21.835  12.130  11.891  0.00  0.00     0.037 A 
HETATM   16  C   UNK N   1      21.213  12.557  10.710  0.00  0.00     0.018 A 
BRANCH  14  17
HETATM   17  O   UNK N   1      23.829  11.639  13.086  0.00  0.00    -0.361 OA
HETATM   18  H   UNK N   1      23.340  11.169  13.733  0.00  0.00     0.217 HD
ENDBRANCH  14  17
ENDBRANCH   2  11
TORSDOF 4
ENDMDL
MODEL 2
REMARK VINA RESULT:      -6.1      0.077      5.981
REMARK  4 active torsions:
REMARK  status: ('A' for Active; 'I' for Inactive)
REMARK    1  A    between atoms: C_5  and  O_15 
REMARK    2  A    between atoms: C_8  and  C_6 
REMARK    3  A    between atoms: C_8  and  C_9 
REMARK    4  A    between atoms: C_12  and  O_16 
ROOT
HETATM    1  O   UNK N   1      20.918  12.460   7.571  0.00  0.00    -0.287 OA
HETATM    2  C   UNK N   1      21.363  13.312   8.331  0.00  0.00     0.192 C 
ENDROOT
BRANCH   2   3
HETATM    3  C   UNK N   1      22.016  12.863   9.600  0.00  0.00     0.015 A 
HETATM    4  C   UNK N   1      23.414  12.735   9.664  0.00  0.00     0.018 A 
HETATM    5  C   UNK N   1      24.036  12.315  10.846  0.00  0.00     0.037 A 
HETATM    6  C   UNK N   1      23.266  12.019  11.975  0.00  0.00     0.065 A 
HETATM    7  C   UNK N   1      21.879  12.142  11.924  0.00  0.00     0.037 A 
HETATM    8  C   UNK N   1      21.263  12.560  10.746  0.00  0.00     0.018 A 
BRANCH   6   9
HETATM    9  O   UNK N   1      23.858  11.616  13.110  0.00  0.00    -0.361 OA
HETATM   10  H   UNK N   1      24.457  10.896  13.097  0.00  0.00     0.217 HD
ENDBRANCH   6   9
ENDBRANCH   2   3
BRANCH   2  11
HETATM   11  C   UNK N   1      21.225  14.751   7.945  0.00  0.00     0.015 A 
HETATM   12  C   UNK N   1      21.948  15.296   6.872  0.00  0.00     0.018 A 
HETATM   13  C   UNK N   1      21.814  16.638   6.519  0.00  0.00     0.037 A 
HETATM   14  C   UNK N   1      20.950  17.460   7.238  0.00  0.00     0.065 A 
HETATM   15  C   UNK N   1      20.220  16.940   8.311  0.00  0.00     0.037 A 
HETATM   16  C   UNK N   1      20.356  15.591   8.663  0.00  0.00     0.018 A 
BRANCH  14  17
HETATM   17  O   UNK N   1      20.822  18.753   6.897  0.00  0.00    -0.361 OA
HETATM   18  H   UNK N   1      20.119  19.022   6.340  0.00  0.00     0.217 HD
ENDBRANCH  14  17
ENDBRANCH   2  11
TORSDOF 4
ENDMDL
MODEL 3
REMARK VINA RESULT:      -5.8     14.351     16.223
REMARK  4 active torsions:
REMARK  status: ('A' for Active; 'I' for Inactive)
REMARK    1  A    between atoms: C_5  and  O_15 
REMARK    2  A    between atoms: C_8  and  C_6 
REMARK    3  A    between atoms: C_8  and  C_9 
REMARK    4  A    between atoms: C_12  and  O_16 
ROOT
HETATM    1  O   UNK N   1      33.790  10.942  14.585  0.00  0.00    -0.287 OA
HETATM    2  C   UNK N   1      34.721  11.679  14.888  0.00  0.00     0.192 C 
ENDROOT
BRANCH   2   3
HETATM    3  C   UNK N   1      34.945  11.985  16.336  0.00  0.00     0.015 A 
HETATM    4  C   UNK N   1      35.173  10.941  17.248  0.00  0.00     0.018 A 
HETATM    5  C   UNK N   1      35.384  11.215  18.605  0.00  0.00     0.037 A 
HETATM    6  C   UNK N   1      35.368  12.537  19.062  0.00  0.00     0.065 A 
HETATM    7  C   UNK N   1      35.143  13.581  18.167  0.00  0.00     0.037 A 
HETATM    8  C   UNK N   1      34.934  13.304  16.817  0.00  0.00     0.018 A 
BRANCH   6   9
HETATM    9  O   UNK N   1      35.570  12.804  20.361  0.00  0.00    -0.361 OA
HETATM   10  H   UNK N   1      36.333  13.276  20.630  0.00  0.00     0.217 HD
ENDBRANCH   6   9
ENDBRANCH   2   3
BRANCH   2  11
HETATM   11  C   UNK N   1      35.578  12.229  13.792  0.00  0.00     0.015 A 
HETATM   12  C   UNK N   1      35.340  13.498  13.239  0.00  0.00     0.018 A 
HETATM   13  C   UNK N   1      36.143  14.003  12.219  0.00  0.00     0.037 A 
HETATM   14  C   UNK N   1      37.204  13.243  11.732  0.00  0.00     0.065 A 
HETATM   15  C   UNK N   1      37.461  11.977  12.267  0.00  0.00     0.037 A 
HETATM   16  C   UNK N   1      36.652  11.472  13.292  0.00  0.00     0.018 A 
BRANCH  14  17
HETATM   17  O   UNK N   1      37.977  13.731  10.749  0.00  0.00    -0.361 OA
HETATM   18  H   UNK N   1      38.230  13.180  10.034  0.00  0.00     0.217 HD
ENDBRANCH  14  17
ENDBRANCH   2  11
TORSDOF 4
ENDMDL
MODEL 4
REMARK VINA RESULT:      -5.8     14.362     15.592
REMARK  4 active torsions:
REMARK  status: ('A' for Active; 'I' for Inactive)
REMARK    1  A    between atoms: C_5  and  O_15 
REMARK    2  A    between atoms: C_8  and  C_6 
REMARK    3  A    between atoms: C_8  and  C_9 
REMARK    4  A    between atoms: C_12  and  O_16 
ROOT
HETATM    1  O   UNK N   1      33.782  10.921  14.606  0.00  0.00    -0.287 OA
HETATM    2  C   UNK N   1      34.718  11.649  14.914  0.00  0.00     0.192 C 
ENDROOT
BRANCH   2   3
HETATM    3  C   UNK N   1      35.583  12.196  13.822  0.00  0.00     0.015 A 
HETATM    4  C   UNK N   1      36.662  11.441  13.332  0.00  0.00     0.018 A 
HETATM    5  C   UNK N   1      37.476  11.943  12.311  0.00  0.00     0.037 A 
HETATM    6  C   UNK N   1      37.220  13.206  11.768  0.00  0.00     0.065 A 
HETATM    7  C   UNK N   1      36.152  13.965  12.245  0.00  0.00     0.037 A 
HETATM    8  C   UNK N   1      35.343  13.462  13.262  0.00  0.00     0.018 A 
BRANCH   6   9
HETATM    9  O   UNK N   1      37.998  13.692  10.789  0.00  0.00    -0.361 OA
HETATM   10  H   UNK N   1      38.182  14.609  10.747  0.00  0.00     0.217 HD
ENDBRANCH   6   9
ENDBRANCH   2   3
BRANCH   2  11
HETATM   11  C   UNK N   1      34.942  11.947  16.363  0.00  0.00     0.015 A 
HETATM   12  C   UNK N   1      34.909  13.261  16.857  0.00  0.00     0.018 A 
HETATM   13  C   UNK N   1      35.119  13.530  18.208  0.00  0.00     0.037 A 
HETATM   14  C   UNK N   1      35.366  12.483  19.093  0.00  0.00     0.065 A 
HETATM   15  C   UNK N   1      35.403  11.166  18.624  0.00  0.00     0.037 A 
HETATM   16  C   UNK N   1      35.193  10.898  17.266  0.00  0.00     0.018 A 
BRANCH  14  17
HETATM   17  O   UNK N   1      35.567  12.743  20.394  0.00  0.00    -0.361 OA
HETATM   18  H   UNK N   1      36.373  13.130  20.675  0.00  0.00     0.217 HD
ENDBRANCH  14  17
ENDBRANCH   2  11
TORSDOF 4
ENDMDL
MODEL 5
REMARK VINA RESULT:      -5.7      9.428     10.340
REMARK  4 active torsions:
REMARK  status: ('A' for Active; 'I' for Inactive)
REMARK    1  A    between atoms: C_5  and  O_15 
REMARK    2  A    between atoms: C_8  and  C_6 
REMARK    3  A    between atoms: C_8  and  C_9 
REMARK    4  A    between atoms: C_12  and  O_16 
ROOT
HETATM    1  O   UNK N   1      30.998  15.291   6.375  0.00  0.00    -0.287 OA
HETATM    2  C   UNK N   1      31.059  16.360   6.972  0.00  0.00     0.192 C 
ENDROOT
BRANCH   2   3
HETATM    3  C   UNK N   1      29.908  17.310   6.851  0.00  0.00     0.015 A 
HETATM    4  C   UNK N   1      29.389  17.628   5.585  0.00  0.00     0.018 A 
HETATM    5  C   UNK N   1      28.313  18.515   5.460  0.00  0.00     0.037 A 
HETATM    6  C   UNK N   1      27.746  19.092   6.601  0.00  0.00     0.065 A 
HETATM    7  C   UNK N   1      28.252  18.784   7.862  0.00  0.00     0.037 A 
HETATM    8  C   UNK N   1      29.323  17.901   7.983  0.00  0.00     0.018 A 
BRANCH   6   9
HETATM    9  O   UNK N   1      26.714  19.943   6.486  0.00  0.00    -0.361 OA
HETATM   10  H   UNK N   1      26.788  20.816   6.816  0.00  0.00     0.217 HD
ENDBRANCH   6   9
ENDBRANCH   2   3
BRANCH   2  11
HETATM   11  C   UNK N   1      32.280  16.652   7.786  0.00  0.00     0.015 A 
HETATM   12  C   UNK N   1      33.039  17.816   7.581  0.00  0.00     0.018 A 
HETATM   13  C   UNK N   1      34.175  18.079   8.344  0.00  0.00     0.037 A 
HETATM   14  C   UNK N   1      34.573  17.179   9.329  0.00  0.00     0.065 A 
HETATM   15  C   UNK N   1      33.833  16.014   9.551  0.00  0.00     0.037 A 
HETATM   16  C   UNK N   1      32.692  15.751   8.783  0.00  0.00     0.018 A 
BRANCH  14  17
HETATM   17  O   UNK N   1      35.667  17.435  10.063  0.00  0.00    -0.361 OA
HETATM   18  H   UNK N   1      36.208  18.172   9.857  0.00  0.00     0.217 HD
ENDBRANCH  14  17
ENDBRANCH   2  11
TORSDOF 4
ENDMDL
MODEL 6
REMARK VINA RESULT:      -5.7      9.483     11.427
REMARK  4 active torsions:
REMARK  status: ('A' for Active; 'I' for Inactive)
REMARK    1  A    between atoms: C_5  and  O_15 
REMARK    2  A    between atoms: C_8  and  C_6 
REMARK    3  A    between atoms: C_8  and  C_9 
REMARK    4  A    between atoms: C_12  and  O_16 
ROOT
HETATM    1  O   UNK N   1      31.132  15.337   6.210  0.00  0.00    -0.287 OA
HETATM    2  C   UNK N   1      31.150  16.374   6.863  0.00  0.00     0.192 C 
ENDROOT
BRANCH   2   3
HETATM    3  C   UNK N   1      32.345  16.655   7.720  0.00  0.00     0.015 A 
HETATM    4  C   UNK N   1      33.096  17.825   7.519  0.00  0.00     0.018 A 
HETATM    5  C   UNK N   1      34.215  18.097   8.315  0.00  0.00     0.037 A 
HETATM    6  C   UNK N   1      34.594  17.201   9.319  0.00  0.00     0.065 A 
HETATM    7  C   UNK N   1      33.857  16.037   9.528  0.00  0.00     0.037 A 
HETATM    8  C   UNK N   1      32.744  15.769   8.735  0.00  0.00     0.018 A 
BRANCH   6   9
HETATM    9  O   UNK N   1      35.666  17.458  10.085  0.00  0.00    -0.361 OA
HETATM   10  H   UNK N   1      35.618  17.342  11.013  0.00  0.00     0.217 HD
ENDBRANCH   6   9
ENDBRANCH   2   3
BRANCH   2  11
HETATM   11  C   UNK N   1      29.977  17.298   6.765  0.00  0.00     0.015 A 
HETATM   12  C   UNK N   1      29.429  17.660   5.524  0.00  0.00     0.018 A 
HETATM   13  C   UNK N   1      28.337  18.521   5.441  0.00  0.00     0.037 A 
HETATM   14  C   UNK N   1      27.771  19.036   6.605  0.00  0.00     0.065 A 
HETATM   15  C   UNK N   1      28.299  18.690   7.852  0.00  0.00     0.037 A 
HETATM   16  C   UNK N   1      29.398  17.824   7.933  0.00  0.00     0.018 A 
BRANCH  14  17
HETATM   17  O   UNK N   1      26.718  19.865   6.524  0.00  0.00    -0.361 OA
HETATM   18  H   UNK N   1      26.793  20.673   6.054  0.00  0.00     0.217 HD
ENDBRANCH  14  17
ENDBRANCH   2  11
TORSDOF 4
ENDMDL
MODEL 7
REMARK VINA RESULT:      -5.7      7.899     10.066
REMARK  4 active torsions:
REMARK  status: ('A' for Active; 'I' for Inactive)
REMARK    1  A    between atoms: C_5  and  O_15 
REMARK    2  A    between atoms: C_8  and  C_6 
REMARK    3  A    between atoms: C_8  and  C_9 
REMARK    4  A    between atoms: C_12  and  O_16 
ROOT
HETATM    1  O   UNK N   1      28.932  16.771   4.435  0.00  0.00    -0.287 OA
HETATM    2  C   UNK N   1      28.373  17.671   5.052  0.00  0.00     0.192 C 
ENDROOT
BRANCH   2   3
HETATM    3  C   UNK N   1      28.741  17.887   6.486  0.00  0.00     0.015 A 
HETATM    4  C   UNK N   1      29.981  17.436   6.970  0.00  0.00     0.018 A 
HETATM    5  C   UNK N   1      30.335  17.633   8.310  0.00  0.00     0.037 A 
HETATM    6  C   UNK N   1      29.453  18.282   9.179  0.00  0.00     0.065 A 
HETATM    7  C   UNK N   1      28.221  18.733   8.711  0.00  0.00     0.037 A 
HETATM    8  C   UNK N   1      27.870  18.536   7.377  0.00  0.00     0.018 A 
BRANCH   6   9
HETATM    9  O   UNK N   1      29.789  18.472  10.464  0.00  0.00    -0.361 OA
HETATM   10  H   UNK N   1      29.257  19.015  11.012  0.00  0.00     0.217 HD
ENDBRANCH   6   9
ENDBRANCH   2   3
BRANCH   2  11
HETATM   11  C   UNK N   1      27.356  18.500   4.333  0.00  0.00     0.015 A 
HETATM   12  C   UNK N   1      26.107  17.974   3.963  0.00  0.00     0.018 A 
HETATM   13  C   UNK N   1      25.166  18.754   3.294  0.00  0.00     0.037 A 
HETATM   14  C   UNK N   1      25.459  20.079   2.982  0.00  0.00     0.065 A 
HETATM   15  C   UNK N   1      26.696  20.625   3.340  0.00  0.00     0.037 A 
HETATM   16  C   UNK N   1      27.640  19.839   4.013  0.00  0.00     0.018 A 
BRANCH  14  17
HETATM   17  O   UNK N   1      24.551  20.829   2.337  0.00  0.00    -0.361 OA
HETATM   18  H   UNK N   1      23.875  20.417   1.835  0.00  0.00     0.217 HD
ENDBRANCH  14  17
ENDBRANCH   2  11
TORSDOF 4
ENDMDL
MODEL 8
REMARK VINA RESULT:      -5.7      0.495      5.997
REMARK  4 active torsions:
REMARK  status: ('A' for Active; 'I' for Inactive)
REMARK    1  A    between atoms: C_5  and  O_15 
REMARK    2  A    between atoms: C_8  and  C_6 
REMARK    3  A    between atoms: C_8  and  C_9 
REMARK    4  A    between atoms: C_12  and  O_16 
ROOT
HETATM    1  O   UNK N   1      20.967  12.234   7.574  0.00  0.00    -0.287 OA
HETATM    2  C   UNK N   1      21.522  13.120   8.214  0.00  0.00     0.192 C 
ENDROOT
BRANCH   2   3
HETATM    3  C   UNK N   1      22.247  12.746   9.468  0.00  0.00     0.015 A 
HETATM    4  C   UNK N   1      21.524  12.419  10.628  0.00  0.00     0.018 A 
HETATM    5  C   UNK N   1      22.193  12.067  11.807  0.00  0.00     0.037 A 
HETATM    6  C   UNK N   1      23.591  12.038  11.837  0.00  0.00     0.065 A 
HETATM    7  C   UNK N   1      24.318  12.360  10.693  0.00  0.00     0.037 A 
HETATM    8  C   UNK N   1      23.651  12.710   9.521  0.00  0.00     0.018 A 
BRANCH   6   9
HETATM    9  O   UNK N   1      24.235  11.702  12.965  0.00  0.00    -0.361 OA
HETATM   10  H   UNK N   1      24.899  12.265  13.311  0.00  0.00     0.217 HD
ENDBRANCH   6   9
ENDBRANCH   2   3
BRANCH   2  11
HETATM   11  C   UNK N   1      21.441  14.524   7.702  0.00  0.00     0.015 A 
HETATM   12  C   UNK N   1      20.416  15.395   8.105  0.00  0.00     0.018 A 
HETATM   13  C   UNK N   1      20.348  16.701   7.624  0.00  0.00     0.037 A 
HETATM   14  C   UNK N   1      21.309  17.159   6.726  0.00  0.00     0.065 A 
HETATM   15  C   UNK N   1      22.339  16.310   6.310  0.00  0.00     0.037 A 
HETATM   16  C   UNK N   1      22.405  14.998   6.796  0.00  0.00     0.018 A 
BRANCH  14  17
HETATM   17  O   UNK N   1      21.242  18.418   6.263  0.00  0.00    -0.361 OA
HETATM   18  H   UNK N   1      20.594  19.006   6.597  0.00  0.00     0.217 HD
ENDBRANCH  14  17
ENDBRANCH   2  11
TORSDOF 4
ENDMDL
MODEL 9
REMARK VINA RESULT:      -5.6     16.613     17.826
REMARK  4 active torsions:
REMARK  status: ('A' for Active; 'I' for Inactive)
REMARK    1  A    between atoms: C_5  and  O_15 
REMARK    2  A    between atoms: C_8  and  C_6 
REMARK    3  A    between atoms: C_8  and  C_9 
REMARK    4  A    between atoms: C_12  and  O_16 
ROOT
HETATM    1  O   UNK N   1      30.413  22.976  -1.258  0.00  0.00    -0.287 OA
HETATM    2  C   UNK N   1      30.280  22.858  -2.471  0.00  0.00     0.192 C 
ENDROOT
BRANCH   2   3
HETATM    3  C   UNK N   1      29.260  23.709  -3.160  0.00  0.00     0.015 A 
HETATM    4  C   UNK N   1      29.659  24.625  -4.148  0.00  0.00     0.018 A 
HETATM    5  C   UNK N   1      28.713  25.426  -4.798  0.00  0.00     0.037 A 
HETATM    6  C   UNK N   1      27.358  25.318  -4.468  0.00  0.00     0.065 A 
HETATM    7  C   UNK N   1      26.950  24.413  -3.491  0.00  0.00     0.037 A 
HETATM    8  C   UNK N   1      27.894  23.617  -2.844  0.00  0.00     0.018 A 
BRANCH   6   9
HETATM    9  O   UNK N   1      26.448  26.084  -5.090  0.00  0.00    -0.361 OA
HETATM   10  H   UNK N   1      25.908  25.718  -5.762  0.00  0.00     0.217 HD
ENDBRANCH   6   9
ENDBRANCH   2   3
BRANCH   2  11
HETATM   11  C   UNK N   1      31.144  21.871  -3.190  0.00  0.00     0.015 A 
HETATM   12  C   UNK N   1      30.640  21.072  -4.229  0.00  0.00     0.018 A 
HETATM   13  C   UNK N   1      31.453  20.155  -4.893  0.00  0.00     0.037 A 
HETATM   14  C   UNK N   1      32.790  20.021  -4.527  0.00  0.00     0.065 A 
HETATM   15  C   UNK N   1      33.314  20.806  -3.495  0.00  0.00     0.037 A 
HETATM   16  C   UNK N   1      32.495  21.727  -2.829  0.00  0.00     0.018 A 
BRANCH  14  17
HETATM   17  O   UNK N   1      33.571  19.137  -5.168  0.00  0.00    -0.361 OA
HETATM   18  H   UNK N   1      33.189  18.510  -5.750  0.00  0.00     0.217 HD
ENDBRANCH  14  17
ENDBRANCH   2  11
TORSDOF 4
ENDMDL
