MODEL 1
REMARK VINA RESULT:      -5.9      0.000      0.000
REMARK  7 active torsions:
REMARK  status: ('A' for Active; 'I' for Inactive)
REMARK    1  A    between atoms: O_1  and  C_2 
REMARK    2  A    between atoms: C_3  and  C_14 
REMARK    3  A    between atoms: C_14  and  C_15 
REMARK    4  A    between atoms: C_15  and  C_16 
REMARK    5  A    between atoms: C_16  and  C_17 
REMARK    6  A    between atoms: C_17  and  C_18 
REMARK    7  A    between atoms: C_18  and  C_19 
ROOT
HETATM    1  C   UNK N   1      34.150  13.789  10.014  0.00  0.00     0.127 A 
HETATM    2  C   UNK N   1      35.192  14.431  10.626  0.00  0.00     0.032 A 
HETATM    3  C   UNK N   1      35.464  15.890  10.299  0.00  0.00     0.209 A 
HETATM    4  O   UNK N   1      36.380  16.511  10.817  0.00  0.00    -0.285 OA
HETATM    5  C   UNK N   1      34.604  16.578   9.334  0.00  0.00     0.105 A 
HETATM    6  C   UNK N   1      33.563  15.902   8.736  0.00  0.00     0.089 A 
HETATM    7  S   UNK N   1      32.828  16.979   7.728  0.00  0.00    -0.078 SA
HETATM    8  C   UNK N   1      33.814  18.283   8.044  0.00  0.00     0.139 A 
HETATM    9  N   UNK N   1      34.750  17.896   8.957  0.00  0.00    -0.355 N 
ATOM     10  HN  UNK N   1      35.477  18.512   9.321  1.00  0.00     0.166 HD
HETATM   11  C   UNK N   1      33.278  14.499   9.031  0.00  0.00     0.225 A 
HETATM   12  O   UNK N   1      32.348  13.924   8.486  0.00  0.00    -0.284 OA
ENDROOT
BRANCH   2  13
HETATM   13  C   UNK N   1      36.042  13.642  11.620  0.00  0.00     0.046 C 
BRANCH  13  14
HETATM   14  C   UNK N   1      35.505  13.693  13.039  0.00  0.00     0.005 C 
BRANCH  14  15
HETATM   15  C   UNK N   1      36.445  14.243  14.083  0.00  0.00     0.000 C 
BRANCH  15  16
HETATM   16  C   UNK N   1      36.390  13.225  15.204  0.00  0.00     0.000 C 
BRANCH  16  17
HETATM   17  C   UNK N   1      35.013  13.065  15.802  0.00  0.00    -0.000 C 
BRANCH  17  18
HETATM   18  C   UNK N   1      35.199  12.797  17.284  0.00  0.00    -0.005 C 
HETATM   19  C   UNK N   1      35.310  14.098  18.045  0.00  0.00     0.005 C 
ENDBRANCH  17  18
ENDBRANCH  16  17
ENDBRANCH  15  16
ENDBRANCH  14  15
ENDBRANCH  13  14
ENDBRANCH   2  13
BRANCH   1  20
HETATM   20  O   UNK N   1      33.896  12.495  10.294  0.00  0.00    -0.356 OA
HETATM   21  H   UNK N   1      33.822  12.214  11.185  0.00  0.00     0.218 HD
ENDBRANCH   1  20
TORSDOF 7
ENDMDL
MODEL 2
REMARK VINA RESULT:      -5.9      3.220      7.018
REMARK  7 active torsions:
REMARK  status: ('A' for Active; 'I' for Inactive)
REMARK    1  A    between atoms: O_1  and  C_2 
REMARK    2  A    between atoms: C_3  and  C_14 
REMARK    3  A    between atoms: C_14  and  C_15 
REMARK    4  A    between atoms: C_15  and  C_16 
REMARK    5  A    between atoms: C_16  and  C_17 
REMARK    6  A    between atoms: C_17  and  C_18 
REMARK    7  A    between atoms: C_18  and  C_19 
ROOT
HETATM    1  C   UNK N   1      33.976  17.041   7.495  0.00  0.00     0.127 A 
HETATM    2  C   UNK N   1      33.282  15.893   7.224  0.00  0.00     0.032 A 
HETATM    3  C   UNK N   1      33.244  14.783   8.261  0.00  0.00     0.209 A 
HETATM    4  O   UNK N   1      32.638  13.738   8.071  0.00  0.00    -0.285 OA
HETATM    5  C   UNK N   1      33.953  14.965   9.529  0.00  0.00     0.105 A 
HETATM    6  C   UNK N   1      34.643  16.133   9.770  0.00  0.00     0.089 A 
HETATM    7  S   UNK N   1      35.303  15.982  11.272  0.00  0.00    -0.078 SA
HETATM    8  C   UNK N   1      34.724  14.459  11.613  0.00  0.00     0.139 A 
HETATM    9  N   UNK N   1      33.992  14.034  10.543  0.00  0.00    -0.355 N 
ATOM     10  HN  UNK N   1      33.526  13.127  10.499  1.00  0.00     0.166 HD
HETATM   11  C   UNK N   1      34.697  17.218   8.791  0.00  0.00     0.225 A 
HETATM   12  O   UNK N   1      35.317  18.244   9.031  0.00  0.00    -0.284 OA
ENDROOT
BRANCH   2  13
HETATM   13  C   UNK N   1      32.570  15.782   5.878  0.00  0.00     0.046 C 
BRANCH  13  14
HETATM   14  C   UNK N   1      31.059  15.881   5.989  0.00  0.00     0.005 C 
BRANCH  14  15
HETATM   15  C   UNK N   1      30.499  17.266   6.196  0.00  0.00     0.000 C 
BRANCH  15  16
HETATM   16  C   UNK N   1      29.867  17.208   7.572  0.00  0.00     0.000 C 
BRANCH  16  17
HETATM   17  C   UNK N   1      30.567  18.076   8.591  0.00  0.00    -0.000 C 
BRANCH  17  18
HETATM   18  C   UNK N   1      29.548  18.416   9.663  0.00  0.00    -0.005 C 
HETATM   19  C   UNK N   1      28.170  17.954   9.245  0.00  0.00     0.005 C 
ENDBRANCH  17  18
ENDBRANCH  16  17
ENDBRANCH  15  16
ENDBRANCH  14  15
ENDBRANCH  13  14
ENDBRANCH   2  13
BRANCH   1  20
HETATM   20  O   UNK N   1      34.019  18.035   6.585  0.00  0.00    -0.356 OA
HETATM   21  H   UNK N   1      33.410  18.745   6.637  0.00  0.00     0.218 HD
ENDBRANCH   1  20
TORSDOF 7
ENDMDL
MODEL 3
REMARK VINA RESULT:      -5.9     10.242     13.087
REMARK  7 active torsions:
REMARK  status: ('A' for Active; 'I' for Inactive)
REMARK    1  A    between atoms: O_1  and  C_2 
REMARK    2  A    between atoms: C_3  and  C_14 
REMARK    3  A    between atoms: C_14  and  C_15 
REMARK    4  A    between atoms: C_15  and  C_16 
REMARK    5  A    between atoms: C_16  and  C_17 
REMARK    6  A    between atoms: C_17  and  C_18 
REMARK    7  A    between atoms: C_18  and  C_19 
ROOT
HETATM    1  C   UNK N   1      24.439  18.422   4.768  0.00  0.00     0.127 A 
HETATM    2  C   UNK N   1      25.011  19.403   4.005  0.00  0.00     0.032 A 
HETATM    3  C   UNK N   1      24.134  20.238   3.086  0.00  0.00     0.209 A 
HETATM    4  O   UNK N   1      24.592  21.127   2.384  0.00  0.00    -0.285 OA
HETATM    5  C   UNK N   1      22.695  19.972   3.037  0.00  0.00     0.105 A 
HETATM    6  C   UNK N   1      22.151  18.976   3.819  0.00  0.00     0.089 A 
HETATM    7  S   UNK N   1      20.534  18.969   3.505  0.00  0.00    -0.078 SA
HETATM    8  C   UNK N   1      20.521  20.209   2.395  0.00  0.00     0.139 A 
HETATM    9  N   UNK N   1      21.800  20.660   2.246  0.00  0.00    -0.355 N 
ATOM     10  HN  UNK N   1      22.064  21.420   1.620  1.00  0.00     0.166 HD
HETATM   11  C   UNK N   1      22.970  18.159   4.712  0.00  0.00     0.225 A 
HETATM   12  O   UNK N   1      22.462  17.281   5.395  0.00  0.00    -0.284 OA
ENDROOT
BRANCH   2  13
HETATM   13  C   UNK N   1      26.519  19.616   4.115  0.00  0.00     0.046 C 
BRANCH  13  14
HETATM   14  C   UNK N   1      26.900  20.709   5.097  0.00  0.00     0.005 C 
BRANCH  14  15
HETATM   15  C   UNK N   1      27.553  20.250   6.377  0.00  0.00     0.000 C 
BRANCH  15  16
HETATM   16  C   UNK N   1      28.275  18.975   5.989  0.00  0.00     0.000 C 
BRANCH  16  17
HETATM   17  C   UNK N   1      28.381  17.979   7.118  0.00  0.00    -0.000 C 
BRANCH  17  18
HETATM   18  C   UNK N   1      28.264  18.759   8.414  0.00  0.00    -0.005 C 
HETATM   19  C   UNK N   1      29.495  18.553   9.267  0.00  0.00     0.005 C 
ENDBRANCH  17  18
ENDBRANCH  16  17
ENDBRANCH  15  16
ENDBRANCH  14  15
ENDBRANCH  13  14
ENDBRANCH   2  13
BRANCH   1  20
HETATM   20  O   UNK N   1      25.204  17.673   5.589  0.00  0.00    -0.356 OA
HETATM   21  H   UNK N   1      25.386  16.779   5.374  0.00  0.00     0.218 HD
ENDBRANCH   1  20
TORSDOF 7
ENDMDL
MODEL 4
REMARK VINA RESULT:      -5.8     16.664     19.425
REMARK  7 active torsions:
REMARK  status: ('A' for Active; 'I' for Inactive)
REMARK    1  A    between atoms: O_1  and  C_2 
REMARK    2  A    between atoms: C_3  and  C_14 
REMARK    3  A    between atoms: C_14  and  C_15 
REMARK    4  A    between atoms: C_15  and  C_16 
REMARK    5  A    between atoms: C_16  and  C_17 
REMARK    6  A    between atoms: C_17  and  C_18 
REMARK    7  A    between atoms: C_18  and  C_19 
ROOT
HETATM    1  C   UNK N   1      30.621  22.558  -2.642  0.00  0.00     0.127 A 
HETATM    2  C   UNK N   1      29.690  22.806  -3.614  0.00  0.00     0.032 A 
HETATM    3  C   UNK N   1      29.862  22.177  -4.987  0.00  0.00     0.209 A 
HETATM    4  O   UNK N   1      29.060  22.364  -5.891  0.00  0.00    -0.285 OA
HETATM    5  C   UNK N   1      31.020  21.319  -5.240  0.00  0.00     0.105 A 
HETATM    6  C   UNK N   1      31.939  21.090  -4.239  0.00  0.00     0.089 A 
HETATM    7  S   UNK N   1      33.085  20.094  -4.879  0.00  0.00    -0.078 SA
HETATM    8  C   UNK N   1      32.429  19.955  -6.402  0.00  0.00     0.139 A 
HETATM    9  N   UNK N   1      31.283  20.695  -6.440  0.00  0.00    -0.355 N 
ATOM     10  HN  UNK N   1      30.688  20.777  -7.264  1.00  0.00     0.166 HD
HETATM   11  C   UNK N   1      31.800  21.681  -2.909  0.00  0.00     0.225 A 
HETATM   12  O   UNK N   1      32.630  21.461  -2.039  0.00  0.00    -0.284 OA
ENDROOT
BRANCH   2  13
HETATM   13  C   UNK N   1      28.511  23.713  -3.269  0.00  0.00     0.046 C 
BRANCH  13  14
HETATM   14  C   UNK N   1      28.622  25.098  -3.878  0.00  0.00     0.005 C 
BRANCH  14  15
HETATM   15  C   UNK N   1      27.596  25.444  -4.928  0.00  0.00     0.000 C 
BRANCH  15  16
HETATM   16  C   UNK N   1      26.312  25.632  -4.144  0.00  0.00     0.000 C 
BRANCH  16  17
HETATM   17  C   UNK N   1      26.344  26.826  -3.220  0.00  0.00    -0.000 C 
BRANCH  17  18
HETATM   18  C   UNK N   1      25.556  27.933  -3.895  0.00  0.00    -0.005 C 
HETATM   19  C   UNK N   1      26.464  29.094  -4.234  0.00  0.00     0.005 C 
ENDBRANCH  17  18
ENDBRANCH  16  17
ENDBRANCH  15  16
ENDBRANCH  14  15
ENDBRANCH  13  14
ENDBRANCH   2  13
BRANCH   1  20
HETATM   20  O   UNK N   1      30.483  23.109  -1.418  0.00  0.00    -0.356 OA
HETATM   21  H   UNK N   1      30.686  24.014  -1.286  0.00  0.00     0.218 HD
ENDBRANCH   1  20
TORSDOF 7
ENDMDL
MODEL 5
REMARK VINA RESULT:      -5.8     16.618     19.360
REMARK  7 active torsions:
REMARK  status: ('A' for Active; 'I' for Inactive)
REMARK    1  A    between atoms: O_1  and  C_2 
REMARK    2  A    between atoms: C_3  and  C_14 
REMARK    3  A    between atoms: C_14  and  C_15 
REMARK    4  A    between atoms: C_15  and  C_16 
REMARK    5  A    between atoms: C_16  and  C_17 
REMARK    6  A    between atoms: C_17  and  C_18 
REMARK    7  A    between atoms: C_18  and  C_19 
ROOT
HETATM    1  C   UNK N   1      30.764  22.480  -2.692  0.00  0.00     0.127 A 
HETATM    2  C   UNK N   1      29.855  22.717  -3.686  0.00  0.00     0.032 A 
HETATM    3  C   UNK N   1      30.057  22.076  -5.049  0.00  0.00     0.209 A 
HETATM    4  O   UNK N   1      29.275  22.253  -5.972  0.00  0.00    -0.285 OA
HETATM    5  C   UNK N   1      31.223  21.217  -5.269  0.00  0.00     0.105 A 
HETATM    6  C   UNK N   1      32.120  20.999  -4.246  0.00  0.00     0.089 A 
HETATM    7  S   UNK N   1      33.281  20.000  -4.851  0.00  0.00    -0.078 SA
HETATM    8  C   UNK N   1      32.658  19.845  -6.387  0.00  0.00     0.139 A 
HETATM    9  N   UNK N   1      31.513  20.583  -6.457  0.00  0.00    -0.355 N 
ATOM     10  HN  UNK N   1      30.936  20.656  -7.295  1.00  0.00     0.166 HD
HETATM   11  C   UNK N   1      31.950  21.602  -2.925  0.00  0.00     0.225 A 
HETATM   12  O   UNK N   1      32.762  21.392  -2.035  0.00  0.00    -0.284 OA
ENDROOT
BRANCH   2  13
HETATM   13  C   UNK N   1      28.667  23.625  -3.375  0.00  0.00     0.046 C 
BRANCH  13  14
HETATM   14  C   UNK N   1      28.833  25.034  -3.913  0.00  0.00     0.005 C 
BRANCH  14  15
HETATM   15  C   UNK N   1      27.564  25.832  -4.082  0.00  0.00     0.000 C 
BRANCH  15  16
HETATM   16  C   UNK N   1      26.459  24.803  -3.949  0.00  0.00     0.000 C 
BRANCH  16  17
HETATM   17  C   UNK N   1      25.560  24.729  -5.160  0.00  0.00    -0.000 C 
BRANCH  17  18
HETATM   18  C   UNK N   1      25.908  23.449  -5.895  0.00  0.00    -0.005 C 
HETATM   19  C   UNK N   1      26.279  23.749  -7.330  0.00  0.00     0.005 C 
ENDBRANCH  17  18
ENDBRANCH  16  17
ENDBRANCH  15  16
ENDBRANCH  14  15
ENDBRANCH  13  14
ENDBRANCH   2  13
BRANCH   1  20
HETATM   20  O   UNK N   1      30.599  23.041  -1.477  0.00  0.00    -0.356 OA
HETATM   21  H   UNK N   1      31.320  23.087  -0.880  0.00  0.00     0.218 HD
ENDBRANCH   1  20
TORSDOF 7
ENDMDL
MODEL 6
REMARK VINA RESULT:      -5.8      1.348      2.661
REMARK  7 active torsions:
REMARK  status: ('A' for Active; 'I' for Inactive)
REMARK    1  A    between atoms: O_1  and  C_2 
REMARK    2  A    between atoms: C_3  and  C_14 
REMARK    3  A    between atoms: C_14  and  C_15 
REMARK    4  A    between atoms: C_15  and  C_16 
REMARK    5  A    between atoms: C_16  and  C_17 
REMARK    6  A    between atoms: C_17  and  C_18 
REMARK    7  A    between atoms: C_18  and  C_19 
ROOT
HETATM    1  C   UNK N   1      35.726  15.780  10.289  0.00  0.00     0.127 A 
HETATM    2  C   UNK N   1      35.235  14.505  10.230  0.00  0.00     0.032 A 
HETATM    3  C   UNK N   1      33.934  14.242   9.488  0.00  0.00     0.209 A 
HETATM    4  O   UNK N   1      33.451  13.122   9.403  0.00  0.00    -0.285 OA
HETATM    5  C   UNK N   1      33.235  15.361   8.854  0.00  0.00     0.105 A 
HETATM    6  C   UNK N   1      33.757  16.633   8.933  0.00  0.00     0.089 A 
HETATM    7  S   UNK N   1      32.716  17.615   8.116  0.00  0.00    -0.078 SA
HETATM    8  C   UNK N   1      31.619  16.446   7.668  0.00  0.00     0.139 A 
HETATM    9  N   UNK N   1      32.052  15.248   8.156  0.00  0.00    -0.355 N 
ATOM     10  HN  UNK N   1      31.555  14.367   8.019  1.00  0.00     0.166 HD
HETATM   11  C   UNK N   1      35.005  16.916   9.639  0.00  0.00     0.225 A 
HETATM   12  O   UNK N   1      35.447  18.054   9.694  0.00  0.00    -0.284 OA
ENDROOT
BRANCH   2  13
HETATM   13  C   UNK N   1      36.025  13.394  10.918  0.00  0.00     0.046 C 
BRANCH  13  14
HETATM   14  C   UNK N   1      35.449  12.995  12.264  0.00  0.00     0.005 C 
BRANCH  14  15
HETATM   15  C   UNK N   1      36.446  12.799  13.379  0.00  0.00     0.000 C 
BRANCH  15  16
HETATM   16  C   UNK N   1      36.544  14.162  14.033  0.00  0.00     0.000 C 
BRANCH  16  17
HETATM   17  C   UNK N   1      36.646  14.099  15.539  0.00  0.00    -0.000 C 
BRANCH  17  18
HETATM   18  C   UNK N   1      35.548  13.169  16.021  0.00  0.00    -0.005 C 
HETATM   19  C   UNK N   1      35.178  13.489  17.451  0.00  0.00     0.005 C 
ENDBRANCH  17  18
ENDBRANCH  16  17
ENDBRANCH  15  16
ENDBRANCH  14  15
ENDBRANCH  13  14
ENDBRANCH   2  13
BRANCH   1  20
HETATM   20  O   UNK N   1      36.879  16.030  10.943  0.00  0.00    -0.356 OA
HETATM   21  H   UNK N   1      37.387  15.321  11.284  0.00  0.00     0.218 HD
ENDBRANCH   1  20
TORSDOF 7
ENDMDL
MODEL 7
REMARK VINA RESULT:      -5.6      3.356      8.042
REMARK  7 active torsions:
REMARK  status: ('A' for Active; 'I' for Inactive)
REMARK    1  A    between atoms: O_1  and  C_2 
REMARK    2  A    between atoms: C_3  and  C_14 
REMARK    3  A    between atoms: C_14  and  C_15 
REMARK    4  A    between atoms: C_15  and  C_16 
REMARK    5  A    between atoms: C_16  and  C_17 
REMARK    6  A    between atoms: C_17  and  C_18 
REMARK    7  A    between atoms: C_18  and  C_19 
ROOT
HETATM    1  C   UNK N   1      33.954  17.030   8.722  0.00  0.00     0.127 A 
HETATM    2  C   UNK N   1      33.103  16.023   8.357  0.00  0.00     0.032 A 
HETATM    3  C   UNK N   1      33.111  14.720   9.141  0.00  0.00     0.209 A 
HETATM    4  O   UNK N   1      32.372  13.789   8.858  0.00  0.00    -0.285 OA
HETATM    5  C   UNK N   1      34.030  14.572  10.271  0.00  0.00     0.105 A 
HETATM    6  C   UNK N   1      34.873  15.607  10.612  0.00  0.00     0.089 A 
HETATM    7  S   UNK N   1      35.745  15.087  11.910  0.00  0.00    -0.078 SA
HETATM    8  C   UNK N   1      35.064  13.573  12.039  0.00  0.00     0.139 A 
HETATM    9  N   UNK N   1      34.129  13.443  11.055  0.00  0.00    -0.355 N 
ATOM     10  HN  UNK N   1      33.565  12.605  10.915  1.00  0.00     0.166 HD
HETATM   11  C   UNK N   1      34.887  16.870   9.877  0.00  0.00     0.225 A 
HETATM   12  O   UNK N   1      35.646  17.772  10.201  0.00  0.00    -0.284 OA
ENDROOT
BRANCH   2  13
HETATM   13  C   UNK N   1      32.177  16.257   7.166  0.00  0.00     0.046 C 
BRANCH  13  14
HETATM   14  C   UNK N   1      30.789  16.722   7.569  0.00  0.00     0.005 C 
BRANCH  14  15
HETATM   15  C   UNK N   1      29.856  17.077   6.439  0.00  0.00     0.000 C 
BRANCH  15  16
HETATM   16  C   UNK N   1      30.779  17.368   5.272  0.00  0.00     0.000 C 
BRANCH  16  17
HETATM   17  C   UNK N   1      30.312  16.758   3.972  0.00  0.00    -0.000 C 
BRANCH  17  18
HETATM   18  C   UNK N   1      31.524  16.667   3.063  0.00  0.00    -0.005 C 
HETATM   19  C   UNK N   1      32.715  17.341   3.703  0.00  0.00     0.005 C 
ENDBRANCH  17  18
ENDBRANCH  16  17
ENDBRANCH  15  16
ENDBRANCH  14  15
ENDBRANCH  13  14
ENDBRANCH   2  13
BRANCH   1  20
HETATM   20  O   UNK N   1      33.959  18.192   8.037  0.00  0.00    -0.356 OA
HETATM   21  H   UNK N   1      34.719  18.739   8.049  0.00  0.00     0.218 HD
ENDBRANCH   1  20
TORSDOF 7
ENDMDL
MODEL 8
REMARK VINA RESULT:      -5.6     10.702     13.558
REMARK  7 active torsions:
REMARK  status: ('A' for Active; 'I' for Inactive)
REMARK    1  A    between atoms: O_1  and  C_2 
REMARK    2  A    between atoms: C_3  and  C_14 
REMARK    3  A    between atoms: C_14  and  C_15 
REMARK    4  A    between atoms: C_15  and  C_16 
REMARK    5  A    between atoms: C_16  and  C_17 
REMARK    6  A    between atoms: C_17  and  C_18 
REMARK    7  A    between atoms: C_18  and  C_19 
ROOT
HETATM    1  C   UNK N   1      23.809  20.412   3.001  0.00  0.00     0.127 A 
HETATM    2  C   UNK N   1      24.503  19.538   3.793  0.00  0.00     0.032 A 
HETATM    3  C   UNK N   1      23.779  18.347   4.401  0.00  0.00     0.209 A 
HETATM    4  O   UNK N   1      24.351  17.536   5.115  0.00  0.00    -0.285 OA
HETATM    5  C   UNK N   1      22.354  18.161   4.125  0.00  0.00     0.105 A 
HETATM    6  C   UNK N   1      21.685  19.060   3.323  0.00  0.00     0.089 A 
HETATM    7  S   UNK N   1      20.125  18.536   3.239  0.00  0.00    -0.078 SA
HETATM    8  C   UNK N   1      20.293  17.190   4.204  0.00  0.00     0.139 A 
HETATM    9  N   UNK N   1      21.592  17.124   4.617  0.00  0.00    -0.355 N 
ATOM     10  HN  UNK N   1      21.957  16.388   5.222  1.00  0.00     0.166 HD
HETATM   11  C   UNK N   1      22.354  20.213   2.725  0.00  0.00     0.225 A 
HETATM   12  O   UNK N   1      21.737  20.995   2.017  0.00  0.00    -0.284 OA
ENDROOT
BRANCH   2  13
HETATM   13  C   UNK N   1      25.987  19.804   4.032  0.00  0.00     0.046 C 
BRANCH  13  14
HETATM   14  C   UNK N   1      26.257  20.612   5.288  0.00  0.00     0.005 C 
BRANCH  14  15
HETATM   15  C   UNK N   1      27.665  20.551   5.826  0.00  0.00     0.000 C 
BRANCH  15  16
HETATM   16  C   UNK N   1      27.507  19.953   7.210  0.00  0.00     0.000 C 
BRANCH  16  17
HETATM   17  C   UNK N   1      28.237  18.643   7.383  0.00  0.00    -0.000 C 
BRANCH  17  18
HETATM   18  C   UNK N   1      28.304  18.364   8.873  0.00  0.00    -0.005 C 
HETATM   19  C   UNK N   1      29.709  18.582   9.387  0.00  0.00     0.005 C 
ENDBRANCH  17  18
ENDBRANCH  16  17
ENDBRANCH  15  16
ENDBRANCH  14  15
ENDBRANCH  13  14
ENDBRANCH   2  13
BRANCH   1  20
HETATM   20  O   UNK N   1      24.437  21.473   2.455  0.00  0.00    -0.356 OA
HETATM   21  H   UNK N   1      25.373  21.514   2.454  0.00  0.00     0.218 HD
ENDBRANCH   1  20
TORSDOF 7
ENDMDL
MODEL 9
REMARK VINA RESULT:      -5.5      3.831      8.276
REMARK  7 active torsions:
REMARK  status: ('A' for Active; 'I' for Inactive)
REMARK    1  A    between atoms: O_1  and  C_2 
REMARK    2  A    between atoms: C_3  and  C_14 
REMARK    3  A    between atoms: C_14  and  C_15 
REMARK    4  A    between atoms: C_15  and  C_16 
REMARK    5  A    between atoms: C_16  and  C_17 
REMARK    6  A    between atoms: C_17  and  C_18 
REMARK    7  A    between atoms: C_18  and  C_19 
ROOT
HETATM    1  C   UNK N   1      32.194  15.208   7.507  0.00  0.00     0.127 A 
HETATM    2  C   UNK N   1      32.464  16.528   7.270  0.00  0.00     0.032 A 
HETATM    3  C   UNK N   1      33.408  17.274   8.199  0.00  0.00     0.209 A 
HETATM    4  O   UNK N   1      33.683  18.453   8.033  0.00  0.00    -0.285 OA
HETATM    5  C   UNK N   1      34.008  16.562   9.328  0.00  0.00     0.105 A 
HETATM    6  C   UNK N   1      33.715  15.232   9.538  0.00  0.00     0.089 A 
HETATM    7  S   UNK N   1      34.559  14.777  10.878  0.00  0.00    -0.078 SA
HETATM    8  C   UNK N   1      35.285  16.242  11.189  0.00  0.00     0.139 A 
HETATM    9  N   UNK N   1      34.876  17.129  10.237  0.00  0.00    -0.355 N 
ATOM     10  HN  UNK N   1      35.178  18.103  10.201  1.00  0.00     0.166 HD
HETATM   11  C   UNK N   1      32.812  14.490   8.662  0.00  0.00     0.225 A 
HETATM   12  O   UNK N   1      32.569  13.311   8.871  0.00  0.00    -0.284 OA
ENDROOT
BRANCH   2  13
HETATM   13  C   UNK N   1      31.796  17.197   6.070  0.00  0.00     0.046 C 
BRANCH  13  14
HETATM   14  C   UNK N   1      32.710  17.312   4.863  0.00  0.00     0.005 C 
BRANCH  14  15
HETATM   15  C   UNK N   1      32.048  17.167   3.516  0.00  0.00     0.000 C 
BRANCH  15  16
HETATM   16  C   UNK N   1      30.807  16.345   3.798  0.00  0.00     0.000 C 
BRANCH  16  17
HETATM   17  C   UNK N   1      29.808  16.359   2.666  0.00  0.00    -0.000 C 
BRANCH  17  18
HETATM   18  C   UNK N   1      28.435  16.547   3.285  0.00  0.00    -0.005 C 
HETATM   19  C   UNK N   1      28.464  17.667   4.300  0.00  0.00     0.005 C 
ENDBRANCH  17  18
ENDBRANCH  16  17
ENDBRANCH  15  16
ENDBRANCH  14  15
ENDBRANCH  13  14
ENDBRANCH   2  13
BRANCH   1  20
HETATM   20  O   UNK N   1      31.358  14.532   6.691  0.00  0.00    -0.356 OA
HETATM   21  H   UNK N   1      30.434  14.672   6.748  0.00  0.00     0.218 HD
ENDBRANCH   1  20
TORSDOF 7
ENDMDL
