MODEL 1
REMARK VINA RESULT:      -5.6      0.000      0.000
REMARK  6 active torsions:
REMARK  status: ('A' for Active; 'I' for Inactive)
REMARK    1  A    between atoms: C_2  and  N_1 
REMARK    2  A    between atoms: C_2  and  C_3 
REMARK    3  A    between atoms: C_2  and  C_5 
REMARK    4  A    between atoms: C_3  and  O_15 
REMARK    5  A    between atoms: C_5  and  C_6 
REMARK    6  A    between atoms: C_11  and  O_12 
ROOT
HETATM    1  C   UNK N   1      35.536  13.650  12.732  0.00  0.00    -0.053 A 
HETATM    2  C   UNK N   1      36.253  14.460  13.618  0.00  0.00     0.029 A 
HETATM    3  C   UNK N   1      36.358  14.106  14.968  0.00  0.00     0.045 A 
HETATM    4  C   UNK N   1      34.931  12.479  13.199  0.00  0.00     0.029 A 
HETATM    5  C   UNK N   1      35.023  12.121  14.543  0.00  0.00     0.045 A 
HETATM    6  C   UNK N   1      35.735  12.935  15.435  0.00  0.00     0.100 A 
HETATM    7 Br   UNK N   1      37.338  15.233  16.160  0.00  0.00    -0.048 Br
HETATM    8 Br   UNK N   1      34.150  10.530  15.136  0.00  0.00    -0.048 Br
ENDROOT
BRANCH   1   9
HETATM    9  C   UNK N   1      35.385  14.059  11.299  0.00  0.00     0.074 C 
BRANCH   9  10
HETATM   10  C   UNK N   1      34.757  15.452  11.173  0.00  0.00     0.177 C 
BRANCH  10  11
HETATM   11  N   UNK N   1      33.589  15.394  10.303  0.00  0.00    -0.417 N 
HETATM   12  H   UNK N   1      33.291  14.514   9.883  0.00  0.00     0.150 HD
HETATM   13  H   UNK N   1      33.061  16.247  10.112  0.00  0.00     0.150 HD
ENDBRANCH  10  11
BRANCH  10  14
HETATM   14  C   UNK N   1      35.763  16.428  10.631  0.00  0.00     0.163 C 
HETATM   15  O   UNK N   1      35.401  17.477  10.119  0.00  0.00    -0.648 OA
BRANCH  14  16
HETATM   16  O   UNK N   1      37.078  16.157  10.731  0.00  0.00    -0.775 OA
HETATM   17  H   UNK N   1      37.374  15.293  10.944  0.00  0.00     0.167 HD
ENDBRANCH  14  16
ENDBRANCH  10  14
ENDBRANCH   9  10
ENDBRANCH   1   9
BRANCH   6  18
HETATM   18  O   UNK N   1      35.819  12.598  16.734  0.00  0.00    -0.358 OA
HETATM   19  H   UNK N   1      35.092  12.698  17.317  0.00  0.00     0.217 HD
ENDBRANCH   6  18
TORSDOF 6
ENDMDL
MODEL 2
REMARK VINA RESULT:      -5.4      7.821      9.924
REMARK  6 active torsions:
REMARK  status: ('A' for Active; 'I' for Inactive)
REMARK    1  A    between atoms: C_2  and  N_1 
REMARK    2  A    between atoms: C_2  and  C_3 
REMARK    3  A    between atoms: C_2  and  C_5 
REMARK    4  A    between atoms: C_3  and  O_15 
REMARK    5  A    between atoms: C_5  and  C_6 
REMARK    6  A    between atoms: C_11  and  O_12 
ROOT
HETATM    1  C   UNK N   1      30.301  17.271   6.841  0.00  0.00    -0.053 A 
HETATM    2  C   UNK N   1      30.634  17.178   5.486  0.00  0.00     0.029 A 
HETATM    3  C   UNK N   1      31.976  17.185   5.089  0.00  0.00     0.045 A 
HETATM    4  C   UNK N   1      31.315  17.364   7.799  0.00  0.00     0.029 A 
HETATM    5  C   UNK N   1      32.654  17.380   7.413  0.00  0.00     0.045 A 
HETATM    6  C   UNK N   1      32.991  17.293   6.055  0.00  0.00     0.100 A 
HETATM    7 Br   UNK N   1      32.405  17.062   3.231  0.00  0.00    -0.048 Br
HETATM    8 Br   UNK N   1      34.000  17.541   8.759  0.00  0.00    -0.048 Br
ENDROOT
BRANCH   1   9
HETATM    9  C   UNK N   1      28.863  17.314   7.256  0.00  0.00     0.074 C 
BRANCH   9  10
HETATM   10  C   UNK N   1      28.507  18.646   7.925  0.00  0.00     0.177 C 
BRANCH  10  11
HETATM   11  N   UNK N   1      27.732  18.404   9.136  0.00  0.00    -0.417 N 
HETATM   12  H   UNK N   1      26.845  17.903   9.099  0.00  0.00     0.150 HD
HETATM   13  H   UNK N   1      28.083  18.741  10.033  0.00  0.00     0.150 HD
ENDBRANCH  10  11
BRANCH  10  14
HETATM   14  C   UNK N   1      27.730  19.513   6.975  0.00  0.00     0.163 C 
HETATM   15  O   UNK N   1      27.963  19.488   5.775  0.00  0.00    -0.648 OA
BRANCH  14  16
HETATM   16  O   UNK N   1      26.751  20.310   7.444  0.00  0.00    -0.775 OA
HETATM   17  H   UNK N   1      25.982  19.944   7.833  0.00  0.00     0.167 HD
ENDBRANCH  14  16
ENDBRANCH  10  14
ENDBRANCH   9  10
ENDBRANCH   1   9
BRANCH   6  18
HETATM   18  O   UNK N   1      34.282  17.316   5.678  0.00  0.00    -0.358 OA
HETATM   19  H   UNK N   1      34.836  16.566   5.774  0.00  0.00     0.217 HD
ENDBRANCH   6  18
TORSDOF 6
ENDMDL
MODEL 3
REMARK VINA RESULT:      -5.4      3.354      4.715
REMARK  6 active torsions:
REMARK  status: ('A' for Active; 'I' for Inactive)
REMARK    1  A    between atoms: C_2  and  N_1 
REMARK    2  A    between atoms: C_2  and  C_3 
REMARK    3  A    between atoms: C_2  and  C_5 
REMARK    4  A    between atoms: C_3  and  O_15 
REMARK    5  A    between atoms: C_5  and  C_6 
REMARK    6  A    between atoms: C_11  and  O_12 
ROOT
HETATM    1  C   UNK N   1      35.049  15.080   9.190  0.00  0.00    -0.053 A 
HETATM    2  C   UNK N   1      36.125  14.545   8.475  0.00  0.00     0.029 A 
HETATM    3  C   UNK N   1      37.197  13.953   9.154  0.00  0.00     0.045 A 
HETATM    4  C   UNK N   1      35.045  15.015  10.587  0.00  0.00     0.029 A 
HETATM    5  C   UNK N   1      36.110  14.435  11.273  0.00  0.00     0.045 A 
HETATM    6  C   UNK N   1      37.194  13.903  10.558  0.00  0.00     0.100 A 
HETATM    7 Br   UNK N   1      38.658  13.234   8.154  0.00  0.00    -0.048 Br
HETATM    8 Br   UNK N   1      36.070  14.400  13.181  0.00  0.00    -0.048 Br
ENDROOT
BRANCH   1   9
HETATM    9  C   UNK N   1      33.929  15.757   8.462  0.00  0.00     0.074 C 
BRANCH   9  10
HETATM   10  C   UNK N   1      33.761  17.213   8.911  0.00  0.00     0.177 C 
BRANCH  10  11
HETATM   11  N   UNK N   1      32.348  17.573   8.915  0.00  0.00    -0.417 N 
HETATM   12  H   UNK N   1      32.025  18.421   9.379  0.00  0.00     0.150 HD
HETATM   13  H   UNK N   1      31.674  16.968   8.445  0.00  0.00     0.150 HD
ENDBRANCH  10  11
BRANCH  10  14
HETATM   14  C   UNK N   1      34.530  18.129   8.001  0.00  0.00     0.163 C 
HETATM   15  O   UNK N   1      34.502  17.973   6.789  0.00  0.00    -0.648 OA
BRANCH  14  16
HETATM   16  O   UNK N   1      35.240  19.148   8.523  0.00  0.00    -0.775 OA
HETATM   17  H   UNK N   1      36.075  19.380   8.169  0.00  0.00     0.167 HD
ENDBRANCH  14  16
ENDBRANCH  10  14
ENDBRANCH   9  10
ENDBRANCH   1   9
BRANCH   6  18
HETATM   18  O   UNK N   1      38.228  13.350  11.216  0.00  0.00    -0.358 OA
HETATM   19  H   UNK N   1      38.713  13.826  11.862  0.00  0.00     0.217 HD
ENDBRANCH   6  18
TORSDOF 6
ENDMDL
MODEL 4
REMARK VINA RESULT:      -5.4      7.698      9.716
REMARK  6 active torsions:
REMARK  status: ('A' for Active; 'I' for Inactive)
REMARK    1  A    between atoms: C_2  and  N_1 
REMARK    2  A    between atoms: C_2  and  C_3 
REMARK    3  A    between atoms: C_2  and  C_5 
REMARK    4  A    between atoms: C_3  and  O_15 
REMARK    5  A    between atoms: C_5  and  C_6 
REMARK    6  A    between atoms: C_11  and  O_12 
ROOT
HETATM    1  C   UNK N   1      30.373  17.299   6.884  0.00  0.00    -0.053 A 
HETATM    2  C   UNK N   1      31.372  17.348   7.862  0.00  0.00     0.029 A 
HETATM    3  C   UNK N   1      32.721  17.283   7.494  0.00  0.00     0.045 A 
HETATM    4  C   UNK N   1      30.728  17.192   5.536  0.00  0.00     0.029 A 
HETATM    5  C   UNK N   1      32.068  17.120   5.160  0.00  0.00     0.045 A 
HETATM    6  C   UNK N   1      33.072  17.162   6.139  0.00  0.00     0.100 A 
HETATM    7 Br   UNK N   1      34.066  17.346   8.850  0.00  0.00    -0.048 Br
HETATM    8 Br   UNK N   1      32.499  16.943   3.308  0.00  0.00    -0.048 Br
ENDROOT
BRANCH   1   9
HETATM    9  C   UNK N   1      28.931  17.318   7.287  0.00  0.00     0.074 C 
BRANCH   9  10
HETATM   10  C   UNK N   1      28.542  18.651   7.936  0.00  0.00     0.177 C 
BRANCH  10  11
HETATM   11  N   UNK N   1      27.764  18.409   9.144  0.00  0.00    -0.417 N 
HETATM   12  H   UNK N   1      26.863  18.865   9.287  0.00  0.00     0.150 HD
HETATM   13  H   UNK N   1      28.126  17.774   9.856  0.00  0.00     0.150 HD
ENDBRANCH  10  11
BRANCH  10  14
HETATM   14  C   UNK N   1      27.756  19.490   6.968  0.00  0.00     0.163 C 
HETATM   15  O   UNK N   1      27.984  19.438   5.768  0.00  0.00    -0.648 OA
BRANCH  14  16
HETATM   16  O   UNK N   1      26.773  20.290   7.422  0.00  0.00    -0.775 OA
HETATM   17  H   UNK N   1      26.254  20.795   6.827  0.00  0.00     0.167 HD
ENDBRANCH  14  16
ENDBRANCH  10  14
ENDBRANCH   9  10
ENDBRANCH   1   9
BRANCH   6  18
HETATM   18  O   UNK N   1      34.365  17.084   5.781  0.00  0.00    -0.358 OA
HETATM   19  H   UNK N   1      34.622  16.872   4.904  0.00  0.00     0.217 HD
ENDBRANCH   6  18
TORSDOF 6
ENDMDL
MODEL 5
REMARK VINA RESULT:      -5.3      7.250      9.590
REMARK  6 active torsions:
REMARK  status: ('A' for Active; 'I' for Inactive)
REMARK    1  A    between atoms: C_2  and  N_1 
REMARK    2  A    between atoms: C_2  and  C_3 
REMARK    3  A    between atoms: C_2  and  C_5 
REMARK    4  A    between atoms: C_3  and  O_15 
REMARK    5  A    between atoms: C_5  and  C_6 
REMARK    6  A    between atoms: C_11  and  O_12 
ROOT
HETATM    1  C   UNK N   1      31.394  17.387   7.155  0.00  0.00    -0.053 A 
HETATM    2  C   UNK N   1      30.001  17.459   7.069  0.00  0.00     0.029 A 
HETATM    3  C   UNK N   1      29.366  17.362   5.825  0.00  0.00     0.045 A 
HETATM    4  C   UNK N   1      32.152  17.209   5.993  0.00  0.00     0.029 A 
HETATM    5  C   UNK N   1      31.530  17.118   4.749  0.00  0.00     0.045 A 
HETATM    6  C   UNK N   1      30.133  17.197   4.659  0.00  0.00     0.100 A 
HETATM    7 Br   UNK N   1      27.460  17.469   5.733  0.00  0.00    -0.048 Br
HETATM    8 Br   UNK N   1      32.613  16.907   3.190  0.00  0.00    -0.048 Br
ENDROOT
BRANCH   1   9
HETATM    9  C   UNK N   1      32.071  17.543   8.482  0.00  0.00     0.074 C 
BRANCH   9  10
HETATM   10  C   UNK N   1      33.386  16.757   8.542  0.00  0.00     0.177 C 
BRANCH  10  11
HETATM   11  N   UNK N   1      33.345  15.801   9.641  0.00  0.00    -0.417 N 
HETATM   12  H   UNK N   1      34.051  15.818  10.377  0.00  0.00     0.150 HD
HETATM   13  H   UNK N   1      32.599  15.105   9.676  0.00  0.00     0.150 HD
ENDBRANCH  10  11
BRANCH  10  14
HETATM   14  C   UNK N   1      34.545  17.697   8.711  0.00  0.00     0.163 C 
HETATM   15  O   UNK N   1      35.246  17.650   9.712  0.00  0.00    -0.648 OA
BRANCH  14  16
HETATM   16  O   UNK N   1      34.832  18.586   7.741  0.00  0.00    -0.775 OA
HETATM   17  H   UNK N   1      34.441  18.512   6.893  0.00  0.00     0.167 HD
ENDBRANCH  14  16
ENDBRANCH  10  14
ENDBRANCH   9  10
ENDBRANCH   1   9
BRANCH   6  18
HETATM   18  O   UNK N   1      29.530  17.118   3.460  0.00  0.00    -0.358 OA
HETATM   19  H   UNK N   1      29.905  16.632   2.751  0.00  0.00     0.217 HD
ENDBRANCH   6  18
TORSDOF 6
ENDMDL
MODEL 6
REMARK VINA RESULT:      -5.2      0.671      2.600
REMARK  6 active torsions:
REMARK  status: ('A' for Active; 'I' for Inactive)
REMARK    1  A    between atoms: C_2  and  N_1 
REMARK    2  A    between atoms: C_2  and  C_3 
REMARK    3  A    between atoms: C_2  and  C_5 
REMARK    4  A    between atoms: C_3  and  O_15 
REMARK    5  A    between atoms: C_5  and  C_6 
REMARK    6  A    between atoms: C_11  and  O_12 
ROOT
HETATM    1  C   UNK N   1      35.450  13.768  12.557  0.00  0.00    -0.053 A 
HETATM    2  C   UNK N   1      34.846  12.590  13.006  0.00  0.00     0.029 A 
HETATM    3  C   UNK N   1      34.975  12.198  14.344  0.00  0.00     0.045 A 
HETATM    4  C   UNK N   1      36.178  14.558  13.452  0.00  0.00     0.029 A 
HETATM    5  C   UNK N   1      36.319  14.173  14.784  0.00  0.00     0.045 A 
HETATM    6  C   UNK N   1      35.719  12.988  15.236  0.00  0.00     0.100 A 
HETATM    7 Br   UNK N   1      34.145  10.580  14.931  0.00  0.00    -0.048 Br
HETATM    8 Br   UNK N   1      37.349  15.271  15.958  0.00  0.00    -0.048 Br
ENDROOT
BRANCH   1   9
HETATM    9  C   UNK N   1      35.352  14.156  11.114  0.00  0.00     0.074 C 
BRANCH   9  10
HETATM   10  C   UNK N   1      34.473  15.397  10.921  0.00  0.00     0.177 C 
BRANCH  10  11
HETATM   11  N   UNK N   1      33.118  14.997  10.560  0.00  0.00    -0.417 N 
HETATM   12  H   UNK N   1      32.426  15.690  10.277  0.00  0.00     0.150 HD
HETATM   13  H   UNK N   1      32.861  14.010  10.590  0.00  0.00     0.150 HD
ENDBRANCH  10  11
BRANCH  10  14
HETATM   14  C   UNK N   1      35.055  16.285   9.858  0.00  0.00     0.163 C 
HETATM   15  O   UNK N   1      35.083  15.926   8.690  0.00  0.00    -0.648 OA
BRANCH  14  16
HETATM   16  O   UNK N   1      35.531  17.501  10.190  0.00  0.00    -0.775 OA
HETATM   17  H   UNK N   1      35.068  18.278   9.948  0.00  0.00     0.167 HD
ENDBRANCH  14  16
ENDBRANCH  10  14
ENDBRANCH   9  10
ENDBRANCH   1   9
BRANCH   6  18
HETATM   18  O   UNK N   1      35.859  12.609  16.518  0.00  0.00    -0.358 OA
HETATM   19  H   UNK N   1      36.680  12.305  16.855  0.00  0.00     0.217 HD
ENDBRANCH   6  18
TORSDOF 6
ENDMDL
MODEL 7
REMARK VINA RESULT:      -5.2     14.312     15.507
REMARK  6 active torsions:
REMARK  status: ('A' for Active; 'I' for Inactive)
REMARK    1  A    between atoms: C_2  and  N_1 
REMARK    2  A    between atoms: C_2  and  C_3 
REMARK    3  A    between atoms: C_2  and  C_5 
REMARK    4  A    between atoms: C_3  and  O_15 
REMARK    5  A    between atoms: C_5  and  C_6 
REMARK    6  A    between atoms: C_11  and  O_12 
ROOT
HETATM    1  C   UNK N   1      20.833  15.173   8.306  0.00  0.00    -0.053 A 
HETATM    2  C   UNK N   1      20.431  14.398   9.398  0.00  0.00     0.029 A 
HETATM    3  C   UNK N   1      21.229  13.335   9.838  0.00  0.00     0.045 A 
HETATM    4  C   UNK N   1      22.039  14.887   7.659  0.00  0.00     0.029 A 
HETATM    5  C   UNK N   1      22.837  13.827   8.085  0.00  0.00     0.045 A 
HETATM    6  C   UNK N   1      22.433  13.043   9.176  0.00  0.00     0.100 A 
HETATM    7 Br   UNK N   1      20.654  12.287  11.329  0.00  0.00    -0.048 Br
HETATM    8 Br   UNK N   1      24.459  13.457   7.148  0.00  0.00    -0.048 Br
ENDROOT
BRANCH   1   9
HETATM    9  C   UNK N   1      19.952  16.278   7.808  0.00  0.00     0.074 C 
BRANCH   9  10
HETATM   10  C   UNK N   1      19.346  17.082   8.964  0.00  0.00     0.177 C 
BRANCH  10  11
HETATM   11  N   UNK N   1      17.894  17.120   8.836  0.00  0.00    -0.417 N 
HETATM   12  H   UNK N   1      17.451  17.532   8.015  0.00  0.00     0.150 HD
HETATM   13  H   UNK N   1      17.314  16.729   9.579  0.00  0.00     0.150 HD
ENDBRANCH  10  11
BRANCH  10  14
HETATM   14  C   UNK N   1      19.905  18.476   8.975  0.00  0.00     0.163 C 
HETATM   15  O   UNK N   1      19.815  19.177   9.973  0.00  0.00    -0.648 OA
BRANCH  14  16
HETATM   16  O   UNK N   1      20.535  18.953   7.884  0.00  0.00    -0.775 OA
HETATM   17  H   UNK N   1      20.148  19.631   7.367  0.00  0.00     0.167 HD
ENDBRANCH  14  16
ENDBRANCH  10  14
ENDBRANCH   9  10
ENDBRANCH   1   9
BRANCH   6  18
HETATM   18  O   UNK N   1      23.195  12.014   9.584  0.00  0.00    -0.358 OA
HETATM   19  H   UNK N   1      23.453  11.328   8.998  0.00  0.00     0.217 HD
ENDBRANCH   6  18
TORSDOF 6
ENDMDL
MODEL 8
REMARK VINA RESULT:      -5.1     14.316     15.423
REMARK  6 active torsions:
REMARK  status: ('A' for Active; 'I' for Inactive)
REMARK    1  A    between atoms: C_2  and  N_1 
REMARK    2  A    between atoms: C_2  and  C_3 
REMARK    3  A    between atoms: C_2  and  C_5 
REMARK    4  A    between atoms: C_3  and  O_15 
REMARK    5  A    between atoms: C_5  and  C_6 
REMARK    6  A    between atoms: C_11  and  O_12 
ROOT
HETATM    1  C   UNK N   1      20.797  15.108   8.276  0.00  0.00    -0.053 A 
HETATM    2  C   UNK N   1      22.022  14.823   7.667  0.00  0.00     0.029 A 
HETATM    3  C   UNK N   1      22.822  13.780   8.149  0.00  0.00     0.045 A 
HETATM    4  C   UNK N   1      20.369  14.343   9.365  0.00  0.00     0.029 A 
HETATM    5  C   UNK N   1      21.161  13.307   9.857  0.00  0.00     0.045 A 
HETATM    6  C   UNK N   1      22.394  13.022   9.252  0.00  0.00     0.100 A 
HETATM    7 Br   UNK N   1      24.496  13.413   7.303  0.00  0.00    -0.048 Br
HETATM    8 Br   UNK N   1      20.546  12.312  11.367  0.00  0.00    -0.048 Br
ENDROOT
BRANCH   1   9
HETATM    9  C   UNK N   1      19.969  16.257   7.789  0.00  0.00     0.074 C 
BRANCH   9  10
HETATM   10  C   UNK N   1      19.380  17.064   8.952  0.00  0.00     0.177 C 
BRANCH  10  11
HETATM   11  N   UNK N   1      17.927  17.094   8.852  0.00  0.00    -0.417 N 
HETATM   12  H   UNK N   1      17.348  16.520   9.464  0.00  0.00     0.150 HD
HETATM   13  H   UNK N   1      17.483  17.699   8.160  0.00  0.00     0.150 HD
ENDBRANCH  10  11
BRANCH  10  14
HETATM   14  C   UNK N   1      19.933  18.461   8.946  0.00  0.00     0.163 C 
HETATM   15  O   UNK N   1      19.829  19.178   9.932  0.00  0.00    -0.648 OA
BRANCH  14  16
HETATM   16  O   UNK N   1      20.570  18.924   7.854  0.00  0.00    -0.775 OA
HETATM   17  H   UNK N   1      20.124  18.995   7.034  0.00  0.00     0.167 HD
ENDBRANCH  14  16
ENDBRANCH  10  14
ENDBRANCH   9  10
ENDBRANCH   1   9
BRANCH   6  18
HETATM   18  O   UNK N   1      23.165  12.029   9.729  0.00  0.00    -0.358 OA
HETATM   19  H   UNK N   1      22.858  11.443  10.394  0.00  0.00     0.217 HD
ENDBRANCH   6  18
TORSDOF 6
ENDMDL
MODEL 9
REMARK VINA RESULT:      -5.0      7.274      9.377
REMARK  6 active torsions:
REMARK  status: ('A' for Active; 'I' for Inactive)
REMARK    1  A    between atoms: C_2  and  N_1 
REMARK    2  A    between atoms: C_2  and  C_3 
REMARK    3  A    between atoms: C_2  and  C_5 
REMARK    4  A    between atoms: C_3  and  O_15 
REMARK    5  A    between atoms: C_5  and  C_6 
REMARK    6  A    between atoms: C_11  and  O_12 
ROOT
HETATM    1  C   UNK N   1      31.618  17.035   7.186  0.00  0.00    -0.053 A 
HETATM    2  C   UNK N   1      32.252  16.918   5.946  0.00  0.00     0.029 A 
HETATM    3  C   UNK N   1      31.525  17.102   4.764  0.00  0.00     0.045 A 
HETATM    4  C   UNK N   1      30.256  17.343   7.242  0.00  0.00     0.029 A 
HETATM    5  C   UNK N   1      29.521  17.521   6.071  0.00  0.00     0.045 A 
HETATM    6  C   UNK N   1      30.153  17.398   4.825  0.00  0.00     0.100 A 
HETATM    7 Br   UNK N   1      32.413  16.931   3.080  0.00  0.00    -0.048 Br
HETATM    8 Br   UNK N   1      27.656  17.910   6.202  0.00  0.00    -0.048 Br
ENDROOT
BRANCH   1   9
HETATM    9  C   UNK N   1      32.389  16.787   8.446  0.00  0.00     0.074 C 
BRANCH   9  10
HETATM   10  C   UNK N   1      33.880  16.569   8.163  0.00  0.00     0.177 C 
BRANCH  10  11
HETATM   11  N   UNK N   1      34.334  15.340   8.802  0.00  0.00    -0.417 N 
HETATM   12  H   UNK N   1      34.323  15.243   9.817  0.00  0.00     0.150 HD
HETATM   13  H   UNK N   1      34.666  14.566   8.226  0.00  0.00     0.150 HD
ENDBRANCH  10  11
BRANCH  10  14
HETATM   14  C   UNK N   1      34.680  17.741   8.659  0.00  0.00     0.163 C 
HETATM   15  O   UNK N   1      34.759  18.767   7.999  0.00  0.00    -0.648 OA
BRANCH  14  16
HETATM   16  O   UNK N   1      35.297  17.671   9.854  0.00  0.00    -0.775 OA
HETATM   17  H   UNK N   1      35.749  16.893  10.115  0.00  0.00     0.167 HD
ENDBRANCH  14  16
ENDBRANCH  10  14
ENDBRANCH   9  10
ENDBRANCH   1   9
BRANCH   6  18
HETATM   18  O   UNK N   1      29.446  17.560   3.693  0.00  0.00    -0.358 OA
HETATM   19  H   UNK N   1      29.047  16.835   3.253  0.00  0.00     0.217 HD
ENDBRANCH   6  18
TORSDOF 6
ENDMDL
