REMARK  6 active torsions:
REMARK  status: ('A' for Active; 'I' for Inactive)
REMARK    1  A    between atoms: C_2  and  N_1 
REMARK    2  A    between atoms: C_2  and  C_3 
REMARK    3  A    between atoms: C_2  and  C_5 
REMARK    4  A    between atoms: C_3  and  O_15 
REMARK    5  A    between atoms: C_5  and  C_6 
REMARK    6  A    between atoms: C_11  and  O_12 
ROOT
HETATM    1  C   UNK N   1      -0.004  -0.509  -0.549  0.00  0.00    -0.053 A 
HETATM    2  C   UNK N   1       0.159  -1.857  -0.217  0.00  0.00     0.029 A 
HETATM    3  C   UNK N   1      -0.956  -2.647   0.087  0.00  0.00     0.045 A 
HETATM    4  C   UNK N   1      -1.287   0.046  -0.584  0.00  0.00     0.029 A 
HETATM    5  C   UNK N   1      -2.403  -0.730  -0.276  0.00  0.00     0.045 A 
HETATM    6  C   UNK N   1      -2.242  -2.081   0.064  0.00  0.00     0.100 A 
HETATM    7 Br   UNK N   1      -0.706  -4.486   0.544  0.00  0.00    -0.048 Br
HETATM    8 Br   UNK N   1      -4.130   0.084  -0.307  0.00  0.00    -0.048 Br
ENDROOT
BRANCH   1   9
HETATM    9  C   UNK N   1       1.196   0.344  -0.824  0.00  0.00     0.074 C 
BRANCH   9  10
HETATM   10  C   UNK N   1       1.315   1.494   0.183  0.00  0.00     0.177 C 
BRANCH  10  11
HETATM   11  N   UNK N   1       0.261   2.473  -0.052  0.00  0.00    -0.417 N 
HETATM   12  H   UNK N   1       0.485   3.454  -0.217  0.00  0.00     0.150 HD
HETATM   13  H   UNK N   1      -0.714   2.172  -0.052  0.00  0.00     0.150 HD
ENDBRANCH  10  11
BRANCH  10  14
HETATM   14  C   UNK N   1       2.665   2.144   0.071  0.00  0.00     0.163 C 
HETATM   15  O   UNK N   1       2.765   3.337  -0.177  0.00  0.00    -0.648 OA
BRANCH  14  16
HETATM   16  O   UNK N   1       3.778   1.412   0.269  0.00  0.00    -0.775 OA
HETATM   17  H   UNK N   1       3.724   0.487   0.408  0.00  0.00     0.167 HD
ENDBRANCH  14  16
ENDBRANCH  10  14
ENDBRANCH   9  10
ENDBRANCH   1   9
BRANCH   6  18
HETATM   18  O   UNK N   1      -3.315  -2.831   0.370  0.00  0.00    -0.358 OA
HETATM   19  H   UNK N   1      -4.142  -2.444   0.584  0.00  0.00     0.217 HD
ENDBRANCH   6  18
TORSDOF 6
