REMARK  3 active torsions:
REMARK  status: ('A' for Active; 'I' for Inactive)
REMARK    1  A    between atoms: C_2  and  C_20 
REMARK    2  A    between atoms: C_9  and  O_21 
REMARK    3  A    between atoms: C_11  and  O_23 
ROOT
HETATM    1  C   UNK N   1      -1.989   0.201  -0.259  0.00  0.00     0.076 A 
HETATM    2  C   UNK N   1       0.086  -0.831   0.433  0.00  0.00     0.166 C 
HETATM    3  C   UNK N   1       0.774   0.435  -0.099  0.00  0.00     0.034 C 
HETATM    4  C   UNK N   1       2.161   0.820   0.363  0.00  0.00     0.087 C 
HETATM    5  C   UNK N   1      -0.023   1.654   0.333  0.00  0.00     0.034 C 
HETATM    6  C   UNK N   1      -1.476   1.501  -0.023  0.00  0.00    -0.017 A 
HETATM    7  C   UNK N   1      -3.701   2.421  -0.287  0.00  0.00     0.066 A 
HETATM    8  C   UNK N   1      -4.198   1.145  -0.571  0.00  0.00     0.039 A 
HETATM    9  C   UNK N   1      -3.345   0.036  -0.554  0.00  0.00     0.040 A 
HETATM   10  O   UNK N   1      -1.172  -0.891  -0.167  0.00  0.00    -0.340 OA
HETATM   11  C   UNK N   1       2.237   2.302  -0.033  0.00  0.00     0.244 C 
HETATM   12  F   UNK N   1       2.772   3.034   1.009  0.00  0.00    -0.206 F 
HETATM   13  F   UNK N   1       3.013   2.458  -1.167  0.00  0.00    -0.206 F 
HETATM   14  C   UNK N   1       0.791   2.751  -0.319  0.00  0.00     0.089 C 
HETATM   15  C   UNK N   1      -2.342   2.600  -0.013  0.00  0.00     0.046 A 
ENDROOT
BRANCH   2  16
HETATM   16  C   UNK N   1       0.839  -2.121   0.194  0.00  0.00    -0.028 A 
HETATM   17  C   UNK N   1       0.276  -3.333   0.622  0.00  0.00     0.012 A 
HETATM   18  C   UNK N   1       0.969  -4.535   0.452  0.00  0.00     0.037 A 
HETATM   19  C   UNK N   1       2.236  -4.535  -0.138  0.00  0.00     0.065 A 
HETATM   20  C   UNK N   1       2.804  -3.335  -0.570  0.00  0.00     0.037 A 
HETATM   21  C   UNK N   1       2.108  -2.135  -0.409  0.00  0.00     0.012 A 
BRANCH  19  22
HETATM   22  O   UNK N   1       2.909  -5.687  -0.287  0.00  0.00    -0.361 OA
HETATM   23  H   UNK N   1       2.447  -6.496  -0.391  0.00  0.00     0.217 HD
ENDBRANCH  19  22
ENDBRANCH   2  16
BRANCH   7  24
HETATM   24  O   UNK N   1      -4.531   3.477  -0.272  0.00  0.00    -0.361 OA
HETATM   25  H   UNK N   1      -4.183   4.347  -0.262  0.00  0.00     0.217 HD
ENDBRANCH   7  24
TORSDOF 3
