MODEL 1
REMARK VINA RESULT:      -7.3      0.000      0.000
REMARK  3 active torsions:
REMARK  status: ('A' for Active; 'I' for Inactive)
REMARK    1  A    between atoms: C_2  and  C_20 
REMARK    2  A    between atoms: C_9  and  O_21 
REMARK    3  A    between atoms: C_11  and  O_23 
ROOT
HETATM    1  C   UNK N   1      28.899  18.110   7.056  0.00  0.00     0.076 A 
HETATM    2  C   UNK N   1      27.336  17.824   5.233  0.00  0.00     0.166 C 
HETATM    3  C   UNK N   1      28.549  17.390   4.397  0.00  0.00     0.034 C 
HETATM    4  C   UNK N   1      28.374  16.568   3.140  0.00  0.00     0.087 C 
HETATM    5  C   UNK N   1      29.421  16.464   5.228  0.00  0.00     0.034 C 
HETATM    6  C   UNK N   1      29.734  17.076   6.565  0.00  0.00    -0.017 A 
HETATM    7  C   UNK N   1      30.989  17.113   8.636  0.00  0.00     0.066 A 
HETATM    8  C   UNK N   1      30.198  18.168   9.100  0.00  0.00     0.039 A 
HETATM    9  C   UNK N   1      29.153  18.665   8.314  0.00  0.00     0.040 A 
HETATM   10  O   UNK N   1      27.831  18.543   6.321  0.00  0.00    -0.340 OA
HETATM   11  C   UNK N   1      29.784  16.000   2.922  0.00  0.00     0.244 C 
HETATM   12  F   UNK N   1      29.701  14.656   2.615  0.00  0.00    -0.206 F 
HETATM   13  F   UNK N   1      30.425  16.679   1.902  0.00  0.00    -0.206 F 
HETATM   14  C   UNK N   1      30.544  16.202   4.248  0.00  0.00     0.089 C 
HETATM   15  C   UNK N   1      30.758  16.566   7.371  0.00  0.00     0.046 A 
ENDROOT
BRANCH   2  16
HETATM   16  C   UNK N   1      26.305  18.646   4.492  0.00  0.00    -0.028 A 
HETATM   17  C   UNK N   1      26.722  19.761   3.748  0.00  0.00     0.012 A 
HETATM   18  C   UNK N   1      25.786  20.562   3.088  0.00  0.00     0.037 A 
HETATM   19  C   UNK N   1      24.424  20.263   3.174  0.00  0.00     0.065 A 
HETATM   20  C   UNK N   1      23.998  19.155   3.909  0.00  0.00     0.037 A 
HETATM   21  C   UNK N   1      24.934  18.348   4.560  0.00  0.00     0.012 A 
BRANCH  19  22
HETATM   22  O   UNK N   1      23.523  21.042   2.554  0.00  0.00    -0.361 OA
HETATM   23  H   UNK N   1      22.606  20.902   2.684  0.00  0.00     0.217 HD
ENDBRANCH  19  22
ENDBRANCH   2  16
BRANCH   7  24
HETATM   24  O   UNK N   1      31.970  16.618   9.410  0.00  0.00    -0.361 OA
HETATM   25  H   UNK N   1      32.367  15.797   9.196  0.00  0.00     0.217 HD
ENDBRANCH   7  24
TORSDOF 3
ENDMDL
MODEL 2
REMARK VINA RESULT:      -7.3      4.253      7.071
REMARK  3 active torsions:
REMARK  status: ('A' for Active; 'I' for Inactive)
REMARK    1  A    between atoms: C_2  and  C_20 
REMARK    2  A    between atoms: C_9  and  O_21 
REMARK    3  A    between atoms: C_11  and  O_23 
ROOT
HETATM    1  C   UNK N   1      30.069  16.712   6.529  0.00  0.00     0.076 A 
HETATM    2  C   UNK N   1      32.190  15.695   5.969  0.00  0.00     0.166 C 
HETATM    3  C   UNK N   1      32.833  16.835   6.773  0.00  0.00     0.034 C 
HETATM    4  C   UNK N   1      34.236  16.707   7.321  0.00  0.00     0.087 C 
HETATM    5  C   UNK N   1      32.042  17.051   8.052  0.00  0.00     0.034 C 
HETATM    6  C   UNK N   1      30.575  17.204   7.759  0.00  0.00    -0.017 A 
HETATM    7  C   UNK N   1      28.327  17.790   8.444  0.00  0.00     0.066 A 
HETATM    8  C   UNK N   1      27.834  17.353   7.211  0.00  0.00     0.039 A 
HETATM    9  C   UNK N   1      28.702  16.812   6.256  0.00  0.00     0.040 A 
HETATM   10  O   UNK N   1      30.904  16.114   5.628  0.00  0.00    -0.340 OA
HETATM   11  C   UNK N   1      34.272  17.811   8.388  0.00  0.00     0.244 C 
HETATM   12  F   UNK N   1      34.849  17.321   9.543  0.00  0.00    -0.206 F 
HETATM   13  F   UNK N   1      34.987  18.902   7.928  0.00  0.00    -0.206 F 
HETATM   14  C   UNK N   1      32.807  18.213   8.647  0.00  0.00     0.089 C 
HETATM   15  C   UNK N   1      29.696  17.716   8.719  0.00  0.00     0.046 A 
ENDROOT
BRANCH   2  16
HETATM   16  C   UNK N   1      32.948  15.275   4.729  0.00  0.00    -0.028 A 
HETATM   17  C   UNK N   1      32.988  16.140   3.625  0.00  0.00     0.012 A 
HETATM   18  C   UNK N   1      33.645  15.760   2.451  0.00  0.00     0.037 A 
HETATM   19  C   UNK N   1      34.258  14.507   2.367  0.00  0.00     0.065 A 
HETATM   20  C   UNK N   1      34.227  13.640   3.461  0.00  0.00     0.037 A 
HETATM   21  C   UNK N   1      33.579  14.023   4.637  0.00  0.00     0.012 A 
BRANCH  19  22
HETATM   22  O   UNK N   1      34.875  14.135   1.234  0.00  0.00    -0.361 OA
HETATM   23  H   UNK N   1      35.809  14.049   1.209  0.00  0.00     0.217 HD
ENDBRANCH  19  22
ENDBRANCH   2  16
BRANCH   7  24
HETATM   24  O   UNK N   1      27.485  18.277   9.370  0.00  0.00    -0.361 OA
HETATM   25  H   UNK N   1      26.576  18.385   9.167  0.00  0.00     0.217 HD
ENDBRANCH   7  24
TORSDOF 3
ENDMDL
MODEL 3
REMARK VINA RESULT:      -7.3      4.389      8.497
REMARK  3 active torsions:
REMARK  status: ('A' for Active; 'I' for Inactive)
REMARK    1  A    between atoms: C_2  and  C_20 
REMARK    2  A    between atoms: C_9  and  O_21 
REMARK    3  A    between atoms: C_11  and  O_23 
ROOT
HETATM    1  C   UNK N   1      32.454  16.402   5.860  0.00  0.00     0.076 A 
HETATM    2  C   UNK N   1      32.502  15.822   8.208  0.00  0.00     0.166 C 
HETATM    3  C   UNK N   1      31.387  16.863   8.382  0.00  0.00     0.034 C 
HETATM    4  C   UNK N   1      30.472  16.831   9.586  0.00  0.00     0.087 C 
HETATM    5  C   UNK N   1      30.382  16.713   7.253  0.00  0.00     0.034 C 
HETATM    6  C   UNK N   1      31.072  16.711   5.916  0.00  0.00    -0.017 A 
HETATM    7  C   UNK N   1      31.006  16.830   3.498  0.00  0.00     0.066 A 
HETATM    8  C   UNK N   1      32.380  16.576   3.445  0.00  0.00     0.039 A 
HETATM    9  C   UNK N   1      33.103  16.359   4.623  0.00  0.00     0.040 A 
HETATM   10  O   UNK N   1      33.144  16.114   7.004  0.00  0.00    -0.340 OA
HETATM   11  C   UNK N   1      29.293  17.700   9.124  0.00  0.00     0.244 C 
HETATM   12  F   UNK N   1      28.103  17.081   9.453  0.00  0.00    -0.206 F 
HETATM   13  F   UNK N   1      29.356  18.949   9.714  0.00  0.00    -0.206 F 
HETATM   14  C   UNK N   1      29.425  17.834   7.594  0.00  0.00     0.089 C 
HETATM   15  C   UNK N   1      30.352  16.898   4.731  0.00  0.00     0.046 A 
ENDROOT
BRANCH   2  16
HETATM   16  C   UNK N   1      33.509  15.762   9.335  0.00  0.00    -0.028 A 
HETATM   17  C   UNK N   1      34.449  16.796   9.470  0.00  0.00     0.012 A 
HETATM   18  C   UNK N   1      35.417  16.745  10.476  0.00  0.00     0.037 A 
HETATM   19  C   UNK N   1      35.462  15.655  11.350  0.00  0.00     0.065 A 
HETATM   20  C   UNK N   1      34.530  14.623  11.227  0.00  0.00     0.037 A 
HETATM   21  C   UNK N   1      33.556  14.678  10.227  0.00  0.00     0.012 A 
BRANCH  19  22
HETATM   22  O   UNK N   1      36.402  15.598  12.307  0.00  0.00    -0.361 OA
HETATM   23  H   UNK N   1      37.254  15.960  12.157  0.00  0.00     0.217 HD
ENDBRANCH  19  22
ENDBRANCH   2  16
BRANCH   7  24
HETATM   24  O   UNK N   1      30.311  17.005   2.362  0.00  0.00    -0.361 OA
HETATM   25  H   UNK N   1      30.347  16.357   1.686  0.00  0.00     0.217 HD
ENDBRANCH   7  24
TORSDOF 3
ENDMDL
MODEL 4
REMARK VINA RESULT:      -7.2      2.996      4.172
REMARK  3 active torsions:
REMARK  status: ('A' for Active; 'I' for Inactive)
REMARK    1  A    between atoms: C_2  and  C_20 
REMARK    2  A    between atoms: C_9  and  O_21 
REMARK    3  A    between atoms: C_11  and  O_23 
ROOT
HETATM    1  C   UNK N   1      31.057  17.242   4.974  0.00  0.00     0.076 A 
HETATM    2  C   UNK N   1      29.058  18.494   5.510  0.00  0.00     0.166 C 
HETATM    3  C   UNK N   1      29.149  17.847   6.900  0.00  0.00     0.034 C 
HETATM    4  C   UNK N   1      28.453  18.462   8.092  0.00  0.00     0.087 C 
HETATM    5  C   UNK N   1      30.594  17.868   7.366  0.00  0.00     0.034 C 
HETATM    6  C   UNK N   1      31.507  17.295   6.317  0.00  0.00    -0.017 A 
HETATM    7  C   UNK N   1      33.667  16.450   5.620  0.00  0.00     0.066 A 
HETATM    8  C   UNK N   1      33.207  16.350   4.303  0.00  0.00     0.039 A 
HETATM    9  C   UNK N   1      31.905  16.748   3.979  0.00  0.00     0.040 A 
HETATM   10  O   UNK N   1      29.813  17.703   4.644  0.00  0.00    -0.340 OA
HETATM   11  C   UNK N   1      29.172  17.790   9.272  0.00  0.00     0.244 C 
HETATM   12  F   UNK N   1      29.484  18.739  10.226  0.00  0.00    -0.206 F 
HETATM   13  F   UNK N   1      28.373  16.807   9.826  0.00  0.00    -0.206 F 
HETATM   14  C   UNK N   1      30.457  17.162   8.698  0.00  0.00     0.089 C 
HETATM   15  C   UNK N   1      32.820  16.922   6.626  0.00  0.00     0.046 A 
ENDROOT
BRANCH   2  16
HETATM   16  C   UNK N   1      27.655  18.665   4.970  0.00  0.00    -0.028 A 
HETATM   17  C   UNK N   1      27.269  19.908   4.445  0.00  0.00     0.012 A 
HETATM   18  C   UNK N   1      25.967  20.106   3.979  0.00  0.00     0.037 A 
HETATM   19  C   UNK N   1      25.035  19.067   4.043  0.00  0.00     0.065 A 
HETATM   20  C   UNK N   1      25.409  17.826   4.561  0.00  0.00     0.037 A 
HETATM   21  C   UNK N   1      26.713  17.624   5.018  0.00  0.00     0.012 A 
BRANCH  19  22
HETATM   22  O   UNK N   1      23.779  19.261   3.610  0.00  0.00    -0.361 OA
HETATM   23  H   UNK N   1      23.058  19.207   4.206  0.00  0.00     0.217 HD
ENDBRANCH  19  22
ENDBRANCH   2  16
BRANCH   7  24
HETATM   24  O   UNK N   1      34.929  16.098   5.919  0.00  0.00    -0.361 OA
HETATM   25  H   UNK N   1      35.090  15.402   6.525  0.00  0.00     0.217 HD
ENDBRANCH   7  24
TORSDOF 3
ENDMDL
MODEL 5
REMARK VINA RESULT:      -7.0     10.278     13.740
REMARK  3 active torsions:
REMARK  status: ('A' for Active; 'I' for Inactive)
REMARK    1  A    between atoms: C_2  and  C_20 
REMARK    2  A    between atoms: C_9  and  O_21 
REMARK    3  A    between atoms: C_11  and  O_23 
ROOT
HETATM    1  C   UNK N   1      28.274  27.701  -3.582  0.00  0.00     0.076 A 
HETATM    2  C   UNK N   1      29.165  25.620  -4.432  0.00  0.00     0.166 C 
HETATM    3  C   UNK N   1      27.713  25.257  -4.777  0.00  0.00     0.034 C 
HETATM    4  C   UNK N   1      27.400  24.199  -5.810  0.00  0.00     0.087 C 
HETATM    5  C   UNK N   1      27.029  26.468  -5.387  0.00  0.00     0.034 C 
HETATM    6  C   UNK N   1      27.211  27.683  -4.520  0.00  0.00    -0.017 A 
HETATM    7  C   UNK N   1      26.656  29.965  -3.926  0.00  0.00     0.066 A 
HETATM    8  C   UNK N   1      27.671  29.965  -2.964  0.00  0.00     0.039 A 
HETATM    9  C   UNK N   1      28.481  28.837  -2.794  0.00  0.00     0.040 A 
HETATM   10  O   UNK N   1      29.113  26.629  -3.470  0.00  0.00    -0.340 OA
HETATM   11  C   UNK N   1      25.932  24.499  -6.149  0.00  0.00     0.244 C 
HETATM   12  F   UNK N   1      25.756  24.466  -7.518  0.00  0.00    -0.206 F 
HETATM   13  F   UNK N   1      25.099  23.576  -5.543  0.00  0.00    -0.206 F 
HETATM   14  C   UNK N   1      25.639  25.910  -5.603  0.00  0.00     0.089 C 
HETATM   15  C   UNK N   1      26.425  28.826  -4.704  0.00  0.00     0.046 A 
ENDROOT
BRANCH   2  16
HETATM   16  C   UNK N   1      30.015  24.470  -3.935  0.00  0.00    -0.028 A 
HETATM   17  C   UNK N   1      29.575  23.718  -2.836  0.00  0.00     0.012 A 
HETATM   18  C   UNK N   1      30.360  22.678  -2.330  0.00  0.00     0.037 A 
HETATM   19  C   UNK N   1      31.597  22.387  -2.913  0.00  0.00     0.065 A 
HETATM   20  C   UNK N   1      32.042  23.128  -4.009  0.00  0.00     0.037 A 
HETATM   21  C   UNK N   1      31.254  24.161  -4.521  0.00  0.00     0.012 A 
BRANCH  19  22
HETATM   22  O   UNK N   1      32.359  21.399  -2.418  0.00  0.00    -0.361 OA
HETATM   23  H   UNK N   1      31.971  20.586  -2.158  0.00  0.00     0.217 HD
ENDBRANCH  19  22
ENDBRANCH   2  16
BRANCH   7  24
HETATM   24  O   UNK N   1      25.903  31.062  -4.108  0.00  0.00    -0.361 OA
HETATM   25  H   UNK N   1      26.312  31.892  -4.256  0.00  0.00     0.217 HD
ENDBRANCH   7  24
TORSDOF 3
ENDMDL
MODEL 6
REMARK VINA RESULT:      -7.0     10.596     12.818
REMARK  3 active torsions:
REMARK  status: ('A' for Active; 'I' for Inactive)
REMARK    1  A    between atoms: C_2  and  C_20 
REMARK    2  A    between atoms: C_9  and  O_21 
REMARK    3  A    between atoms: C_11  and  O_23 
ROOT
HETATM    1  C   UNK N   1      30.073  21.295  -5.443  0.00  0.00     0.076 A 
HETATM    2  C   UNK N   1      28.619  22.441  -7.000  0.00  0.00     0.166 C 
HETATM    3  C   UNK N   1      27.945  23.051  -5.762  0.00  0.00     0.034 C 
HETATM    4  C   UNK N   1      27.129  24.320  -5.865  0.00  0.00     0.087 C 
HETATM    5  C   UNK N   1      29.014  23.475  -4.770  0.00  0.00     0.034 C 
HETATM    6  C   UNK N   1      29.977  22.351  -4.503  0.00  0.00    -0.017 A 
HETATM    7  C   UNK N   1      31.777  21.363  -3.218  0.00  0.00     0.066 A 
HETATM    8  C   UNK N   1      31.836  20.294  -4.118  0.00  0.00     0.039 A 
HETATM    9  C   UNK N   1      30.988  20.261  -5.230  0.00  0.00     0.040 A 
HETATM   10  O   UNK N   1      29.299  21.301  -6.570  0.00  0.00    -0.340 OA
HETATM   11  C   UNK N   1      27.062  24.785  -4.403  0.00  0.00     0.244 C 
HETATM   12  F   UNK N   1      27.317  26.140  -4.334  0.00  0.00    -0.206 F 
HETATM   13  F   UNK N   1      25.816  24.511  -3.868  0.00  0.00    -0.206 F 
HETATM   14  C   UNK N   1      28.146  23.994  -3.645  0.00  0.00     0.089 C 
HETATM   15  C   UNK N   1      30.849  22.391  -3.409  0.00  0.00     0.046 A 
ENDROOT
BRANCH   2  16
HETATM   16  C   UNK N   1      27.683  22.091  -8.135  0.00  0.00    -0.028 A 
HETATM   17  C   UNK N   1      26.507  21.376  -7.860  0.00  0.00     0.012 A 
HETATM   18  C   UNK N   1      25.646  21.003  -8.896  0.00  0.00     0.037 A 
HETATM   19  C   UNK N   1      25.957  21.333 -10.218  0.00  0.00     0.065 A 
HETATM   20  C   UNK N   1      27.122  22.047 -10.502  0.00  0.00     0.037 A 
HETATM   21  C   UNK N   1      27.978  22.428  -9.467  0.00  0.00     0.012 A 
BRANCH  19  22
HETATM   22  O   UNK N   1      25.138  20.961 -11.214  0.00  0.00    -0.361 OA
HETATM   23  H   UNK N   1      25.186  20.095 -11.569  0.00  0.00     0.217 HD
ENDBRANCH  19  22
ENDBRANCH   2  16
BRANCH   7  24
HETATM   24  O   UNK N   1      32.616  21.407  -2.170  0.00  0.00    -0.361 OA
HETATM   25  H   UNK N   1      32.303  21.677  -1.329  0.00  0.00     0.217 HD
ENDBRANCH   7  24
TORSDOF 3
ENDMDL
MODEL 7
REMARK VINA RESULT:      -7.0      2.733      3.978
REMARK  3 active torsions:
REMARK  status: ('A' for Active; 'I' for Inactive)
REMARK    1  A    between atoms: C_2  and  C_20 
REMARK    2  A    between atoms: C_9  and  O_21 
REMARK    3  A    between atoms: C_11  and  O_23 
ROOT
HETATM    1  C   UNK N   1      29.529  16.471   4.108  0.00  0.00     0.076 A 
HETATM    2  C   UNK N   1      28.233  18.461   4.568  0.00  0.00     0.166 C 
HETATM    3  C   UNK N   1      28.280  18.027   6.040  0.00  0.00     0.034 C 
HETATM    4  C   UNK N   1      28.041  19.022   7.153  0.00  0.00     0.087 C 
HETATM    5  C   UNK N   1      29.683  17.550   6.375  0.00  0.00     0.034 C 
HETATM    6  C   UNK N   1      30.157  16.530   5.378  0.00  0.00    -0.017 A 
HETATM    7  C   UNK N   1      31.729  14.827   4.673  0.00  0.00     0.066 A 
HETATM    8  C   UNK N   1      31.077  14.732   3.439  0.00  0.00     0.039 A 
HETATM    9  C   UNK N   1      29.982  15.555   3.155  0.00  0.00     0.040 A 
HETATM   10  O   UNK N   1      28.509  17.328   3.802  0.00  0.00    -0.340 OA
HETATM   11  C   UNK N   1      28.624  18.293   8.373  0.00  0.00     0.244 C 
HETATM   12  F   UNK N   1      29.399  19.168   9.109  0.00  0.00    -0.206 F 
HETATM   13  F   UNK N   1      27.609  17.783   9.161  0.00  0.00    -0.206 F 
HETATM   14  C   UNK N   1      29.489  17.144   7.820  0.00  0.00     0.089 C 
HETATM   15  C   UNK N   1      31.270  15.724   5.642  0.00  0.00     0.046 A 
ENDROOT
BRANCH   2  16
HETATM   16  C   UNK N   1      26.930  19.086   4.122  0.00  0.00    -0.028 A 
HETATM   17  C   UNK N   1      26.958  20.285   3.393  0.00  0.00     0.012 A 
HETATM   18  C   UNK N   1      25.768  20.906   3.005  0.00  0.00     0.037 A 
HETATM   19  C   UNK N   1      24.538  20.341   3.352  0.00  0.00     0.065 A 
HETATM   20  C   UNK N   1      24.498  19.147   4.075  0.00  0.00     0.037 A 
HETATM   21  C   UNK N   1      25.687  18.521   4.454  0.00  0.00     0.012 A 
BRANCH  19  22
HETATM   22  O   UNK N   1      23.394  20.945   2.994  0.00  0.00    -0.361 OA
HETATM   23  H   UNK N   1      22.677  20.997   3.595  0.00  0.00     0.217 HD
ENDBRANCH  19  22
ENDBRANCH   2  16
BRANCH   7  24
HETATM   24  O   UNK N   1      32.800  14.058   4.927  0.00  0.00    -0.361 OA
HETATM   25  H   UNK N   1      32.971  13.765   5.801  0.00  0.00     0.217 HD
ENDBRANCH   7  24
TORSDOF 3
ENDMDL
MODEL 8
REMARK VINA RESULT:      -6.9     10.888     13.975
REMARK  3 active torsions:
REMARK  status: ('A' for Active; 'I' for Inactive)
REMARK    1  A    between atoms: C_2  and  C_20 
REMARK    2  A    between atoms: C_9  and  O_21 
REMARK    3  A    between atoms: C_11  and  O_23 
ROOT
HETATM    1  C   UNK N   1      35.408  12.805  16.767  0.00  0.00     0.076 A 
HETATM    2  C   UNK N   1      35.308  12.436  14.379  0.00  0.00     0.166 C 
HETATM    3  C   UNK N   1      36.417  11.396  14.597  0.00  0.00     0.034 C 
HETATM    4  C   UNK N   1      36.671  10.304  13.583  0.00  0.00     0.087 C 
HETATM    5  C   UNK N   1      36.092  10.573  15.832  0.00  0.00     0.034 C 
HETATM    6  C   UNK N   1      35.789  11.462  17.007  0.00  0.00    -0.017 A 
HETATM    7  C   UNK N   1      35.424  11.786  19.379  0.00  0.00     0.066 A 
HETATM    8  C   UNK N   1      35.097  13.127  19.148  0.00  0.00     0.039 A 
HETATM    9  C   UNK N   1      35.086  13.635  17.845  0.00  0.00     0.040 A 
HETATM   10  O   UNK N   1      35.322  13.281  15.489  0.00  0.00    -0.340 OA
HETATM   11  C   UNK N   1      37.487   9.288  14.395  0.00  0.00     0.244 C 
HETATM   12  F   UNK N   1      37.006   8.014  14.162  0.00  0.00    -0.206 F 
HETATM   13  F   UNK N   1      38.824   9.358  14.050  0.00  0.00    -0.206 F 
HETATM   14  C   UNK N   1      37.305   9.668  15.877  0.00  0.00     0.089 C 
HETATM   15  C   UNK N   1      35.769  10.954  18.311  0.00  0.00     0.046 A 
ENDROOT
BRANCH   2  16
HETATM   16  C   UNK N   1      35.427  13.245  13.107  0.00  0.00    -0.028 A 
HETATM   17  C   UNK N   1      36.005  14.523  13.158  0.00  0.00     0.012 A 
HETATM   18  C   UNK N   1      36.089  15.309  12.005  0.00  0.00     0.037 A 
HETATM   19  C   UNK N   1      35.585  14.830  10.793  0.00  0.00     0.065 A 
HETATM   20  C   UNK N   1      35.011  13.559  10.730  0.00  0.00     0.037 A 
HETATM   21  C   UNK N   1      34.935  12.769  11.879  0.00  0.00     0.012 A 
BRANCH  19  22
HETATM   22  O   UNK N   1      35.651  15.591   9.689  0.00  0.00    -0.361 OA
HETATM   23  H   UNK N   1      36.054  15.262   8.909  0.00  0.00     0.217 HD
ENDBRANCH  19  22
ENDBRANCH   2  16
BRANCH   7  24
HETATM   24  O   UNK N   1      35.401  11.295  20.629  0.00  0.00    -0.361 OA
HETATM   25  H   UNK N   1      35.773  10.454  20.810  0.00  0.00     0.217 HD
ENDBRANCH   7  24
TORSDOF 3
ENDMDL
MODEL 9
REMARK VINA RESULT:      -6.9      3.955      5.113
REMARK  3 active torsions:
REMARK  status: ('A' for Active; 'I' for Inactive)
REMARK    1  A    between atoms: C_2  and  C_20 
REMARK    2  A    between atoms: C_9  and  O_21 
REMARK    3  A    between atoms: C_11  and  O_23 
ROOT
HETATM    1  C   UNK N   1      32.170  16.730   6.389  0.00  0.00     0.076 A 
HETATM    2  C   UNK N   1      29.908  16.723   5.531  0.00  0.00     0.166 C 
HETATM    3  C   UNK N   1      29.461  16.795   6.999  0.00  0.00     0.034 C 
HETATM    4  C   UNK N   1      28.081  17.290   7.369  0.00  0.00     0.087 C 
HETATM    5  C   UNK N   1      30.333  17.797   7.737  0.00  0.00     0.034 C 
HETATM    6  C   UNK N   1      31.792  17.508   7.512  0.00  0.00    -0.017 A 
HETATM    7  C   UNK N   1      34.128  17.851   8.053  0.00  0.00     0.066 A 
HETATM    8  C   UNK N   1      34.499  17.041   6.976  0.00  0.00     0.039 A 
HETATM    9  C   UNK N   1      33.523  16.484   6.142  0.00  0.00     0.040 A 
HETATM   10  O   UNK N   1      31.220  16.249   5.531  0.00  0.00    -0.340 OA
HETATM   11  C   UNK N   1      28.242  17.623   8.859  0.00  0.00     0.244 C 
HETATM   12  F   UNK N   1      27.662  18.848   9.126  0.00  0.00    -0.206 F 
HETATM   13  F   UNK N   1      27.656  16.643   9.638  0.00  0.00    -0.206 F 
HETATM   14  C   UNK N   1      29.758  17.676   9.132  0.00  0.00     0.089 C 
HETATM   15  C   UNK N   1      32.776  18.086   8.322  0.00  0.00     0.046 A 
ENDROOT
BRANCH   2  16
HETATM   16  C   UNK N   1      29.043  15.862   4.637  0.00  0.00    -0.028 A 
HETATM   17  C   UNK N   1      28.427  16.440   3.517  0.00  0.00     0.012 A 
HETATM   18  C   UNK N   1      27.589  15.678   2.698  0.00  0.00     0.037 A 
HETATM   19  C   UNK N   1      27.351  14.334   2.997  0.00  0.00     0.065 A 
HETATM   20  C   UNK N   1      27.962  13.748   4.108  0.00  0.00     0.037 A 
HETATM   21  C   UNK N   1      28.807  14.507   4.921  0.00  0.00     0.012 A 
BRANCH  19  22
HETATM   22  O   UNK N   1      26.534  13.606   2.220  0.00  0.00    -0.361 OA
HETATM   23  H   UNK N   1      25.978  12.952   2.598  0.00  0.00     0.217 HD
ENDBRANCH  19  22
ENDBRANCH   2  16
BRANCH   7  24
HETATM   24  O   UNK N   1      35.070  18.411   8.829  0.00  0.00    -0.361 OA
HETATM   25  H   UNK N   1      35.833  17.921   9.068  0.00  0.00     0.217 HD
ENDBRANCH   7  24
TORSDOF 3
ENDMDL
