REMARK  11 active torsions:
REMARK  status: ('A' for Active; 'I' for Inactive)
REMARK    1  A    between atoms: C_3  and  O_4 
REMARK    2  A    between atoms: C_6  and  O_7 
REMARK    3  A    between atoms: C_13  and  C_14 
REMARK    4  A    between atoms: C_14  and  C_15 
REMARK    5  A    between atoms: C_15  and  C_16 
REMARK    6  A    between atoms: C_16  and  C_17 
REMARK    7  A    between atoms: C_17  and  C_18 
REMARK    8  A    between atoms: C_18  and  C_19 
REMARK    9  A    between atoms: C_19  and  C_20 
REMARK   10  A    between atoms: C_20  and  C_21 
REMARK   11  A    between atoms: C_21  and  C_22 
ROOT
HETATM    1  O   UNK N   1      -6.924  -0.986  -0.002  0.00  0.00    -0.285 OA
HETATM    2  C   UNK N   1      -5.830  -0.443  -0.003  0.00  0.00     0.214 A 
HETATM    3  C   UNK N   1      -5.755   1.039  -0.001  0.00  0.00     0.156 A 
HETATM    4  C   UNK N   1      -4.542   1.655  -0.001  0.00  0.00     0.156 A 
HETATM    5  C   UNK N   1      -3.296   0.818  -0.005  0.00  0.00     0.214 A 
HETATM    6  O   UNK N   1      -2.210   1.371  -0.013  0.00  0.00    -0.285 OA
HETATM    7  C   UNK N   1      -4.600  -1.271  -0.005  0.00  0.00     0.001 A 
HETATM    8  C   UNK N   1      -4.740  -2.767  -0.005  0.00  0.00     0.053 C 
HETATM    9  C   UNK N   1      -3.383  -0.689  -0.004  0.00  0.00     0.005 A 
ENDROOT
BRANCH   9  10
HETATM   10  C   UNK N   1      -2.146  -1.586  -0.004  0.00  0.00     0.043 C 
BRANCH  10  11
HETATM   11  C   UNK N   1      -0.846  -0.823   0.084  0.00  0.00     0.005 C 
BRANCH  11  12
HETATM   12  C   UNK N   1       0.392  -1.665  -0.014  0.00  0.00     0.000 C 
BRANCH  12  13
HETATM   13  C   UNK N   1       1.508  -0.651  -0.014  0.00  0.00     0.000 C 
BRANCH  13  14
HETATM   14  C   UNK N   1       2.864  -1.297  -0.015  0.00  0.00     0.000 C 
BRANCH  14  15
HETATM   15  C   UNK N   1       3.874  -0.175  -0.003  0.00  0.00     0.000 C 
BRANCH  15  16
HETATM   16  C   UNK N   1       5.267  -0.748   0.000  0.00  0.00     0.000 C 
BRANCH  16  17
HETATM   17  C   UNK N   1       6.261   0.388   0.001  0.00  0.00    -0.000 C 
BRANCH  17  18
HETATM   18  C   UNK N   1       7.659  -0.186   0.001  0.00  0.00    -0.005 C 
HETATM   19  C   UNK N   1       8.664   0.944  -0.000  0.00  0.00     0.005 C 
ENDBRANCH  17  18
ENDBRANCH  16  17
ENDBRANCH  15  16
ENDBRANCH  14  15
ENDBRANCH  13  14
ENDBRANCH  12  13
ENDBRANCH  11  12
ENDBRANCH  10  11
ENDBRANCH   9  10
BRANCH   4  20
HETATM   20  O   UNK N   1      -4.480   3.019  -0.000  0.00  0.00    -0.350 OA
HETATM   21  C   UNK N   1      -3.331   3.777   0.001  0.00  0.00     0.210 C 
ENDBRANCH   4  20
BRANCH   3  22
HETATM   22  O   UNK N   1      -6.943   1.718   0.001  0.00  0.00    -0.350 OA
HETATM   23  C   UNK N   1      -7.109   3.085   0.002  0.00  0.00     0.210 C 
ENDBRANCH   3  22
TORSDOF 11
