MODEL 1
REMARK VINA RESULT:      -5.4      0.000      0.000
REMARK  11 active torsions:
REMARK  status: ('A' for Active; 'I' for Inactive)
REMARK    1  A    between atoms: C_3  and  O_4 
REMARK    2  A    between atoms: C_6  and  O_7 
REMARK    3  A    between atoms: C_13  and  C_14 
REMARK    4  A    between atoms: C_14  and  C_15 
REMARK    5  A    between atoms: C_15  and  C_16 
REMARK    6  A    between atoms: C_16  and  C_17 
REMARK    7  A    between atoms: C_17  and  C_18 
REMARK    8  A    between atoms: C_18  and  C_19 
REMARK    9  A    between atoms: C_19  and  C_20 
REMARK   10  A    between atoms: C_20  and  C_21 
REMARK   11  A    between atoms: C_21  and  C_22 
ROOT
HETATM    1  O   UNK N   1      29.854  29.079  -5.675  0.00  0.00    -0.285 OA
HETATM    2  C   UNK N   1      28.841  28.834  -5.037  0.00  0.00     0.214 A 
HETATM    3  C   UNK N   1      28.821  29.101  -3.577  0.00  0.00     0.156 A 
HETATM    4  C   UNK N   1      27.699  28.833  -2.856  0.00  0.00     0.156 A 
HETATM    5  C   UNK N   1      26.497  28.268  -3.555  0.00  0.00     0.214 A 
HETATM    6  O   UNK N   1      25.495  28.021  -2.907  0.00  0.00    -0.285 OA
HETATM    7  C   UNK N   1      27.654  28.278  -5.729  0.00  0.00     0.001 A 
HETATM    8  C   UNK N   1      27.735  28.031  -7.209  0.00  0.00     0.053 C 
HETATM    9  C   UNK N   1      26.527  28.003  -5.041  0.00  0.00     0.005 A 
ENDROOT
BRANCH   9  10
HETATM   10  C   UNK N   1      25.330  27.433  -5.801  0.00  0.00     0.043 C 
BRANCH  10  11
HETATM   11  C   UNK N   1      25.082  25.969  -5.528  0.00  0.00     0.005 C 
BRANCH  11  12
HETATM   12  C   UNK N   1      25.771  25.022  -6.467  0.00  0.00     0.000 C 
BRANCH  12  13
HETATM   13  C   UNK N   1      26.677  24.226  -5.563  0.00  0.00     0.000 C 
BRANCH  13  14
HETATM   14  C   UNK N   1      26.225  24.260  -4.131  0.00  0.00     0.000 C 
BRANCH  14  15
HETATM   15  C   UNK N   1      27.476  24.251  -3.285  0.00  0.00     0.000 C 
BRANCH  15  16
HETATM   16  C   UNK N   1      28.543  25.081  -3.950  0.00  0.00     0.000 C 
BRANCH  16  17
HETATM   17  C   UNK N   1      29.892  24.484  -3.633  0.00  0.00    -0.000 C 
BRANCH  17  18
HETATM   18  C   UNK N   1      29.708  23.357  -2.644  0.00  0.00    -0.005 C 
HETATM   19  C   UNK N   1      30.932  22.469  -2.663  0.00  0.00     0.005 C 
ENDBRANCH  17  18
ENDBRANCH  16  17
ENDBRANCH  15  16
ENDBRANCH  14  15
ENDBRANCH  13  14
ENDBRANCH  12  13
ENDBRANCH  11  12
ENDBRANCH  10  11
ENDBRANCH   9  10
BRANCH   4  20
HETATM   20  O   UNK N   1      27.687  29.080  -1.513  0.00  0.00    -0.350 OA
HETATM   21  C   UNK N   1      28.043  30.262  -0.904  0.00  0.00     0.210 C 
ENDBRANCH   4  20
BRANCH   3  22
HETATM   22  O   UNK N   1      29.964  29.615  -3.027  0.00  0.00    -0.350 OA
HETATM   23  C   UNK N   1      31.049  28.902  -2.568  0.00  0.00     0.210 C 
ENDBRANCH   3  22
TORSDOF 11
ENDMDL
MODEL 2
REMARK VINA RESULT:      -5.2      1.460      1.910
REMARK  11 active torsions:
REMARK  status: ('A' for Active; 'I' for Inactive)
REMARK    1  A    between atoms: C_3  and  O_4 
REMARK    2  A    between atoms: C_6  and  O_7 
REMARK    3  A    between atoms: C_13  and  C_14 
REMARK    4  A    between atoms: C_14  and  C_15 
REMARK    5  A    between atoms: C_15  and  C_16 
REMARK    6  A    between atoms: C_16  and  C_17 
REMARK    7  A    between atoms: C_17  and  C_18 
REMARK    8  A    between atoms: C_18  and  C_19 
REMARK    9  A    between atoms: C_19  and  C_20 
REMARK   10  A    between atoms: C_20  and  C_21 
REMARK   11  A    between atoms: C_21  and  C_22 
ROOT
HETATM    1  O   UNK N   1      28.478  29.213  -7.317  0.00  0.00    -0.285 OA
HETATM    2  C   UNK N   1      27.760  28.928  -6.370  0.00  0.00     0.214 A 
HETATM    3  C   UNK N   1      27.788  29.781  -5.156  0.00  0.00     0.156 A 
HETATM    4  C   UNK N   1      26.993  29.474  -4.095  0.00  0.00     0.156 A 
HETATM    5  C   UNK N   1      26.099  28.271  -4.174  0.00  0.00     0.214 A 
HETATM    6  O   UNK N   1      25.393  27.993  -3.221  0.00  0.00    -0.285 OA
HETATM    7  C   UNK N   1      26.876  27.740  -6.450  0.00  0.00     0.001 A 
HETATM    8  C   UNK N   1      26.890  26.917  -7.707  0.00  0.00     0.053 C 
HETATM    9  C   UNK N   1      26.076  27.412  -5.415  0.00  0.00     0.005 A 
ENDROOT
BRANCH   9  10
HETATM   10  C   UNK N   1      25.181  26.180  -5.548  0.00  0.00     0.043 C 
BRANCH  10  11
HETATM   11  C   UNK N   1      25.664  24.994  -4.748  0.00  0.00     0.005 C 
BRANCH  11  12
HETATM   12  C   UNK N   1      26.585  24.065  -5.484  0.00  0.00     0.000 C 
BRANCH  12  13
HETATM   13  C   UNK N   1      27.784  23.965  -4.574  0.00  0.00     0.000 C 
BRANCH  13  14
HETATM   14  C   UNK N   1      28.885  24.904  -4.979  0.00  0.00     0.000 C 
BRANCH  14  15
HETATM   15  C   UNK N   1      29.806  25.023  -3.789  0.00  0.00     0.000 C 
BRANCH  15  16
HETATM   16  C   UNK N   1      30.920  24.015  -3.908  0.00  0.00     0.000 C 
BRANCH  16  17
HETATM   17  C   UNK N   1      30.838  23.058  -2.744  0.00  0.00    -0.000 C 
BRANCH  17  18
HETATM   18  C   UNK N   1      30.400  21.705  -3.253  0.00  0.00    -0.005 C 
HETATM   19  C   UNK N   1      30.734  21.592  -4.724  0.00  0.00     0.005 C 
ENDBRANCH  17  18
ENDBRANCH  16  17
ENDBRANCH  15  16
ENDBRANCH  14  15
ENDBRANCH  13  14
ENDBRANCH  12  13
ENDBRANCH  11  12
ENDBRANCH  10  11
ENDBRANCH   9  10
BRANCH   4  20
HETATM   20  O   UNK N   1      27.024  30.263  -2.981  0.00  0.00    -0.350 OA
HETATM   21  C   UNK N   1      27.847  30.091  -1.891  0.00  0.00     0.210 C 
ENDBRANCH   4  20
BRANCH   3  22
HETATM   22  O   UNK N   1      28.636  30.855  -5.174  0.00  0.00    -0.350 OA
HETATM   23  C   UNK N   1      29.960  30.865  -4.797  0.00  0.00     0.210 C 
ENDBRANCH   3  22
TORSDOF 11
ENDMDL
MODEL 3
REMARK VINA RESULT:      -5.2      1.626      3.099
REMARK  11 active torsions:
REMARK  status: ('A' for Active; 'I' for Inactive)
REMARK    1  A    between atoms: C_3  and  O_4 
REMARK    2  A    between atoms: C_6  and  O_7 
REMARK    3  A    between atoms: C_13  and  C_14 
REMARK    4  A    between atoms: C_14  and  C_15 
REMARK    5  A    between atoms: C_15  and  C_16 
REMARK    6  A    between atoms: C_16  and  C_17 
REMARK    7  A    between atoms: C_17  and  C_18 
REMARK    8  A    between atoms: C_18  and  C_19 
REMARK    9  A    between atoms: C_19  and  C_20 
REMARK   10  A    between atoms: C_20  and  C_21 
REMARK   11  A    between atoms: C_21  and  C_22 
ROOT
HETATM    1  O   UNK N   1      25.422  28.392  -3.374  0.00  0.00    -0.285 OA
HETATM    2  C   UNK N   1      26.132  28.420  -4.368  0.00  0.00     0.214 A 
HETATM    3  C   UNK N   1      27.297  29.339  -4.402  0.00  0.00     0.156 A 
HETATM    4  C   UNK N   1      28.096  29.379  -5.502  0.00  0.00     0.156 A 
HETATM    5  C   UNK N   1      27.780  28.487  -6.668  0.00  0.00     0.214 A 
HETATM    6  O   UNK N   1      28.492  28.529  -7.656  0.00  0.00    -0.285 OA
HETATM    7  C   UNK N   1      25.820  27.538  -5.518  0.00  0.00     0.001 A 
HETATM    8  C   UNK N   1      24.628  26.628  -5.424  0.00  0.00     0.053 C 
HETATM    9  C   UNK N   1      26.594  27.554  -6.622  0.00  0.00     0.005 A 
ENDROOT
BRANCH   9  10
HETATM   10  C   UNK N   1      26.232  26.624  -7.780  0.00  0.00     0.043 C 
BRANCH  10  11
HETATM   11  C   UNK N   1      26.942  25.292  -7.730  0.00  0.00     0.005 C 
BRANCH  11  12
HETATM   12  C   UNK N   1      26.066  24.098  -7.971  0.00  0.00     0.000 C 
BRANCH  12  13
HETATM   13  C   UNK N   1      25.981  23.444  -6.615  0.00  0.00     0.000 C 
BRANCH  13  14
HETATM   14  C   UNK N   1      27.189  23.730  -5.768  0.00  0.00     0.000 C 
BRANCH  14  15
HETATM   15  C   UNK N   1      26.683  23.973  -4.367  0.00  0.00     0.000 C 
BRANCH  15  16
HETATM   16  C   UNK N   1      27.588  24.952  -3.665  0.00  0.00     0.000 C 
BRANCH  16  17
HETATM   17  C   UNK N   1      28.767  25.252  -4.558  0.00  0.00    -0.000 C 
BRANCH  17  18
HETATM   18  C   UNK N   1      29.539  26.413  -3.974  0.00  0.00    -0.005 C 
HETATM   19  C   UNK N   1      30.938  25.958  -3.624  0.00  0.00     0.005 C 
ENDBRANCH  17  18
ENDBRANCH  16  17
ENDBRANCH  15  16
ENDBRANCH  14  15
ENDBRANCH  13  14
ENDBRANCH  12  13
ENDBRANCH  11  12
ENDBRANCH  10  11
ENDBRANCH   9  10
BRANCH   4  20
HETATM   20  O   UNK N   1      29.165  30.227  -5.527  0.00  0.00    -0.350 OA
HETATM   21  C   UNK N   1      30.459  29.909  -5.181  0.00  0.00     0.210 C 
ENDBRANCH   4  20
BRANCH   3  22
HETATM   22  O   UNK N   1      27.505  30.115  -3.293  0.00  0.00    -0.350 OA
HETATM   23  C   UNK N   1      28.229  29.771  -2.173  0.00  0.00     0.210 C 
ENDBRANCH   3  22
TORSDOF 11
ENDMDL
MODEL 4
REMARK VINA RESULT:      -4.9      1.612      2.408
REMARK  11 active torsions:
REMARK  status: ('A' for Active; 'I' for Inactive)
REMARK    1  A    between atoms: C_3  and  O_4 
REMARK    2  A    between atoms: C_6  and  O_7 
REMARK    3  A    between atoms: C_13  and  C_14 
REMARK    4  A    between atoms: C_14  and  C_15 
REMARK    5  A    between atoms: C_15  and  C_16 
REMARK    6  A    between atoms: C_16  and  C_17 
REMARK    7  A    between atoms: C_17  and  C_18 
REMARK    8  A    between atoms: C_18  and  C_19 
REMARK    9  A    between atoms: C_19  and  C_20 
REMARK   10  A    between atoms: C_20  and  C_21 
REMARK   11  A    between atoms: C_21  and  C_22 
ROOT
HETATM    1  O   UNK N   1      28.391  29.169  -7.295  0.00  0.00    -0.285 OA
HETATM    2  C   UNK N   1      27.694  28.874  -6.336  0.00  0.00     0.214 A 
HETATM    3  C   UNK N   1      27.744  29.716  -5.116  0.00  0.00     0.156 A 
HETATM    4  C   UNK N   1      26.971  29.398  -4.042  0.00  0.00     0.156 A 
HETATM    5  C   UNK N   1      26.079  28.193  -4.114  0.00  0.00     0.214 A 
HETATM    6  O   UNK N   1      25.393  27.905  -3.149  0.00  0.00    -0.285 OA
HETATM    7  C   UNK N   1      26.812  27.685  -6.409  0.00  0.00     0.001 A 
HETATM    8  C   UNK N   1      26.803  26.872  -7.673  0.00  0.00     0.053 C 
HETATM    9  C   UNK N   1      26.033  27.345  -5.362  0.00  0.00     0.005 A 
ENDROOT
BRANCH   9  10
HETATM   10  C   UNK N   1      25.140  26.111  -5.487  0.00  0.00     0.043 C 
BRANCH  10  11
HETATM   11  C   UNK N   1      25.694  24.891  -4.792  0.00  0.00     0.005 C 
BRANCH  11  12
HETATM   12  C   UNK N   1      26.265  23.845  -5.704  0.00  0.00     0.000 C 
BRANCH  12  13
HETATM   13  C   UNK N   1      27.708  23.756  -5.276  0.00  0.00     0.000 C 
BRANCH  13  14
HETATM   14  C   UNK N   1      27.913  24.226  -3.864  0.00  0.00     0.000 C 
BRANCH  14  15
HETATM   15  C   UNK N   1      29.349  24.685  -3.769  0.00  0.00     0.000 C 
BRANCH  15  16
HETATM   16  C   UNK N   1      29.496  26.029  -4.433  0.00  0.00     0.000 C 
BRANCH  16  17
HETATM   17  C   UNK N   1      30.941  26.226  -4.820  0.00  0.00    -0.000 C 
BRANCH  17  18
HETATM   18  C   UNK N   1      31.033  27.374  -5.798  0.00  0.00    -0.005 C 
HETATM   19  C   UNK N   1      32.373  28.058  -5.643  0.00  0.00     0.005 C 
ENDBRANCH  17  18
ENDBRANCH  16  17
ENDBRANCH  15  16
ENDBRANCH  14  15
ENDBRANCH  13  14
ENDBRANCH  12  13
ENDBRANCH  11  12
ENDBRANCH  10  11
ENDBRANCH   9  10
BRANCH   4  20
HETATM   20  O   UNK N   1      27.023  30.177  -2.922  0.00  0.00    -0.350 OA
HETATM   21  C   UNK N   1      27.871  30.000  -1.852  0.00  0.00     0.210 C 
ENDBRANCH   4  20
BRANCH   3  22
HETATM   22  O   UNK N   1      28.588  30.793  -5.142  0.00  0.00    -0.350 OA
HETATM   23  C   UNK N   1      29.909  30.813  -4.751  0.00  0.00     0.210 C 
ENDBRANCH   3  22
TORSDOF 11
ENDMDL
MODEL 5
REMARK VINA RESULT:      -4.9     11.510     14.627
REMARK  11 active torsions:
REMARK  status: ('A' for Active; 'I' for Inactive)
REMARK    1  A    between atoms: C_3  and  O_4 
REMARK    2  A    between atoms: C_6  and  O_7 
REMARK    3  A    between atoms: C_13  and  C_14 
REMARK    4  A    between atoms: C_14  and  C_15 
REMARK    5  A    between atoms: C_15  and  C_16 
REMARK    6  A    between atoms: C_16  and  C_17 
REMARK    7  A    between atoms: C_17  and  C_18 
REMARK    8  A    between atoms: C_18  and  C_19 
REMARK    9  A    between atoms: C_19  and  C_20 
REMARK   10  A    between atoms: C_20  and  C_21 
REMARK   11  A    between atoms: C_21  and  C_22 
ROOT
HETATM    1  O   UNK N   1      32.967  17.916   8.519  0.00  0.00    -0.285 OA
HETATM    2  C   UNK N   1      32.185  17.574   7.646  0.00  0.00     0.214 A 
HETATM    3  C   UNK N   1      32.713  17.053   6.361  0.00  0.00     0.156 A 
HETATM    4  C   UNK N   1      31.851  16.667   5.381  0.00  0.00     0.156 A 
HETATM    5  C   UNK N   1      30.373  16.779   5.621  0.00  0.00     0.214 A 
HETATM    6  O   UNK N   1      29.602  16.441   4.740  0.00  0.00    -0.285 OA
HETATM    7  C   UNK N   1      30.725  17.683   7.885  0.00  0.00     0.001 A 
HETATM    8  C   UNK N   1      30.251  18.216   9.207  0.00  0.00     0.053 C 
HETATM    9  C   UNK N   1      29.846  17.308   6.933  0.00  0.00     0.005 A 
ENDROOT
BRANCH   9  10
HETATM   10  C   UNK N   1      28.352  17.438   7.228  0.00  0.00     0.043 C 
BRANCH  10  11
HETATM   11  C   UNK N   1      27.667  18.512   6.418  0.00  0.00     0.005 C 
BRANCH  11  12
HETATM   12  C   UNK N   1      27.798  19.902   6.967  0.00  0.00     0.000 C 
BRANCH  12  13
HETATM   13  C   UNK N   1      27.619  20.778   5.753  0.00  0.00     0.000 C 
BRANCH  13  14
HETATM   14  C   UNK N   1      26.268  20.605   5.120  0.00  0.00     0.000 C 
BRANCH  14  15
HETATM   15  C   UNK N   1      26.510  20.391   3.645  0.00  0.00     0.000 C 
BRANCH  15  16
HETATM   16  C   UNK N   1      25.444  19.486   3.083  0.00  0.00     0.000 C 
BRANCH  16  17
HETATM   17  C   UNK N   1      24.391  19.260   4.141  0.00  0.00    -0.000 C 
BRANCH  17  18
HETATM   18  C   UNK N   1      23.886  17.840   4.031  0.00  0.00    -0.005 C 
HETATM   19  C   UNK N   1      24.696  16.948   4.945  0.00  0.00     0.005 C 
ENDBRANCH  17  18
ENDBRANCH  16  17
ENDBRANCH  15  16
ENDBRANCH  14  15
ENDBRANCH  13  14
ENDBRANCH  12  13
ENDBRANCH  11  12
ENDBRANCH  10  11
ENDBRANCH   9  10
BRANCH   4  20
HETATM   20  O   UNK N   1      32.344  16.190   4.201  0.00  0.00    -0.350 OA
HETATM   21  C   UNK N   1      32.646  16.940   3.088  0.00  0.00     0.210 C 
ENDBRANCH   4  20
BRANCH   3  22
HETATM   22  O   UNK N   1      34.074  16.988   6.233  0.00  0.00    -0.350 OA
HETATM   23  C   UNK N   1      34.869  15.886   6.451  0.00  0.00     0.210 C 
ENDBRANCH   3  22
TORSDOF 11
ENDMDL
MODEL 6
REMARK VINA RESULT:      -4.9     18.752     22.504
REMARK  11 active torsions:
REMARK  status: ('A' for Active; 'I' for Inactive)
REMARK    1  A    between atoms: C_3  and  O_4 
REMARK    2  A    between atoms: C_6  and  O_7 
REMARK    3  A    between atoms: C_13  and  C_14 
REMARK    4  A    between atoms: C_14  and  C_15 
REMARK    5  A    between atoms: C_15  and  C_16 
REMARK    6  A    between atoms: C_16  and  C_17 
REMARK    7  A    between atoms: C_17  and  C_18 
REMARK    8  A    between atoms: C_18  and  C_19 
REMARK    9  A    between atoms: C_19  and  C_20 
REMARK   10  A    between atoms: C_20  and  C_21 
REMARK   11  A    between atoms: C_21  and  C_22 
ROOT
HETATM    1  O   UNK N   1      32.917  12.916   8.671  0.00  0.00    -0.285 OA
HETATM    2  C   UNK N   1      33.549  13.849   9.142  0.00  0.00     0.214 A 
HETATM    3  C   UNK N   1      33.211  15.235   8.732  0.00  0.00     0.156 A 
HETATM    4  C   UNK N   1      33.908  16.283   9.250  0.00  0.00     0.156 A 
HETATM    5  C   UNK N   1      35.013  16.014  10.230  0.00  0.00     0.214 A 
HETATM    6  O   UNK N   1      35.641  16.952  10.688  0.00  0.00    -0.285 OA
HETATM    7  C   UNK N   1      34.639  13.583  10.111  0.00  0.00     0.001 A 
HETATM    8  C   UNK N   1      34.933  12.158  10.489  0.00  0.00     0.053 C 
HETATM    9  C   UNK N   1      35.347  14.601  10.643  0.00  0.00     0.005 A 
ENDROOT
BRANCH   9  10
HETATM   10  C   UNK N   1      36.458  14.274  11.639  0.00  0.00     0.043 C 
BRANCH  10  11
HETATM   11  C   UNK N   1      36.066  14.504  13.079  0.00  0.00     0.005 C 
BRANCH  11  12
HETATM   12  C   UNK N   1      35.476  13.312  13.775  0.00  0.00     0.000 C 
BRANCH  12  13
HETATM   13  C   UNK N   1      36.538  12.927  14.774  0.00  0.00     0.000 C 
BRANCH  13  14
HETATM   14  C   UNK N   1      35.953  12.360  16.036  0.00  0.00     0.000 C 
BRANCH  14  15
HETATM   15  C   UNK N   1      35.307  13.512  16.766  0.00  0.00     0.000 C 
BRANCH  15  16
HETATM   16  C   UNK N   1      35.203  13.188  18.233  0.00  0.00     0.000 C 
BRANCH  16  17
HETATM   17  C   UNK N   1      35.258  11.689  18.405  0.00  0.00    -0.000 C 
BRANCH  17  18
HETATM   18  C   UNK N   1      35.355  11.370  19.879  0.00  0.00    -0.005 C 
HETATM   19  C   UNK N   1      36.601  10.551  20.133  0.00  0.00     0.005 C 
ENDBRANCH  17  18
ENDBRANCH  16  17
ENDBRANCH  15  16
ENDBRANCH  14  15
ENDBRANCH  13  14
ENDBRANCH  12  13
ENDBRANCH  11  12
ENDBRANCH  10  11
ENDBRANCH   9  10
BRANCH   4  20
HETATM   20  O   UNK N   1      33.593  17.555   8.869  0.00  0.00    -0.350 OA
HETATM   21  C   UNK N   1      34.214  18.280   7.877  0.00  0.00     0.210 C 
ENDBRANCH   4  20
BRANCH   3  22
HETATM   22  O   UNK N   1      32.191  15.382   7.833  0.00  0.00    -0.350 OA
HETATM   23  C   UNK N   1      32.297  15.376   6.460  0.00  0.00     0.210 C 
ENDBRANCH   3  22
TORSDOF 11
ENDMDL
MODEL 7
REMARK VINA RESULT:      -4.8     15.240     17.924
REMARK  11 active torsions:
REMARK  status: ('A' for Active; 'I' for Inactive)
REMARK    1  A    between atoms: C_3  and  O_4 
REMARK    2  A    between atoms: C_6  and  O_7 
REMARK    3  A    between atoms: C_13  and  C_14 
REMARK    4  A    between atoms: C_14  and  C_15 
REMARK    5  A    between atoms: C_15  and  C_16 
REMARK    6  A    between atoms: C_16  and  C_17 
REMARK    7  A    between atoms: C_17  and  C_18 
REMARK    8  A    between atoms: C_18  and  C_19 
REMARK    9  A    between atoms: C_19  and  C_20 
REMARK   10  A    between atoms: C_20  and  C_21 
REMARK   11  A    between atoms: C_21  and  C_22 
ROOT
HETATM    1  O   UNK N   1      34.936  17.145  10.533  0.00  0.00    -0.285 OA
HETATM    2  C   UNK N   1      34.799  16.380   9.591  0.00  0.00     0.214 A 
HETATM    3  C   UNK N   1      34.926  14.919   9.819  0.00  0.00     0.156 A 
HETATM    4  C   UNK N   1      34.773  14.056   8.778  0.00  0.00     0.156 A 
HETATM    5  C   UNK N   1      34.479  14.603   7.412  0.00  0.00     0.214 A 
HETATM    6  O   UNK N   1      34.350  13.829   6.479  0.00  0.00    -0.285 OA
HETATM    7  C   UNK N   1      34.506  16.921   8.242  0.00  0.00     0.001 A 
HETATM    8  C   UNK N   1      34.386  18.409   8.075  0.00  0.00     0.053 C 
HETATM    9  C   UNK N   1      34.348  16.090   7.191  0.00  0.00     0.005 A 
ENDROOT
BRANCH   9  10
HETATM   10  C   UNK N   1      34.045  16.697   5.822  0.00  0.00     0.043 C 
BRANCH  10  11
HETATM   11  C   UNK N   1      32.670  16.357   5.301  0.00  0.00     0.005 C 
BRANCH  11  12
HETATM   12  C   UNK N   1      31.557  17.201   5.849  0.00  0.00     0.000 C 
BRANCH  12  13
HETATM   13  C   UNK N   1      30.559  16.187   6.348  0.00  0.00     0.000 C 
BRANCH  13  14
HETATM   14  C   UNK N   1      29.205  16.365   5.724  0.00  0.00     0.000 C 
BRANCH  14  15
HETATM   15  C   UNK N   1      28.575  17.559   6.400  0.00  0.00     0.000 C 
BRANCH  15  16
HETATM   16  C   UNK N   1      28.264  17.223   7.835  0.00  0.00     0.000 C 
BRANCH  16  17
HETATM   17  C   UNK N   1      28.231  18.501   8.638  0.00  0.00    -0.000 C 
BRANCH  17  18
HETATM   18  C   UNK N   1      29.297  18.433   9.707  0.00  0.00    -0.005 C 
HETATM   19  C   UNK N   1      30.656  18.618   9.071  0.00  0.00     0.005 C 
ENDBRANCH  17  18
ENDBRANCH  16  17
ENDBRANCH  15  16
ENDBRANCH  14  15
ENDBRANCH  13  14
ENDBRANCH  12  13
ENDBRANCH  11  12
ENDBRANCH  10  11
ENDBRANCH   9  10
BRANCH   4  20
HETATM   20  O   UNK N   1      34.893  12.713   8.994  0.00  0.00    -0.350 OA
HETATM   21  C   UNK N   1      33.890  11.868   9.412  0.00  0.00     0.210 C 
ENDBRANCH   4  20
BRANCH   3  22
HETATM   22  O   UNK N   1      35.197  14.514  11.098  0.00  0.00    -0.350 OA
HETATM   23  C   UNK N   1      36.433  14.193  11.614  0.00  0.00     0.210 C 
ENDBRANCH   3  22
TORSDOF 11
ENDMDL
MODEL 8
REMARK VINA RESULT:      -4.8     14.402     18.180
REMARK  11 active torsions:
REMARK  status: ('A' for Active; 'I' for Inactive)
REMARK    1  A    between atoms: C_3  and  O_4 
REMARK    2  A    between atoms: C_6  and  O_7 
REMARK    3  A    between atoms: C_13  and  C_14 
REMARK    4  A    between atoms: C_14  and  C_15 
REMARK    5  A    between atoms: C_15  and  C_16 
REMARK    6  A    between atoms: C_16  and  C_17 
REMARK    7  A    between atoms: C_17  and  C_18 
REMARK    8  A    between atoms: C_18  and  C_19 
REMARK    9  A    between atoms: C_19  and  C_20 
REMARK   10  A    between atoms: C_20  and  C_21 
REMARK   11  A    between atoms: C_21  and  C_22 
ROOT
HETATM    1  O   UNK N   1      34.214  12.445   8.167  0.00  0.00    -0.285 OA
HETATM    2  C   UNK N   1      34.446  13.573   8.574  0.00  0.00     0.214 A 
HETATM    3  C   UNK N   1      35.287  13.750   9.783  0.00  0.00     0.156 A 
HETATM    4  C   UNK N   1      35.553  15.002  10.245  0.00  0.00     0.156 A 
HETATM    5  C   UNK N   1      34.984  16.186   9.519  0.00  0.00     0.214 A 
HETATM    6  O   UNK N   1      35.216  17.307   9.938  0.00  0.00    -0.285 OA
HETATM    7  C   UNK N   1      33.885  14.742   7.855  0.00  0.00     0.001 A 
HETATM    8  C   UNK N   1      33.042  14.499   6.635  0.00  0.00     0.053 C 
HETATM    9  C   UNK N   1      34.132  15.995   8.288  0.00  0.00     0.005 A 
ENDROOT
BRANCH   9  10
HETATM   10  C   UNK N   1      33.533  17.167   7.511  0.00  0.00     0.043 C 
BRANCH  10  11
HETATM   11  C   UNK N   1      32.446  17.899   8.262  0.00  0.00     0.005 C 
BRANCH  11  12
HETATM   12  C   UNK N   1      31.162  17.139   8.421  0.00  0.00     0.000 C 
BRANCH  12  13
HETATM   13  C   UNK N   1      30.363  17.542   7.208  0.00  0.00     0.000 C 
BRANCH  13  14
HETATM   14  C   UNK N   1      29.721  16.364   6.532  0.00  0.00     0.000 C 
BRANCH  14  15
HETATM   15  C   UNK N   1      30.371  16.240   5.175  0.00  0.00     0.000 C 
BRANCH  15  16
HETATM   16  C   UNK N   1      30.743  17.608   4.666  0.00  0.00     0.000 C 
BRANCH  16  17
HETATM   17  C   UNK N   1      32.185  17.586   4.219  0.00  0.00    -0.000 C 
BRANCH  17  18
HETATM   18  C   UNK N   1      32.272  16.883   2.884  0.00  0.00    -0.005 C 
HETATM   19  C   UNK N   1      33.395  15.871   2.924  0.00  0.00     0.005 C 
ENDBRANCH  17  18
ENDBRANCH  16  17
ENDBRANCH  15  16
ENDBRANCH  14  15
ENDBRANCH  13  14
ENDBRANCH  12  13
ENDBRANCH  11  12
ENDBRANCH  10  11
ENDBRANCH   9  10
BRANCH   4  20
HETATM   20  O   UNK N   1      36.327  15.158  11.359  0.00  0.00    -0.350 OA
HETATM   21  C   UNK N   1      35.904  15.033  12.663  0.00  0.00     0.210 C 
ENDBRANCH   4  20
BRANCH   3  22
HETATM   22  O   UNK N   1      35.760  12.613  10.380  0.00  0.00    -0.350 OA
HETATM   23  C   UNK N   1      36.987  12.024  10.170  0.00  0.00     0.210 C 
ENDBRANCH   3  22
TORSDOF 11
ENDMDL
MODEL 9
REMARK VINA RESULT:      -4.8     18.117     22.001
REMARK  11 active torsions:
REMARK  status: ('A' for Active; 'I' for Inactive)
REMARK    1  A    between atoms: C_3  and  O_4 
REMARK    2  A    between atoms: C_6  and  O_7 
REMARK    3  A    between atoms: C_13  and  C_14 
REMARK    4  A    between atoms: C_14  and  C_15 
REMARK    5  A    between atoms: C_15  and  C_16 
REMARK    6  A    between atoms: C_16  and  C_17 
REMARK    7  A    between atoms: C_17  and  C_18 
REMARK    8  A    between atoms: C_18  and  C_19 
REMARK    9  A    between atoms: C_19  and  C_20 
REMARK   10  A    between atoms: C_20  and  C_21 
REMARK   11  A    between atoms: C_21  and  C_22 
ROOT
HETATM    1  O   UNK N   1      32.616  13.299   8.818  0.00  0.00    -0.285 OA
HETATM    2  C   UNK N   1      33.473  14.041   9.275  0.00  0.00     0.214 A 
HETATM    3  C   UNK N   1      33.390  15.498   9.005  0.00  0.00     0.156 A 
HETATM    4  C   UNK N   1      34.338  16.334   9.509  0.00  0.00     0.156 A 
HETATM    5  C   UNK N   1      35.456  15.761  10.331  0.00  0.00     0.214 A 
HETATM    6  O   UNK N   1      36.309  16.510  10.776  0.00  0.00    -0.285 OA
HETATM    7  C   UNK N   1      34.576  13.475  10.088  0.00  0.00     0.001 A 
HETATM    8  C   UNK N   1      34.604  11.992  10.328  0.00  0.00     0.053 C 
HETATM    9  C   UNK N   1      35.530  14.278  10.602  0.00  0.00     0.005 A 
ENDROOT
BRANCH   9  10
HETATM   10  C   UNK N   1      36.644  13.646  11.435  0.00  0.00     0.043 C 
BRANCH  10  11
HETATM   11  C   UNK N   1      36.439  13.786  12.924  0.00  0.00     0.005 C 
BRANCH  11  12
HETATM   12  C   UNK N   1      36.855  12.596  13.737  0.00  0.00     0.000 C 
BRANCH  12  13
HETATM   13  C   UNK N   1      35.729  12.434  14.727  0.00  0.00     0.000 C 
BRANCH  13  14
HETATM   14  C   UNK N   1      34.447  12.016  14.067  0.00  0.00     0.000 C 
BRANCH  14  15
HETATM   15  C   UNK N   1      34.226  10.569  14.435  0.00  0.00     0.000 C 
BRANCH  15  16
HETATM   16  C   UNK N   1      34.625   9.687  13.281  0.00  0.00     0.000 C 
BRANCH  16  17
HETATM   17  C   UNK N   1      35.576   8.628  13.783  0.00  0.00    -0.000 C 
BRANCH  17  18
HETATM   18  C   UNK N   1      36.973   8.964  13.317  0.00  0.00    -0.005 C 
HETATM   19  C   UNK N   1      37.868   9.167  14.519  0.00  0.00     0.005 C 
ENDBRANCH  17  18
ENDBRANCH  16  17
ENDBRANCH  15  16
ENDBRANCH  14  15
ENDBRANCH  13  14
ENDBRANCH  12  13
ENDBRANCH  11  12
ENDBRANCH  10  11
ENDBRANCH   9  10
BRANCH   4  20
HETATM   20  O   UNK N   1      34.257  17.673   9.257  0.00  0.00    -0.350 OA
HETATM   21  C   UNK N   1      34.578  18.294   8.072  0.00  0.00     0.210 C 
ENDBRANCH   4  20
BRANCH   3  22
HETATM   22  O   UNK N   1      32.337  15.927   8.245  0.00  0.00    -0.350 OA
HETATM   23  C   UNK N   1      31.200  16.559   8.697  0.00  0.00     0.210 C 
ENDBRANCH   3  22
TORSDOF 11
ENDMDL
