MODEL 1
REMARK VINA RESULT:      -4.1      0.000      0.000
REMARK  9 active torsions:
REMARK  status: ('A' for Active; 'I' for Inactive)
REMARK    1  A    between atoms: C_3  and  C_11 
REMARK    2  A    between atoms: C_3  and  C_12 
REMARK    3  A    between atoms: C_5  and  C_6 
REMARK    4  A    between atoms: C_6  and  C_7 
REMARK    5  A    between atoms: C_7  and  C_8 
REMARK    6  A    between atoms: C_8  and  C_9 
REMARK    7  A    between atoms: C_9  and  C_10 
REMARK    8  A    between atoms: C_10  and  C_11 
REMARK    9  A    between atoms: C_12  and  P_13 
ROOT
HETATM    1  C   UNK N   1      36.690  13.722  15.410  0.00  0.00     0.000 C 
ENDROOT
BRANCH   1   2
HETATM    2  C   UNK N   1      35.747  13.032  16.370  0.00  0.00     0.000 C 
BRANCH   2   3
HETATM    3  C   UNK N   1      36.135  11.572  16.467  0.00  0.00     0.000 C 
BRANCH   3   4
HETATM    4  C   UNK N   1      34.891  10.715  16.537  0.00  0.00     0.000 C 
BRANCH   4   5
HETATM    5  C   UNK N   1      34.717   9.990  15.220  0.00  0.00    -0.000 C 
BRANCH   5   6
HETATM    6  C   UNK N   1      33.677  10.702  14.382  0.00  0.00    -0.005 C 
HETATM    7  C   UNK N   1      33.984  10.491  12.915  0.00  0.00     0.005 C 
ENDBRANCH   5   6
ENDBRANCH   4   5
ENDBRANCH   3   4
ENDBRANCH   2   3
ENDBRANCH   1   2
BRANCH   1   8
HETATM    8  C   UNK N   1      36.603  13.071  14.048  0.00  0.00     0.000 C 
BRANCH   8   9
HETATM    9  C   UNK N   1      35.901  14.017  13.097  0.00  0.00     0.007 C 
BRANCH   9  10
HETATM   10  C   UNK N   1      36.174  13.575  11.673  0.00  0.00     0.073 C 
BRANCH  10  11
HETATM   11  P   UNK N   1      36.203  15.041  10.527  0.00  0.00     0.071 P 
HETATM   12  C   UNK N   1      35.353  16.689  10.640  0.00  0.00     0.085 C 
HETATM   13  O   UNK N   1      35.890  14.480   9.112  0.00  0.00    -0.323 OA
HETATM   14  C   UNK N   1      34.404  14.741  10.901  0.00  0.00     0.085 C 
ENDBRANCH  10  11
ENDBRANCH   9  10
ENDBRANCH   8   9
ENDBRANCH   1   8
TORSDOF 9
ENDMDL
MODEL 2
REMARK VINA RESULT:      -4.1      3.762      5.161
REMARK  9 active torsions:
REMARK  status: ('A' for Active; 'I' for Inactive)
REMARK    1  A    between atoms: C_3  and  C_11 
REMARK    2  A    between atoms: C_3  and  C_12 
REMARK    3  A    between atoms: C_5  and  C_6 
REMARK    4  A    between atoms: C_6  and  C_7 
REMARK    5  A    between atoms: C_7  and  C_8 
REMARK    6  A    between atoms: C_8  and  C_9 
REMARK    7  A    between atoms: C_9  and  C_10 
REMARK    8  A    between atoms: C_10  and  C_11 
REMARK    9  A    between atoms: C_12  and  P_13 
ROOT
HETATM    1  C   UNK N   1      35.305  11.299  18.128  0.00  0.00     0.000 C 
ENDROOT
BRANCH   1   2
HETATM    2  C   UNK N   1      34.995  10.221  19.142  0.00  0.00     0.000 C 
BRANCH   2   3
HETATM    3  C   UNK N   1      34.412   9.027  18.418  0.00  0.00     0.000 C 
BRANCH   3   4
HETATM    4  C   UNK N   1      33.388   8.344  19.298  0.00  0.00     0.000 C 
BRANCH   4   5
HETATM    5  C   UNK N   1      33.200   9.158  20.559  0.00  0.00    -0.000 C 
BRANCH   5   6
HETATM    6  C   UNK N   1      31.766   9.044  21.028  0.00  0.00    -0.005 C 
HETATM    7  C   UNK N   1      30.992   8.166  20.068  0.00  0.00     0.005 C 
ENDBRANCH   5   6
ENDBRANCH   4   5
ENDBRANCH   3   4
ENDBRANCH   2   3
ENDBRANCH   1   2
BRANCH   1   8
HETATM    8  C   UNK N   1      35.253  12.657  18.791  0.00  0.00     0.000 C 
BRANCH   8   9
HETATM    9  C   UNK N   1      35.202  13.725  17.718  0.00  0.00     0.007 C 
BRANCH   9  10
HETATM   10  C   UNK N   1      35.000  13.060  16.372  0.00  0.00     0.073 C 
BRANCH  10  11
HETATM   11  P   UNK N   1      36.348  13.556  15.188  0.00  0.00     0.071 P 
HETATM   12  C   UNK N   1      36.263  14.390  13.530  0.00  0.00     0.085 C 
HETATM   13  O   UNK N   1      37.236  12.295  15.002  0.00  0.00    -0.323 OA
HETATM   14  C   UNK N   1      35.086  12.661  14.153  0.00  0.00     0.085 C 
ENDBRANCH  10  11
ENDBRANCH   9  10
ENDBRANCH   8   9
ENDBRANCH   1   8
TORSDOF 9
ENDMDL
MODEL 3
REMARK VINA RESULT:      -4.0     24.211     25.926
REMARK  9 active torsions:
REMARK  status: ('A' for Active; 'I' for Inactive)
REMARK    1  A    between atoms: C_3  and  C_11 
REMARK    2  A    between atoms: C_3  and  C_12 
REMARK    3  A    between atoms: C_5  and  C_6 
REMARK    4  A    between atoms: C_6  and  C_7 
REMARK    5  A    between atoms: C_7  and  C_8 
REMARK    6  A    between atoms: C_8  and  C_9 
REMARK    7  A    between atoms: C_9  and  C_10 
REMARK    8  A    between atoms: C_10  and  C_11 
REMARK    9  A    between atoms: C_12  and  P_13 
ROOT
HETATM    1  C   UNK N   1      25.900  25.978  -5.832  0.00  0.00     0.000 C 
ENDROOT
BRANCH   1   2
HETATM    2  C   UNK N   1      24.838  27.024  -5.575  0.00  0.00     0.000 C 
BRANCH   2   3
HETATM    3  C   UNK N   1      25.337  27.970  -4.504  0.00  0.00     0.000 C 
BRANCH   3   4
HETATM    4  C   UNK N   1      26.831  28.160  -4.644  0.00  0.00     0.000 C 
BRANCH   4   5
HETATM    5  C   UNK N   1      27.115  29.611  -4.969  0.00  0.00    -0.000 C 
BRANCH   5   6
HETATM    6  C   UNK N   1      28.305  29.699  -5.900  0.00  0.00    -0.005 C 
HETATM    7  C   UNK N   1      28.091  28.771  -7.076  0.00  0.00     0.005 C 
ENDBRANCH   5   6
ENDBRANCH   4   5
ENDBRANCH   3   4
ENDBRANCH   2   3
ENDBRANCH   1   2
BRANCH   1   8
HETATM    8  C   UNK N   1      25.489  24.665  -5.204  0.00  0.00     0.000 C 
BRANCH   8   9
HETATM    9  C   UNK N   1      26.326  23.554  -5.801  0.00  0.00     0.007 C 
BRANCH   9  10
HETATM   10  C   UNK N   1      26.360  23.718  -7.307  0.00  0.00     0.073 C 
BRANCH  10  11
HETATM   11  P   UNK N   1      25.630  22.225  -8.145  0.00  0.00     0.071 P 
HETATM   12  C   UNK N   1      26.078  21.387  -9.741  0.00  0.00     0.085 C 
HETATM   13  O   UNK N   1      24.097  22.471  -8.191  0.00  0.00    -0.323 OA
HETATM   14  C   UNK N   1      25.749  23.527  -9.469  0.00  0.00     0.085 C 
ENDBRANCH  10  11
ENDBRANCH   9  10
ENDBRANCH   8   9
ENDBRANCH   1   8
TORSDOF 9
ENDMDL
MODEL 4
REMARK VINA RESULT:      -4.0      7.704     11.389
REMARK  9 active torsions:
REMARK  status: ('A' for Active; 'I' for Inactive)
REMARK    1  A    between atoms: C_3  and  C_11 
REMARK    2  A    between atoms: C_3  and  C_12 
REMARK    3  A    between atoms: C_5  and  C_6 
REMARK    4  A    between atoms: C_6  and  C_7 
REMARK    5  A    between atoms: C_7  and  C_8 
REMARK    6  A    between atoms: C_8  and  C_9 
REMARK    7  A    between atoms: C_9  and  C_10 
REMARK    8  A    between atoms: C_10  and  C_11 
REMARK    9  A    between atoms: C_12  and  P_13 
ROOT
HETATM    1  C   UNK N   1      28.740  18.451   8.904  0.00  0.00     0.000 C 
ENDROOT
BRANCH   1   2
HETATM    2  C   UNK N   1      28.491  18.113   7.451  0.00  0.00     0.000 C 
BRANCH   2   3
HETATM    3  C   UNK N   1      27.688  19.231   6.822  0.00  0.00     0.000 C 
BRANCH   3   4
HETATM    4  C   UNK N   1      28.065  19.377   5.365  0.00  0.00     0.000 C 
BRANCH   4   5
HETATM    5  C   UNK N   1      27.318  20.555   4.778  0.00  0.00    -0.000 C 
BRANCH   5   6
HETATM    6  C   UNK N   1      26.603  20.125   3.515  0.00  0.00    -0.005 C 
HETATM    7  C   UNK N   1      25.108  20.233   3.724  0.00  0.00     0.005 C 
ENDBRANCH   5   6
ENDBRANCH   4   5
ENDBRANCH   3   4
ENDBRANCH   2   3
ENDBRANCH   1   2
BRANCH   1   8
HETATM    8  C   UNK N   1      30.212  18.716   9.124  0.00  0.00     0.000 C 
BRANCH   8   9
HETATM    9  C   UNK N   1      31.012  17.604   8.481  0.00  0.00     0.007 C 
BRANCH   9  10
HETATM   10  C   UNK N   1      32.471  18.009   8.437  0.00  0.00     0.073 C 
BRANCH  10  11
HETATM   11  P   UNK N   1      33.384  17.030   7.144  0.00  0.00     0.071 P 
HETATM   12  C   UNK N   1      34.341  15.442   7.272  0.00  0.00     0.085 C 
HETATM   13  O   UNK N   1      34.309  18.044   6.416  0.00  0.00    -0.323 OA
HETATM   14  C   UNK N   1      34.564  17.178   8.575  0.00  0.00     0.085 C 
ENDBRANCH  10  11
ENDBRANCH   9  10
ENDBRANCH   8   9
ENDBRANCH   1   8
TORSDOF 9
ENDMDL
MODEL 5
REMARK VINA RESULT:      -3.9     20.008     23.383
REMARK  9 active torsions:
REMARK  status: ('A' for Active; 'I' for Inactive)
REMARK    1  A    between atoms: C_3  and  C_11 
REMARK    2  A    between atoms: C_3  and  C_12 
REMARK    3  A    between atoms: C_5  and  C_6 
REMARK    4  A    between atoms: C_6  and  C_7 
REMARK    5  A    between atoms: C_7  and  C_8 
REMARK    6  A    between atoms: C_8  and  C_9 
REMARK    7  A    between atoms: C_9  and  C_10 
REMARK    8  A    between atoms: C_10  and  C_11 
REMARK    9  A    between atoms: C_12  and  P_13 
ROOT
HETATM    1  C   UNK N   1      29.710  27.006  -4.216  0.00  0.00     0.000 C 
ENDROOT
BRANCH   1   2
HETATM    2  C   UNK N   1      28.301  27.448  -3.889  0.00  0.00     0.000 C 
BRANCH   2   3
HETATM    3  C   UNK N   1      27.987  28.698  -4.682  0.00  0.00     0.000 C 
BRANCH   3   4
HETATM    4  C   UNK N   1      26.811  28.442  -5.598  0.00  0.00     0.000 C 
BRANCH   4   5
HETATM    5  C   UNK N   1      25.661  27.894  -4.782  0.00  0.00    -0.000 C 
BRANCH   5   6
HETATM    6  C   UNK N   1      24.908  26.862  -5.594  0.00  0.00    -0.005 C 
HETATM    7  C   UNK N   1      25.735  26.472  -6.800  0.00  0.00     0.005 C 
ENDBRANCH   5   6
ENDBRANCH   4   5
ENDBRANCH   3   4
ENDBRANCH   2   3
ENDBRANCH   1   2
BRANCH   1   8
HETATM    8  C   UNK N   1      29.709  25.549  -4.621  0.00  0.00     0.000 C 
BRANCH   8   9
HETATM    9  C   UNK N   1      28.442  24.898  -4.109  0.00  0.00     0.007 C 
BRANCH   9  10
HETATM   10  C   UNK N   1      28.790  23.558  -3.494  0.00  0.00     0.073 C 
BRANCH  10  11
HETATM   11  P   UNK N   1      30.590  23.502  -3.023  0.00  0.00     0.071 P 
HETATM   12  C   UNK N   1      32.057  22.791  -3.915  0.00  0.00     0.085 C 
HETATM   13  O   UNK N   1      30.634  22.933  -1.579  0.00  0.00    -0.323 OA
HETATM   14  C   UNK N   1      30.163  21.769  -3.554  0.00  0.00     0.085 C 
ENDBRANCH  10  11
ENDBRANCH   9  10
ENDBRANCH   8   9
ENDBRANCH   1   8
TORSDOF 9
ENDMDL
MODEL 6
REMARK VINA RESULT:      -3.9     19.206     23.414
REMARK  9 active torsions:
REMARK  status: ('A' for Active; 'I' for Inactive)
REMARK    1  A    between atoms: C_3  and  C_11 
REMARK    2  A    between atoms: C_3  and  C_12 
REMARK    3  A    between atoms: C_5  and  C_6 
REMARK    4  A    between atoms: C_6  and  C_7 
REMARK    5  A    between atoms: C_7  and  C_8 
REMARK    6  A    between atoms: C_8  and  C_9 
REMARK    7  A    between atoms: C_9  and  C_10 
REMARK    8  A    between atoms: C_10  and  C_11 
REMARK    9  A    between atoms: C_12  and  P_13 
ROOT
HETATM    1  C   UNK N   1      26.505  24.369  -4.838  0.00  0.00     0.000 C 
ENDROOT
BRANCH   1   2
HETATM    2  C   UNK N   1      25.896  25.084  -6.023  0.00  0.00     0.000 C 
BRANCH   2   3
HETATM    3  C   UNK N   1      24.982  26.177  -5.514  0.00  0.00     0.000 C 
BRANCH   3   4
HETATM    4  C   UNK N   1      25.633  27.527  -5.718  0.00  0.00     0.000 C 
BRANCH   4   5
HETATM    5  C   UNK N   1      26.019  28.097  -4.370  0.00  0.00    -0.000 C 
BRANCH   5   6
HETATM    6  C   UNK N   1      26.978  29.252  -4.563  0.00  0.00    -0.005 C 
HETATM    7  C   UNK N   1      26.478  30.453  -3.789  0.00  0.00     0.005 C 
ENDBRANCH   5   6
ENDBRANCH   4   5
ENDBRANCH   3   4
ENDBRANCH   2   3
ENDBRANCH   1   2
BRANCH   1   8
HETATM    8  C   UNK N   1      27.927  24.839  -4.631  0.00  0.00     0.000 C 
BRANCH   8   9
HETATM    9  C   UNK N   1      28.583  23.971  -3.578  0.00  0.00     0.007 C 
BRANCH   9  10
HETATM   10  C   UNK N   1      29.630  23.100  -4.241  0.00  0.00     0.073 C 
BRANCH  10  11
HETATM   11  P   UNK N   1      31.102  22.879  -3.123  0.00  0.00     0.071 P 
HETATM   12  C   UNK N   1      32.460  21.611  -3.137  0.00  0.00     0.085 C 
HETATM   13  O   UNK N   1      30.543  22.910  -1.674  0.00  0.00    -0.323 OA
HETATM   14  C   UNK N   1      30.320  21.195  -3.250  0.00  0.00     0.085 C 
ENDBRANCH  10  11
ENDBRANCH   9  10
ENDBRANCH   8   9
ENDBRANCH   1   8
TORSDOF 9
ENDMDL
MODEL 7
REMARK VINA RESULT:      -3.9      2.074      3.749
REMARK  9 active torsions:
REMARK  status: ('A' for Active; 'I' for Inactive)
REMARK    1  A    between atoms: C_3  and  C_11 
REMARK    2  A    between atoms: C_3  and  C_12 
REMARK    3  A    between atoms: C_5  and  C_6 
REMARK    4  A    between atoms: C_6  and  C_7 
REMARK    5  A    between atoms: C_7  and  C_8 
REMARK    6  A    between atoms: C_8  and  C_9 
REMARK    7  A    between atoms: C_9  and  C_10 
REMARK    8  A    between atoms: C_10  and  C_11 
REMARK    9  A    between atoms: C_12  and  P_13 
ROOT
HETATM    1  C   UNK N   1      33.698  11.093  14.858  0.00  0.00     0.000 C 
ENDROOT
BRANCH   1   2
HETATM    2  C   UNK N   1      34.936  11.569  15.584  0.00  0.00     0.000 C 
BRANCH   2   3
HETATM    3  C   UNK N   1      34.711  12.992  16.047  0.00  0.00     0.000 C 
BRANCH   3   4
HETATM    4  C   UNK N   1      34.997  13.100  17.528  0.00  0.00     0.000 C 
BRANCH   4   5
HETATM    5  C   UNK N   1      35.349  11.730  18.065  0.00  0.00    -0.000 C 
BRANCH   5   6
HETATM    6  C   UNK N   1      35.516  11.800  19.567  0.00  0.00    -0.005 C 
HETATM    7  C   UNK N   1      34.857  10.594  20.202  0.00  0.00     0.005 C 
ENDBRANCH   5   6
ENDBRANCH   4   5
ENDBRANCH   3   4
ENDBRANCH   2   3
ENDBRANCH   1   2
BRANCH   1   8
HETATM    8  C   UNK N   1      34.095  10.318  13.621  0.00  0.00     0.000 C 
BRANCH   8   9
HETATM    9  C   UNK N   1      35.316  10.967  13.007  0.00  0.00     0.007 C 
BRANCH   9  10
HETATM   10  C   UNK N   1      34.992  11.381  11.586  0.00  0.00     0.073 C 
BRANCH  10  11
HETATM   11  P   UNK N   1      35.250  13.211  11.362  0.00  0.00     0.071 P 
HETATM   12  C   UNK N   1      36.757  14.172  10.855  0.00  0.00     0.085 C 
HETATM   13  O   UNK N   1      34.719  13.877  12.661  0.00  0.00    -0.323 OA
HETATM   14  C   UNK N   1      36.683  12.633  12.400  0.00  0.00     0.085 C 
ENDBRANCH  10  11
ENDBRANCH   9  10
ENDBRANCH   8   9
ENDBRANCH   1   8
TORSDOF 9
ENDMDL
MODEL 8
REMARK VINA RESULT:      -3.9      2.482      3.499
REMARK  9 active torsions:
REMARK  status: ('A' for Active; 'I' for Inactive)
REMARK    1  A    between atoms: C_3  and  C_11 
REMARK    2  A    between atoms: C_3  and  C_12 
REMARK    3  A    between atoms: C_5  and  C_6 
REMARK    4  A    between atoms: C_6  and  C_7 
REMARK    5  A    between atoms: C_7  and  C_8 
REMARK    6  A    between atoms: C_8  and  C_9 
REMARK    7  A    between atoms: C_9  and  C_10 
REMARK    8  A    between atoms: C_10  and  C_11 
REMARK    9  A    between atoms: C_12  and  P_13 
ROOT
HETATM    1  C   UNK N   1      35.305  12.437  17.077  0.00  0.00     0.000 C 
ENDROOT
BRANCH   1   2
HETATM    2  C   UNK N   1      35.155  13.460  18.180  0.00  0.00     0.000 C 
BRANCH   2   3
HETATM    3  C   UNK N   1      35.211  12.748  19.514  0.00  0.00     0.000 C 
BRANCH   3   4
HETATM    4  C   UNK N   1      35.535  11.287  19.302  0.00  0.00     0.000 C 
BRANCH   4   5
HETATM    5  C   UNK N   1      34.917  10.476  20.421  0.00  0.00    -0.000 C 
BRANCH   5   6
HETATM    6  C   UNK N   1      33.970   9.448  19.840  0.00  0.00    -0.005 C 
HETATM    7  C   UNK N   1      34.367   9.153  18.410  0.00  0.00     0.005 C 
ENDBRANCH   5   6
ENDBRANCH   4   5
ENDBRANCH   3   4
ENDBRANCH   2   3
ENDBRANCH   1   2
BRANCH   1   8
HETATM    8  C   UNK N   1      35.107  13.099  15.732  0.00  0.00     0.000 C 
BRANCH   8   9
HETATM    9  C   UNK N   1      36.462  13.391  15.124  0.00  0.00     0.007 C 
BRANCH   9  10
HETATM   10  C   UNK N   1      36.272  14.244  13.886  0.00  0.00     0.073 C 
BRANCH  10  11
HETATM   11  P   UNK N   1      36.544  13.234  12.347  0.00  0.00     0.071 P 
HETATM   12  C   UNK N   1      36.777  13.753  10.578  0.00  0.00     0.085 C 
HETATM   13  O   UNK N   1      35.429  12.152  12.346  0.00  0.00    -0.323 OA
HETATM   14  C   UNK N   1      35.194  14.440  11.915  0.00  0.00     0.085 C 
ENDBRANCH  10  11
ENDBRANCH   9  10
ENDBRANCH   8   9
ENDBRANCH   1   8
TORSDOF 9
ENDMDL
MODEL 9
REMARK VINA RESULT:      -3.8      1.299      2.098
REMARK  9 active torsions:
REMARK  status: ('A' for Active; 'I' for Inactive)
REMARK    1  A    between atoms: C_3  and  C_11 
REMARK    2  A    between atoms: C_3  and  C_12 
REMARK    3  A    between atoms: C_5  and  C_6 
REMARK    4  A    between atoms: C_6  and  C_7 
REMARK    5  A    between atoms: C_7  and  C_8 
REMARK    6  A    between atoms: C_8  and  C_9 
REMARK    7  A    between atoms: C_9  and  C_10 
REMARK    8  A    between atoms: C_10  and  C_11 
REMARK    9  A    between atoms: C_12  and  P_13 
ROOT
HETATM    1  C   UNK N   1      36.880  12.723  13.270  0.00  0.00     0.000 C 
ENDROOT
BRANCH   1   2
HETATM    2  C   UNK N   1      36.015  13.754  13.960  0.00  0.00     0.000 C 
BRANCH   2   3
HETATM    3  C   UNK N   1      36.107  13.544  15.456  0.00  0.00     0.000 C 
BRANCH   3   4
HETATM    4  C   UNK N   1      34.935  12.716  15.931  0.00  0.00     0.000 C 
BRANCH   4   5
HETATM    5  C   UNK N   1      35.439  11.364  16.390  0.00  0.00    -0.000 C 
BRANCH   5   6
HETATM    6  C   UNK N   1      34.520  10.278  15.875  0.00  0.00    -0.005 C 
HETATM    7  C   UNK N   1      33.720  10.810  14.705  0.00  0.00     0.005 C 
ENDBRANCH   5   6
ENDBRANCH   4   5
ENDBRANCH   3   4
ENDBRANCH   2   3
ENDBRANCH   1   2
BRANCH   1   8
HETATM    8  C   UNK N   1      37.092  13.115  11.825  0.00  0.00     0.000 C 
BRANCH   8   9
HETATM    9  C   UNK N   1      36.270  14.350  11.527  0.00  0.00     0.007 C 
BRANCH   9  10
HETATM   10  C   UNK N   1      36.398  14.683  10.054  0.00  0.00     0.073 C 
BRANCH  10  11
HETATM   11  P   UNK N   1      34.845  15.494   9.428  0.00  0.00     0.071 P 
HETATM   12  C   UNK N   1      34.495  17.262   8.974  0.00  0.00     0.085 C 
HETATM   13  O   UNK N   1      33.715  15.058  10.401  0.00  0.00    -0.323 OA
HETATM   14  C   UNK N   1      35.444  16.579  10.817  0.00  0.00     0.085 C 
ENDBRANCH  10  11
ENDBRANCH   9  10
ENDBRANCH   8   9
ENDBRANCH   1   8
TORSDOF 9
ENDMDL
