MODEL 1
REMARK VINA RESULT:      -7.8      0.000      0.000
REMARK  6 active torsions:
REMARK  status: ('A' for Active; 'I' for Inactive)
REMARK    1  A    between atoms: C_7  and  C_8 
REMARK    2  A    between atoms: C_8  and  N_9 
REMARK    3  A    between atoms: C_12  and  C_15 
REMARK    4  A    between atoms: C_15  and  O_16 
REMARK    5  A    between atoms: O_16  and  C_17 
REMARK    6  A    between atoms: C_19  and  N_20 
REMARK       I    between atoms: C_23  and  N_24 
ROOT
HETATM    1  C   UNK N   1      35.983  14.332   9.385  0.00  0.00     0.085 A 
HETATM    2  C   UNK N   1      34.902  15.268   9.086  0.00  0.00     0.069 A 
HETATM    3  C   UNK N   1      34.552  16.466   9.799  0.00  0.00     0.130 A 
HETATM    4  N   UNK N   1      33.508  17.226   9.378  0.00  0.00    -0.176 N 
ATOM      5  HN  UNK N   1      33.276  18.074   9.896  1.00  0.00     0.186 HD
HETATM    6  C   UNK N   1      32.770  16.900   8.301  0.00  0.00     0.677 A 
HETATM    7  N   UNK N   1      31.696  17.724   7.911  0.00  0.00    -0.234 N 
HETATM    8  N   UNK N   1      33.058  15.790   7.595  0.00  0.00    -0.191 N 
ATOM      9  HN  UNK N   1      32.492  15.556   6.779  1.00  0.00     0.184 HD
HETATM   10  C   UNK N   1      34.086  14.976   7.945  0.00  0.00     0.066 A 
HETATM   11  C   UNK N   1      34.317  13.856   7.155  0.00  0.00     0.031 A 
HETATM   12  C   UNK N   1      35.351  12.989   7.446  0.00  0.00     0.005 A 
HETATM   13  C   UNK N   1      36.163  13.230   8.539  0.00  0.00     0.038 A 
HETATM   14  H   UNK N   1      31.136  17.489   7.135  0.00  0.00     0.174 HD
HETATM   15  H   UNK N   1      31.503  18.545   8.418  0.00  0.00     0.174 HD
ENDROOT
BRANCH   1  16
HETATM   16  O   UNK N   1      36.879  14.368  10.409  0.00  0.00    -0.350 OA
BRANCH  16  17
HETATM   17  C   UNK N   1      37.243  13.448  11.349  0.00  0.00     0.180 C 
BRANCH  17  18
HETATM   18  C   UNK N   1      36.016  13.060  12.150  0.00  0.00     0.013 C 
HETATM   19  C   UNK N   1      36.236  11.775  12.951  0.00  0.00     0.037 C 
HETATM   20  C   UNK N   1      37.123  12.027  14.184  0.00  0.00     0.273 C 
HETATM   21  N   UNK N   1      36.565  13.078  15.039  0.00  0.00     0.092 N 
HETATM   22  C   UNK N   1      36.503  14.335  14.268  0.00  0.00     0.273 C 
HETATM   23  C   UNK N   1      35.586  14.212  13.046  0.00  0.00     0.037 C 
BRANCH  21  24
HETATM   24  C   UNK N   1      35.268  12.602  15.559  0.00  0.00     0.314 C 
BRANCH  24  25
HETATM   25  C   UNK N   1      35.299  12.156  16.988  0.00  0.00     0.009 A 
HETATM   26  C   UNK N   1      35.208  13.112  18.011  0.00  0.00     0.124 A 
HETATM   27  F   UNK N   1      35.088  14.430  17.712  0.00  0.00    -0.205 F 
HETATM   28  C   UNK N   1      35.268  12.711  19.347  0.00  0.00     0.043 A 
HETATM   29  C   UNK N   1      35.407  11.357  19.665  0.00  0.00     0.003 A 
HETATM   30  C   UNK N   1      35.490  10.403  18.646  0.00  0.00     0.001 A 
HETATM   31  C   UNK N   1      35.440  10.801  17.307  0.00  0.00     0.012 A 
ENDBRANCH  24  25
ENDBRANCH  21  24
ENDBRANCH  17  18
ENDBRANCH  16  17
ENDBRANCH   1  16
BRANCH   3  32
HETATM   32  N   UNK N   1      35.240  16.924  10.925  0.00  0.00    -0.384 N 
HETATM   33  H   UNK N   1      35.282  17.885  11.134  0.00  0.00     0.157 HD
HETATM   34  H   UNK N   1      35.688  16.278  11.517  0.00  0.00     0.157 HD
ENDBRANCH   3  32
TORSDOF 6
ENDMDL
MODEL 2
REMARK VINA RESULT:      -7.7     12.794     15.121
REMARK  6 active torsions:
REMARK  status: ('A' for Active; 'I' for Inactive)
REMARK    1  A    between atoms: C_7  and  C_8 
REMARK    2  A    between atoms: C_8  and  N_9 
REMARK    3  A    between atoms: C_12  and  C_15 
REMARK    4  A    between atoms: C_15  and  O_16 
REMARK    5  A    between atoms: O_16  and  C_17 
REMARK    6  A    between atoms: C_19  and  N_20 
REMARK       I    between atoms: C_23  and  N_24 
ROOT
HETATM    1  C   UNK N   1      22.049  17.777   4.558  0.00  0.00     0.085 A 
HETATM    2  C   UNK N   1      21.509  18.628   3.500  0.00  0.00     0.069 A 
HETATM    3  C   UNK N   1      20.204  18.570   2.903  0.00  0.00     0.130 A 
HETATM    4  N   UNK N   1      19.866  19.447   1.923  0.00  0.00    -0.176 N 
ATOM      5  HN  UNK N   1      18.934  19.391   1.513  1.00  0.00     0.186 HD
HETATM    6  C   UNK N   1      20.718  20.389   1.476  0.00  0.00     0.677 A 
HETATM    7  N   UNK N   1      20.315  21.272   0.456  0.00  0.00    -0.234 N 
HETATM    8  N   UNK N   1      21.952  20.490   2.006  0.00  0.00    -0.191 N 
ATOM      9  HN  UNK N   1      22.587  21.209   1.659  1.00  0.00     0.184 HD
HETATM   10  C   UNK N   1      22.369  19.654   2.990  0.00  0.00     0.066 A 
HETATM   11  C   UNK N   1      23.657  19.834   3.484  0.00  0.00     0.031 A 
HETATM   12  C   UNK N   1      24.145  19.028   4.491  0.00  0.00     0.005 A 
HETATM   13  C   UNK N   1      23.350  18.024   5.013  0.00  0.00     0.038 A 
HETATM   14  H   UNK N   1      20.933  21.955   0.107  0.00  0.00     0.174 HD
HETATM   15  H   UNK N   1      19.405  21.207   0.087  0.00  0.00     0.174 HD
ENDROOT
BRANCH   1  16
HETATM   16  O   UNK N   1      21.453  16.731   5.193  0.00  0.00    -0.350 OA
BRANCH  16  17
HETATM   17  C   UNK N   1      21.255  15.428   4.839  0.00  0.00     0.180 C 
BRANCH  17  18
HETATM   18  C   UNK N   1      22.337  14.581   5.478  0.00  0.00     0.013 C 
HETATM   19  C   UNK N   1      22.608  14.993   6.927  0.00  0.00     0.037 C 
HETATM   20  C   UNK N   1      21.490  14.508   7.866  0.00  0.00     0.273 C 
HETATM   21  N   UNK N   1      21.301  13.057   7.770  0.00  0.00     0.092 N 
HETATM   22  C   UNK N   1      20.903  12.721   6.390  0.00  0.00     0.273 C 
HETATM   23  C   UNK N   1      21.983  13.105   5.372  0.00  0.00     0.037 C 
BRANCH  21  24
HETATM   24  C   UNK N   1      22.540  12.405   8.237  0.00  0.00     0.314 C 
BRANCH  24  25
HETATM   25  C   UNK N   1      22.642  12.261   9.724  0.00  0.00     0.009 A 
HETATM   26  C   UNK N   1      23.907  12.163  10.323  0.00  0.00     0.124 A 
HETATM   27  F   UNK N   1      25.032  12.202   9.564  0.00  0.00    -0.205 F 
HETATM   28  C   UNK N   1      24.014  11.997  11.705  0.00  0.00     0.043 A 
HETATM   29  C   UNK N   1      22.860  11.940  12.493  0.00  0.00     0.003 A 
HETATM   30  C   UNK N   1      21.600  12.046  11.898  0.00  0.00     0.001 A 
HETATM   31  C   UNK N   1      21.489  12.203  10.513  0.00  0.00     0.012 A 
ENDBRANCH  24  25
ENDBRANCH  21  24
ENDBRANCH  17  18
ENDBRANCH  16  17
ENDBRANCH   1  16
BRANCH   3  32
HETATM   32  N   UNK N   1      19.222  17.650   3.279  0.00  0.00    -0.384 N 
HETATM   33  H   UNK N   1      18.321  17.951   3.536  0.00  0.00     0.157 HD
HETATM   34  H   UNK N   1      19.435  16.689   3.288  0.00  0.00     0.157 HD
ENDBRANCH   3  32
TORSDOF 6
ENDMDL
MODEL 3
REMARK VINA RESULT:      -7.5      2.588      8.648
REMARK  6 active torsions:
REMARK  status: ('A' for Active; 'I' for Inactive)
REMARK    1  A    between atoms: C_7  and  C_8 
REMARK    2  A    between atoms: C_8  and  N_9 
REMARK    3  A    between atoms: C_12  and  C_15 
REMARK    4  A    between atoms: C_15  and  O_16 
REMARK    5  A    between atoms: O_16  and  C_17 
REMARK    6  A    between atoms: C_19  and  N_20 
REMARK       I    between atoms: C_23  and  N_24 
ROOT
HETATM    1  C   UNK N   1      35.689  12.170  13.504  0.00  0.00     0.085 A 
HETATM    2  C   UNK N   1      35.653  12.676  14.874  0.00  0.00     0.069 A 
HETATM    3  C   UNK N   1      36.304  13.843  15.399  0.00  0.00     0.130 A 
HETATM    4  N   UNK N   1      36.160  14.170  16.709  0.00  0.00    -0.176 N 
ATOM      5  HN  UNK N   1      36.630  15.003  17.064  1.00  0.00     0.186 HD
HETATM    6  C   UNK N   1      35.418  13.431  17.557  0.00  0.00     0.677 A 
HETATM    7  N   UNK N   1      35.305  13.816  18.907  0.00  0.00    -0.234 N 
HETATM    8  N   UNK N   1      34.783  12.331  17.114  0.00  0.00    -0.191 N 
ATOM      9  HN  UNK N   1      34.222  11.781  17.766  1.00  0.00     0.184 HD
HETATM   10  C   UNK N   1      34.872  11.935  15.819  0.00  0.00     0.066 A 
HETATM   11  C   UNK N   1      34.177  10.789  15.447  0.00  0.00     0.031 A 
HETATM   12  C   UNK N   1      34.214  10.333  14.146  0.00  0.00     0.005 A 
HETATM   13  C   UNK N   1      34.956  11.016  13.199  0.00  0.00     0.038 A 
HETATM   14  H   UNK N   1      34.780  13.277  19.542  0.00  0.00     0.174 HD
HETATM   15  H   UNK N   1      35.755  14.633  19.220  0.00  0.00     0.174 HD
ENDROOT
BRANCH   1  16
HETATM   16  O   UNK N   1      36.362  12.670  12.432  0.00  0.00    -0.350 OA
BRANCH  16  17
HETATM   17  C   UNK N   1      36.017  12.838  11.122  0.00  0.00     0.180 C 
BRANCH  17  18
HETATM   18  C   UNK N   1      34.833  13.781  11.048  0.00  0.00     0.013 C 
HETATM   19  C   UNK N   1      35.180  15.178  11.567  0.00  0.00     0.037 C 
HETATM   20  C   UNK N   1      36.033  15.959  10.551  0.00  0.00     0.273 C 
HETATM   21  N   UNK N   1      35.368  16.043   9.247  0.00  0.00     0.092 N 
HETATM   22  C   UNK N   1      35.182  14.678   8.720  0.00  0.00     0.273 C 
HETATM   23  C   UNK N   1      34.286  13.830   9.629  0.00  0.00     0.037 C 
BRANCH  21  24
HETATM   24  C   UNK N   1      34.124  16.820   9.419  0.00  0.00     0.314 C 
BRANCH  24  25
HETATM   25  C   UNK N   1      33.294  16.943   8.180  0.00  0.00     0.009 A 
HETATM   26  C   UNK N   1      31.963  16.500   8.193  0.00  0.00     0.124 A 
HETATM   27  F   UNK N   1      31.427  15.967   9.321  0.00  0.00    -0.205 F 
HETATM   28  C   UNK N   1      31.189  16.581   7.034  0.00  0.00     0.043 A 
HETATM   29  C   UNK N   1      31.736  17.114   5.863  0.00  0.00     0.003 A 
HETATM   30  C   UNK N   1      33.061  17.563   5.851  0.00  0.00     0.001 A 
HETATM   31  C   UNK N   1      33.842  17.475   7.007  0.00  0.00     0.012 A 
ENDBRANCH  24  25
ENDBRANCH  21  24
ENDBRANCH  17  18
ENDBRANCH  16  17
ENDBRANCH   1  16
BRANCH   3  32
HETATM   32  N   UNK N   1      37.094  14.700  14.628  0.00  0.00    -0.384 N 
HETATM   33  H   UNK N   1      36.683  15.399  14.070  0.00  0.00     0.157 HD
HETATM   34  H   UNK N   1      38.073  14.604  14.645  0.00  0.00     0.157 HD
ENDBRANCH   3  32
TORSDOF 6
ENDMDL
MODEL 4
REMARK VINA RESULT:      -7.5      8.468     13.866
REMARK  6 active torsions:
REMARK  status: ('A' for Active; 'I' for Inactive)
REMARK    1  A    between atoms: C_7  and  C_8 
REMARK    2  A    between atoms: C_8  and  N_9 
REMARK    3  A    between atoms: C_12  and  C_15 
REMARK    4  A    between atoms: C_15  and  O_16 
REMARK    5  A    between atoms: O_16  and  C_17 
REMARK    6  A    between atoms: C_19  and  N_20 
REMARK       I    between atoms: C_23  and  N_24 
ROOT
HETATM    1  C   UNK N   1      30.941  17.283   5.402  0.00  0.00     0.085 A 
HETATM    2  C   UNK N   1      31.765  17.271   6.608  0.00  0.00     0.069 A 
HETATM    3  C   UNK N   1      31.326  17.343   7.974  0.00  0.00     0.130 A 
HETATM    4  N   UNK N   1      32.237  17.318   8.982  0.00  0.00    -0.176 N 
ATOM      5  HN  UNK N   1      31.906  17.368   9.946  1.00  0.00     0.186 HD
HETATM    6  C   UNK N   1      33.560  17.227   8.752  0.00  0.00     0.677 A 
HETATM    7  N   UNK N   1      34.460  17.207   9.836  0.00  0.00    -0.234 N 
HETATM    8  N   UNK N   1      34.023  17.152   7.490  0.00  0.00    -0.191 N 
ATOM      9  HN  UNK N   1      35.029  17.081   7.331  1.00  0.00     0.184 HD
HETATM   10  C   UNK N   1      33.182  17.169   6.426  0.00  0.00     0.066 A 
HETATM   11  C   UNK N   1      33.746  17.079   5.158  0.00  0.00     0.031 A 
HETATM   12  C   UNK N   1      32.951  17.080   4.031  0.00  0.00     0.005 A 
HETATM   13  C   UNK N   1      31.578  17.179   4.159  0.00  0.00     0.038 A 
HETATM   14  H   UNK N   1      35.432  17.158   9.683  0.00  0.00     0.174 HD
HETATM   15  H   UNK N   1      34.114  17.241  10.757  0.00  0.00     0.174 HD
ENDROOT
BRANCH   1  16
HETATM   16  O   UNK N   1      29.588  17.390   5.298  0.00  0.00    -0.350 OA
BRANCH  16  17
HETATM   17  C   UNK N   1      28.779  18.263   4.629  0.00  0.00     0.180 C 
BRANCH  17  18
HETATM   18  C   UNK N   1      27.445  18.333   5.342  0.00  0.00     0.013 C 
HETATM   19  C   UNK N   1      26.764  19.691   5.156  0.00  0.00     0.037 C 
HETATM   20  C   UNK N   1      26.167  19.830   3.744  0.00  0.00     0.273 C 
HETATM   21  N   UNK N   1      25.231  18.740   3.449  0.00  0.00     0.092 N 
HETATM   22  C   UNK N   1      25.962  17.460   3.501  0.00  0.00     0.273 C 
HETATM   23  C   UNK N   1      26.546  17.190   4.892  0.00  0.00     0.037 C 
BRANCH  21  24
HETATM   24  C   UNK N   1      24.096  18.848   4.386  0.00  0.00     0.314 C 
BRANCH  24  25
HETATM   25  C   UNK N   1      22.754  18.926   3.728  0.00  0.00     0.009 A 
HETATM   26  C   UNK N   1      22.394  20.087   3.027  0.00  0.00     0.124 A 
HETATM   27  F   UNK N   1      23.257  21.132   2.940  0.00  0.00    -0.205 F 
HETATM   28  C   UNK N   1      21.134  20.184   2.436  0.00  0.00     0.043 A 
HETATM   29  C   UNK N   1      20.233  19.119   2.533  0.00  0.00     0.003 A 
HETATM   30  C   UNK N   1      20.592  17.958   3.225  0.00  0.00     0.001 A 
HETATM   31  C   UNK N   1      21.851  17.862   3.826  0.00  0.00     0.012 A 
ENDBRANCH  24  25
ENDBRANCH  21  24
ENDBRANCH  17  18
ENDBRANCH  16  17
ENDBRANCH   1  16
BRANCH   3  32
HETATM   32  N   UNK N   1      29.984  17.430   8.352  0.00  0.00    -0.384 N 
HETATM   33  H   UNK N   1      29.290  16.930   7.865  0.00  0.00     0.157 HD
HETATM   34  H   UNK N   1      29.730  17.999   9.114  0.00  0.00     0.157 HD
ENDBRANCH   3  32
TORSDOF 6
ENDMDL
MODEL 5
REMARK VINA RESULT:      -7.5     12.911     15.692
REMARK  6 active torsions:
REMARK  status: ('A' for Active; 'I' for Inactive)
REMARK    1  A    between atoms: C_7  and  C_8 
REMARK    2  A    between atoms: C_8  and  N_9 
REMARK    3  A    between atoms: C_12  and  C_15 
REMARK    4  A    between atoms: C_15  and  O_16 
REMARK    5  A    between atoms: O_16  and  C_17 
REMARK    6  A    between atoms: C_19  and  N_20 
REMARK       I    between atoms: C_23  and  N_24 
ROOT
HETATM    1  C   UNK N   1      20.485  15.979   2.888  0.00  0.00     0.085 A 
HETATM    2  C   UNK N   1      20.587  17.431   2.759  0.00  0.00     0.069 A 
HETATM    3  C   UNK N   1      20.944  18.382   3.775  0.00  0.00     0.130 A 
HETATM    4  N   UNK N   1      20.991  19.707   3.479  0.00  0.00    -0.176 N 
ATOM      5  HN  UNK N   1      21.248  20.367   4.213  1.00  0.00     0.186 HD
HETATM    6  C   UNK N   1      20.712  20.178   2.249  0.00  0.00     0.677 A 
HETATM    7  N   UNK N   1      20.775  21.563   1.998  0.00  0.00    -0.234 N 
HETATM    8  N   UNK N   1      20.377  19.329   1.260  0.00  0.00    -0.191 N 
ATOM      9  HN  UNK N   1      20.170  19.700   0.332  1.00  0.00     0.184 HD
HETATM   10  C   UNK N   1      20.308  17.990   1.470  0.00  0.00     0.066 A 
HETATM   11  C   UNK N   1      19.962  17.186   0.390  0.00  0.00     0.031 A 
HETATM   12  C   UNK N   1      19.882  15.816   0.527  0.00  0.00     0.005 A 
HETATM   13  C   UNK N   1      20.141  15.232   1.754  0.00  0.00     0.038 A 
HETATM   14  H   UNK N   1      20.557  21.924   1.108  0.00  0.00     0.174 HD
HETATM   15  H   UNK N   1      21.040  22.177   2.720  0.00  0.00     0.174 HD
ENDROOT
BRANCH   1  16
HETATM   16  O   UNK N   1      20.677  15.209   3.993  0.00  0.00    -0.350 OA
BRANCH  16  17
HETATM   17  C   UNK N   1      20.603  13.862   4.204  0.00  0.00     0.180 C 
BRANCH  17  18
HETATM   18  C   UNK N   1      20.093  13.618   5.610  0.00  0.00     0.013 C 
HETATM   19  C   UNK N   1      20.650  12.324   6.206  0.00  0.00     0.037 C 
HETATM   20  C   UNK N   1      22.121  12.488   6.627  0.00  0.00     0.273 C 
HETATM   21  N   UNK N   1      22.289  13.601   7.566  0.00  0.00     0.092 N 
HETATM   22  C   UNK N   1      21.872  14.850   6.900  0.00  0.00     0.273 C 
HETATM   23  C   UNK N   1      20.394  14.818   6.496  0.00  0.00     0.037 C 
BRANCH  21  24
HETATM   24  C   UNK N   1      21.544  13.274   8.798  0.00  0.00     0.314 C 
BRANCH  24  25
HETATM   25  C   UNK N   1      22.396  12.765   9.920  0.00  0.00     0.009 A 
HETATM   26  C   UNK N   1      21.785  12.307  11.097  0.00  0.00     0.124 A 
HETATM   27  F   UNK N   1      20.433  12.319  11.220  0.00  0.00    -0.205 F 
HETATM   28  C   UNK N   1      22.570  11.859  12.161  0.00  0.00     0.043 A 
HETATM   29  C   UNK N   1      23.964  11.857  12.050  0.00  0.00     0.003 A 
HETATM   30  C   UNK N   1      24.573  12.307  10.874  0.00  0.00     0.001 A 
HETATM   31  C   UNK N   1      23.791  12.764   9.810  0.00  0.00     0.012 A 
ENDBRANCH  24  25
ENDBRANCH  21  24
ENDBRANCH  17  18
ENDBRANCH  16  17
ENDBRANCH   1  16
BRANCH   3  32
HETATM   32  N   UNK N   1      21.265  18.027   5.088  0.00  0.00    -0.384 N 
HETATM   33  H   UNK N   1      22.172  18.173   5.441  0.00  0.00     0.157 HD
HETATM   34  H   UNK N   1      20.576  17.627   5.665  0.00  0.00     0.157 HD
ENDBRANCH   3  32
TORSDOF 6
ENDMDL
MODEL 6
REMARK VINA RESULT:      -7.4      8.989     13.248
REMARK  6 active torsions:
REMARK  status: ('A' for Active; 'I' for Inactive)
REMARK    1  A    between atoms: C_7  and  C_8 
REMARK    2  A    between atoms: C_8  and  N_9 
REMARK    3  A    between atoms: C_12  and  C_15 
REMARK    4  A    between atoms: C_15  and  O_16 
REMARK    5  A    between atoms: O_16  and  C_17 
REMARK    6  A    between atoms: C_19  and  N_20 
REMARK       I    between atoms: C_23  and  N_24 
ROOT
HETATM    1  C   UNK N   1      23.932  18.375   4.082  0.00  0.00     0.085 A 
HETATM    2  C   UNK N   1      22.530  18.392   3.672  0.00  0.00     0.069 A 
HETATM    3  C   UNK N   1      21.545  17.364   3.864  0.00  0.00     0.130 A 
HETATM    4  N   UNK N   1      20.276  17.548   3.416  0.00  0.00    -0.176 N 
ATOM      5  HN  UNK N   1      19.589  16.808   3.563  1.00  0.00     0.186 HD
HETATM    6  C   UNK N   1      19.892  18.675   2.786  0.00  0.00     0.677 A 
HETATM    7  N   UNK N   1      18.563  18.811   2.341  0.00  0.00    -0.234 N 
HETATM    8  N   UNK N   1      20.776  19.670   2.585  0.00  0.00    -0.191 N 
ATOM      9  HN  UNK N   1      20.471  20.519   2.108  1.00  0.00     0.184 HD
HETATM   10  C   UNK N   1      22.063  19.569   3.003  0.00  0.00     0.066 A 
HETATM   11  C   UNK N   1      22.905  20.648   2.760  0.00  0.00     0.031 A 
HETATM   12  C   UNK N   1      24.223  20.619   3.165  0.00  0.00     0.005 A 
HETATM   13  C   UNK N   1      24.719  19.502   3.813  0.00  0.00     0.038 A 
HETATM   14  H   UNK N   1      18.272  19.622   1.863  0.00  0.00     0.174 HD
HETATM   15  H   UNK N   1      17.916  18.089   2.509  0.00  0.00     0.174 HD
ENDROOT
BRANCH   1  16
HETATM   16  O   UNK N   1      24.622  17.384   4.709  0.00  0.00    -0.350 OA
BRANCH  16  17
HETATM   17  C   UNK N   1      25.849  16.829   4.486  0.00  0.00     0.180 C 
BRANCH  17  18
HETATM   18  C   UNK N   1      26.621  16.815   5.789  0.00  0.00     0.013 C 
HETATM   19  C   UNK N   1      27.460  15.545   5.947  0.00  0.00     0.037 C 
HETATM   20  C   UNK N   1      28.713  15.586   5.053  0.00  0.00     0.273 C 
HETATM   21  N   UNK N   1      29.525  16.776   5.323  0.00  0.00     0.092 N 
HETATM   22  C   UNK N   1      28.721  17.976   5.022  0.00  0.00     0.273 C 
HETATM   23  C   UNK N   1      27.475  18.069   5.909  0.00  0.00     0.037 C 
BRANCH  21  24
HETATM   24  C   UNK N   1      30.016  16.687   6.712  0.00  0.00     0.314 C 
BRANCH  24  25
HETATM   25  C   UNK N   1      31.443  17.102   6.892  0.00  0.00     0.009 A 
HETATM   26  C   UNK N   1      31.843  17.695   8.099  0.00  0.00     0.124 A 
HETATM   27  F   UNK N   1      30.946  17.887   9.100  0.00  0.00    -0.205 F 
HETATM   28  C   UNK N   1      33.163  18.114   8.267  0.00  0.00     0.043 A 
HETATM   29  C   UNK N   1      34.091  17.934   7.236  0.00  0.00     0.003 A 
HETATM   30  C   UNK N   1      33.695  17.337   6.035  0.00  0.00     0.001 A 
HETATM   31  C   UNK N   1      32.371  16.924   5.860  0.00  0.00     0.012 A 
ENDBRANCH  24  25
ENDBRANCH  21  24
ENDBRANCH  17  18
ENDBRANCH  16  17
ENDBRANCH   1  16
BRANCH   3  32
HETATM   32  N   UNK N   1      21.806  16.153   4.509  0.00  0.00    -0.384 N 
HETATM   33  H   UNK N   1      21.077  15.523   4.713  0.00  0.00     0.157 HD
HETATM   34  H   UNK N   1      22.729  15.927   4.763  0.00  0.00     0.157 HD
ENDBRANCH   3  32
TORSDOF 6
ENDMDL
MODEL 7
REMARK VINA RESULT:      -7.3      3.029      5.023
REMARK  6 active torsions:
REMARK  status: ('A' for Active; 'I' for Inactive)
REMARK    1  A    between atoms: C_7  and  C_8 
REMARK    2  A    between atoms: C_8  and  N_9 
REMARK    3  A    between atoms: C_12  and  C_15 
REMARK    4  A    between atoms: C_15  and  O_16 
REMARK    5  A    between atoms: O_16  and  C_17 
REMARK    6  A    between atoms: C_19  and  N_20 
REMARK       I    between atoms: C_23  and  N_24 
ROOT
HETATM    1  C   UNK N   1      32.809  17.504   6.597  0.00  0.00     0.085 A 
HETATM    2  C   UNK N   1      31.356  17.398   6.717  0.00  0.00     0.069 A 
HETATM    3  C   UNK N   1      30.563  17.481   7.912  0.00  0.00     0.130 A 
HETATM    4  N   UNK N   1      29.212  17.362   7.840  0.00  0.00    -0.176 N 
ATOM      5  HN  UNK N   1      28.666  17.425   8.699  1.00  0.00     0.186 HD
HETATM    6  C   UNK N   1      28.570  17.164   6.674  0.00  0.00     0.677 A 
HETATM    7  N   UNK N   1      27.166  17.046   6.658  0.00  0.00    -0.234 N 
HETATM    8  N   UNK N   1      29.265  17.085   5.524  0.00  0.00    -0.191 N 
ATOM      9  HN  UNK N   1      28.765  16.937   4.647  1.00  0.00     0.184 HD
HETATM   10  C   UNK N   1      30.618  17.195   5.507  0.00  0.00     0.066 A 
HETATM   11  C   UNK N   1      31.254  17.108   4.274  0.00  0.00     0.031 A 
HETATM   12  C   UNK N   1      32.626  17.222   4.179  0.00  0.00     0.005 A 
HETATM   13  C   UNK N   1      33.380  17.416   5.321  0.00  0.00     0.038 A 
HETATM   14  H   UNK N   1      26.684  16.884   5.815  0.00  0.00     0.174 HD
HETATM   15  H   UNK N   1      26.661  17.126   7.499  0.00  0.00     0.174 HD
ENDROOT
BRANCH   1  16
HETATM   16  O   UNK N   1      33.732  17.676   7.582  0.00  0.00    -0.350 OA
BRANCH  16  17
HETATM   17  C   UNK N   1      34.646  16.835   8.148  0.00  0.00     0.180 C 
BRANCH  17  18
HETATM   18  C   UNK N   1      34.138  16.413   9.512  0.00  0.00     0.013 C 
HETATM   19  C   UNK N   1      33.559  14.997   9.496  0.00  0.00     0.037 C 
HETATM   20  C   UNK N   1      34.672  13.935   9.436  0.00  0.00     0.273 C 
HETATM   21  N   UNK N   1      35.621  14.091  10.543  0.00  0.00     0.092 N 
HETATM   22  C   UNK N   1      36.260  15.417  10.437  0.00  0.00     0.273 C 
HETATM   23  C   UNK N   1      35.240  16.555  10.552  0.00  0.00     0.037 C 
BRANCH  21  24
HETATM   24  C   UNK N   1      34.892  13.850  11.804  0.00  0.00     0.314 C 
BRANCH  24  25
HETATM   25  C   UNK N   1      35.719  13.230  12.888  0.00  0.00     0.009 A 
HETATM   26  C   UNK N   1      36.079  11.877  12.793  0.00  0.00     0.124 A 
HETATM   27  F   UNK N   1      35.688  11.135  11.726  0.00  0.00    -0.205 F 
HETATM   28  C   UNK N   1      36.822  11.280  13.813  0.00  0.00     0.043 A 
HETATM   29  C   UNK N   1      37.216  12.033  14.924  0.00  0.00     0.003 A 
HETATM   30  C   UNK N   1      36.864  13.383  15.016  0.00  0.00     0.001 A 
HETATM   31  C   UNK N   1      36.112  13.982  14.001  0.00  0.00     0.012 A 
ENDBRANCH  24  25
ENDBRANCH  21  24
ENDBRANCH  17  18
ENDBRANCH  16  17
ENDBRANCH   1  16
BRANCH   3  32
HETATM   32  N   UNK N   1      31.102  17.692   9.184  0.00  0.00    -0.384 N 
HETATM   33  H   UNK N   1      30.671  18.312   9.817  0.00  0.00     0.157 HD
HETATM   34  H   UNK N   1      31.920  17.216   9.450  0.00  0.00     0.157 HD
ENDBRANCH   3  32
TORSDOF 6
ENDMDL
MODEL 8
REMARK VINA RESULT:      -7.3      2.888      9.181
REMARK  6 active torsions:
REMARK  status: ('A' for Active; 'I' for Inactive)
REMARK    1  A    between atoms: C_7  and  C_8 
REMARK    2  A    between atoms: C_8  and  N_9 
REMARK    3  A    between atoms: C_12  and  C_15 
REMARK    4  A    between atoms: C_15  and  O_16 
REMARK    5  A    between atoms: O_16  and  C_17 
REMARK    6  A    between atoms: C_19  and  N_20 
REMARK       I    between atoms: C_23  and  N_24 
ROOT
HETATM    1  C   UNK N   1      36.560  13.801  15.251  0.00  0.00     0.085 A 
HETATM    2  C   UNK N   1      36.027  13.489  16.575  0.00  0.00     0.069 A 
HETATM    3  C   UNK N   1      35.384  12.277  17.002  0.00  0.00     0.130 A 
HETATM    4  N   UNK N   1      34.946  12.155  18.282  0.00  0.00    -0.176 N 
ATOM      5  HN  UNK N   1      34.493  11.287  18.567  1.00  0.00     0.186 HD
HETATM    6  C   UNK N   1      35.089  13.142  19.187  0.00  0.00     0.677 A 
HETATM    7  N   UNK N   1      34.614  12.962  20.501  0.00  0.00    -0.234 N 
HETATM    8  N   UNK N   1      35.689  14.296  18.840  0.00  0.00    -0.191 N 
ATOM      9  HN  UNK N   1      35.793  15.034  19.537  1.00  0.00     0.184 HD
HETATM   10  C   UNK N   1      36.157  14.499  17.583  0.00  0.00     0.066 A 
HETATM   11  C   UNK N   1      36.770  15.718  17.314  0.00  0.00     0.031 A 
HETATM   12  C   UNK N   1      37.278  15.990  16.060  0.00  0.00     0.005 A 
HETATM   13  C   UNK N   1      37.173  15.045  15.056  0.00  0.00     0.038 A 
HETATM   14  H   UNK N   1      34.696  13.681  21.170  0.00  0.00     0.174 HD
HETATM   15  H   UNK N   1      34.195  12.108  20.755  0.00  0.00     0.174 HD
ENDROOT
BRANCH   1  16
HETATM   16  O   UNK N   1      36.547  13.033  14.128  0.00  0.00    -0.350 OA
BRANCH  16  17
HETATM   17  C   UNK N   1      36.744  13.324  12.808  0.00  0.00     0.180 C 
BRANCH  17  18
HETATM   18  C   UNK N   1      35.400  13.603  12.167  0.00  0.00     0.013 C 
HETATM   19  C   UNK N   1      35.273  15.059  11.713  0.00  0.00     0.037 C 
HETATM   20  C   UNK N   1      36.087  15.321  10.432  0.00  0.00     0.273 C 
HETATM   21  N   UNK N   1      35.696  14.409   9.354  0.00  0.00     0.092 N 
HETATM   22  C   UNK N   1      35.968  13.023   9.782  0.00  0.00     0.273 C 
HETATM   23  C   UNK N   1      35.152  12.635  11.020  0.00  0.00     0.037 C 
BRANCH  21  24
HETATM   24  C   UNK N   1      34.288  14.688   9.008  0.00  0.00     0.314 C 
BRANCH  24  25
HETATM   25  C   UNK N   1      34.108  15.633   7.861  0.00  0.00     0.009 A 
HETATM   26  C   UNK N   1      33.843  16.987   8.116  0.00  0.00     0.124 A 
HETATM   27  F   UNK N   1      33.757  17.442   9.392  0.00  0.00    -0.205 F 
HETATM   28  C   UNK N   1      33.642  17.871   7.055  0.00  0.00     0.043 A 
HETATM   29  C   UNK N   1      33.714  17.409   5.737  0.00  0.00     0.003 A 
HETATM   30  C   UNK N   1      33.985  16.061   5.481  0.00  0.00     0.001 A 
HETATM   31  C   UNK N   1      34.178  15.171   6.542  0.00  0.00     0.012 A 
ENDBRANCH  24  25
ENDBRANCH  21  24
ENDBRANCH  17  18
ENDBRANCH  16  17
ENDBRANCH   1  16
BRANCH   3  32
HETATM   32  N   UNK N   1      35.180  11.175  16.168  0.00  0.00    -0.384 N 
HETATM   33  H   UNK N   1      35.925  10.789  15.652  0.00  0.00     0.157 HD
HETATM   34  H   UNK N   1      34.282  10.780  16.096  0.00  0.00     0.157 HD
ENDBRANCH   3  32
TORSDOF 6
ENDMDL
MODEL 9
REMARK VINA RESULT:      -7.2     12.563     14.712
REMARK  6 active torsions:
REMARK  status: ('A' for Active; 'I' for Inactive)
REMARK    1  A    between atoms: C_7  and  C_8 
REMARK    2  A    between atoms: C_8  and  N_9 
REMARK    3  A    between atoms: C_12  and  C_15 
REMARK    4  A    between atoms: C_15  and  O_16 
REMARK    5  A    between atoms: O_16  and  C_17 
REMARK    6  A    between atoms: C_19  and  N_20 
REMARK       I    between atoms: C_23  and  N_24 
ROOT
HETATM    1  C   UNK N   1      23.020  18.560   3.874  0.00  0.00     0.085 A 
HETATM    2  C   UNK N   1      24.460  18.772   4.002  0.00  0.00     0.069 A 
HETATM    3  C   UNK N   1      25.429  17.901   4.607  0.00  0.00     0.130 A 
HETATM    4  N   UNK N   1      26.739  18.258   4.638  0.00  0.00    -0.176 N 
ATOM      5  HN  UNK N   1      27.411  17.626   5.072  1.00  0.00     0.186 HD
HETATM    6  C   UNK N   1      27.179  19.419   4.116  0.00  0.00     0.677 A 
HETATM    7  N   UNK N   1      28.549  19.740   4.178  0.00  0.00    -0.234 N 
HETATM    8  N   UNK N   1      26.314  20.268   3.533  0.00  0.00    -0.191 N 
ATOM      9  HN  UNK N   1      26.661  21.143   3.139  1.00  0.00     0.184 HD
HETATM   10  C   UNK N   1      24.988  19.987   3.457  0.00  0.00     0.066 A 
HETATM   11  C   UNK N   1      24.168  20.919   2.831  0.00  0.00     0.031 A 
HETATM   12  C   UNK N   1      22.812  20.695   2.709  0.00  0.00     0.005 A 
HETATM   13  C   UNK N   1      22.258  19.536   3.222  0.00  0.00     0.038 A 
HETATM   14  H   UNK N   1      28.884  20.592   3.816  0.00  0.00     0.174 HD
HETATM   15  H   UNK N   1      29.180  19.105   4.587  0.00  0.00     0.174 HD
ENDROOT
BRANCH   1  16
HETATM   16  O   UNK N   1      22.274  17.511   4.317  0.00  0.00    -0.350 OA
BRANCH  16  17
HETATM   17  C   UNK N   1      20.998  17.423   4.794  0.00  0.00     0.180 C 
BRANCH  17  18
HETATM   18  C   UNK N   1      20.671  15.964   5.039  0.00  0.00     0.013 C 
HETATM   19  C   UNK N   1      21.885  15.181   5.544  0.00  0.00     0.037 C 
HETATM   20  C   UNK N   1      22.183  15.499   7.021  0.00  0.00     0.273 C 
HETATM   21  N   UNK N   1      21.016  15.243   7.870  0.00  0.00     0.092 N 
HETATM   22  C   UNK N   1      19.913  16.122   7.437  0.00  0.00     0.273 C 
HETATM   23  C   UNK N   1      19.490  15.841   5.991  0.00  0.00     0.037 C 
BRANCH  21  24
HETATM   24  C   UNK N   1      20.720  13.798   7.814  0.00  0.00     0.314 C 
BRANCH  24  25
HETATM   25  C   UNK N   1      21.469  12.972   8.813  0.00  0.00     0.009 A 
HETATM   26  C   UNK N   1      21.055  12.965  10.153  0.00  0.00     0.124 A 
HETATM   27  F   UNK N   1      19.979  13.695  10.544  0.00  0.00    -0.205 F 
HETATM   28  C   UNK N   1      21.765  12.223  11.099  0.00  0.00     0.043 A 
HETATM   29  C   UNK N   1      22.883  11.480  10.708  0.00  0.00     0.003 A 
HETATM   30  C   UNK N   1      23.293  11.481   9.372  0.00  0.00     0.001 A 
HETATM   31  C   UNK N   1      22.589  12.230   8.423  0.00  0.00     0.012 A 
ENDBRANCH  24  25
ENDBRANCH  21  24
ENDBRANCH  17  18
ENDBRANCH  16  17
ENDBRANCH   1  16
BRANCH   3  32
HETATM   32  N   UNK N   1      25.108  16.666   5.177  0.00  0.00    -0.384 N 
HETATM   33  H   UNK N   1      24.170  16.415   5.342  0.00  0.00     0.157 HD
HETATM   34  H   UNK N   1      25.828  16.040   5.417  0.00  0.00     0.157 HD
ENDBRANCH   3  32
TORSDOF 6
ENDMDL
