REMARK  6 active torsions:
REMARK  status: ('A' for Active; 'I' for Inactive)
REMARK    1  A    between atoms: C_7  and  C_8 
REMARK    2  A    between atoms: C_8  and  N_9 
REMARK    3  A    between atoms: C_12  and  C_15 
REMARK    4  A    between atoms: C_15  and  O_16 
REMARK    5  A    between atoms: O_16  and  C_17 
REMARK    6  A    between atoms: C_19  and  N_20 
REMARK       I    between atoms: C_23  and  N_24 
ROOT
HETATM    1  C   UNK N   1      -0.449  -3.440  -0.366  0.00  0.00     0.085 A 
HETATM    2  C   UNK N   1       0.961  -3.759  -0.154  0.00  0.00     0.069 A 
HETATM    3  C   UNK N   1       2.079  -2.857  -0.166  0.00  0.00     0.130 A 
HETATM    4  N   UNK N   1       3.334  -3.328   0.053  0.00  0.00    -0.176 N 
ATOM      5  HN  UNK N   1       4.115  -2.672   0.042  1.00  0.00     0.186 HD
HETATM    6  C   UNK N   1       3.582  -4.631   0.285  0.00  0.00     0.677 A 
HETATM    7  N   UNK N   1       4.904  -5.065   0.504  0.00  0.00    -0.234 N 
HETATM    8  N   UNK N   1       2.569  -5.517   0.312  0.00  0.00    -0.191 N 
ATOM      9  HN  UNK N   1       2.771  -6.501   0.491  1.00  0.00     0.184 HD
HETATM   10  C   UNK N   1       1.285  -5.130   0.105  0.00  0.00     0.066 A 
HETATM   11  C   UNK N   1       0.301  -6.111   0.158  0.00  0.00     0.031 A 
HETATM   12  C   UNK N   1      -1.027  -5.789  -0.033  0.00  0.00     0.005 A 
HETATM   13  C   UNK N   1      -1.386  -4.478  -0.288  0.00  0.00     0.038 A 
HETATM   14  H   UNK N   1       5.103  -6.017   0.658  0.00  0.00     0.174 HD
HETATM   15  H   UNK N   1       5.638  -4.409   0.504  0.00  0.00     0.174 HD
ENDROOT
BRANCH   1  16
HETATM   16  O   UNK N   1      -1.014  -2.234  -0.645  0.00  0.00    -0.350 OA
BRANCH  16  17
HETATM   17  C   UNK N   1      -0.483  -1.019  -0.971  0.00  0.00     0.180 C 
BRANCH  17  18
HETATM   18  C   UNK N   1      -0.977   0.010   0.025  0.00  0.00     0.013 C 
HETATM   19  C   UNK N   1       0.145   0.511   0.937  0.00  0.00     0.037 C 
HETATM   20  C   UNK N   1       1.079   1.484   0.195  0.00  0.00     0.273 C 
HETATM   21  N   UNK N   1       0.335   2.612  -0.373  0.00  0.00     0.092 N 
HETATM   22  C   UNK N   1      -0.639   2.093  -1.352  0.00  0.00     0.273 C 
HETATM   23  C   UNK N   1      -1.664   1.158  -0.700  0.00  0.00     0.037 C 
BRANCH  21  24
HETATM   24  C   UNK N   1      -0.252   3.379   0.743  0.00  0.00     0.314 C 
BRANCH  24  25
HETATM   25  C   UNK N   1      -1.507   4.118   0.395  0.00  0.00     0.009 A 
HETATM   26  C   UNK N   1      -2.734   3.679   0.915  0.00  0.00     0.124 A 
HETATM   27  F   UNK N   1      -2.786   2.596   1.732  0.00  0.00    -0.205 F 
HETATM   28  C   UNK N   1      -3.914   4.341   0.572  0.00  0.00     0.043 A 
HETATM   29  C   UNK N   1      -3.872   5.448  -0.281  0.00  0.00     0.003 A 
HETATM   30  C   UNK N   1      -2.649   5.891  -0.794  0.00  0.00     0.001 A 
HETATM   31  C   UNK N   1      -1.466   5.225  -0.460  0.00  0.00     0.012 A 
ENDBRANCH  24  25
ENDBRANCH  21  24
ENDBRANCH  17  18
ENDBRANCH  16  17
ENDBRANCH   1  16
BRANCH   3  32
HETATM   32  N   UNK N   1       1.961  -1.482  -0.385  0.00  0.00    -0.384 N 
HETATM   33  H   UNK N   1       2.759  -0.926  -0.539  0.00  0.00     0.157 HD
HETATM   34  H   UNK N   1       1.070  -1.065  -0.385  0.00  0.00     0.157 HD
ENDBRANCH   3  32
TORSDOF 6
