REMARK  6 active torsions:
REMARK  status: ('A' for Active; 'I' for Inactive)
REMARK    1  A    between atoms: C_2  and  C_7 
REMARK    2  A    between atoms: C_7  and  N_21 
REMARK    3  A    between atoms: O_11  and  C_12 
REMARK    4  A    between atoms: O_11  and  C_24 
REMARK    5  A    between atoms: C_17  and  N_26 
REMARK       I    between atoms: C_18  and  N_29 
REMARK    6  A    between atoms: C_22  and  C_24 
ROOT
HETATM    1  C   UNK N   1      -0.464  -3.058  -0.054  0.00  0.00     0.085 A 
HETATM    2  C   UNK N   1      -1.441  -4.044  -0.230  0.00  0.00     0.038 A 
HETATM    3  C   UNK N   1      -1.097  -5.378  -0.408  0.00  0.00     0.005 A 
HETATM    4  C   UNK N   1       0.239  -5.758  -0.392  0.00  0.00     0.031 A 
HETATM    5  C   UNK N   1       1.243  -4.801  -0.250  0.00  0.00     0.066 A 
HETATM    6  C   UNK N   1       2.018  -2.515  -0.064  0.00  0.00     0.130 A 
HETATM    7  C   UNK N   1       3.551  -4.318  -0.140  0.00  0.00     0.677 A 
HETATM    8  C   UNK N   1       0.923  -3.424  -0.112  0.00  0.00     0.069 A 
HETATM    9  N   UNK N   1       3.290  -2.993  -0.076  0.00  0.00    -0.176 N 
ATOM     10  HN  UNK N   1       4.068  -2.335  -0.034  1.00  0.00     0.186 HD
HETATM   11  N   UNK N   1       4.885  -4.771  -0.117  0.00  0.00    -0.234 N 
HETATM   12  N   UNK N   1       2.538  -5.208  -0.249  0.00  0.00    -0.191 N 
ATOM     13  HN  UNK N   1       2.752  -6.202  -0.333  1.00  0.00     0.184 HD
HETATM   14  H   UNK N   1       5.076  -5.736  -0.100  0.00  0.00     0.174 HD
HETATM   15  H   UNK N   1       5.625  -4.122  -0.117  0.00  0.00     0.174 HD
ENDROOT
BRANCH   1  16
HETATM   16  O   UNK N   1      -0.919  -1.813   0.205  0.00  0.00    -0.350 OA
BRANCH  16  17
HETATM   17  C   UNK N   1      -0.445  -1.004   1.219  0.00  0.00     0.180 C 
BRANCH  17  18
HETATM   18  C   UNK N   1      -1.238   0.303   1.295  0.00  0.00     0.013 C 
HETATM   19  C   UNK N   1      -0.344   1.500   1.622  0.00  0.00     0.026 C 
HETATM   20  C   UNK N   1       0.593   1.858   0.460  0.00  0.00     0.117 C 
HETATM   21  N   UNK N   1      -0.095   1.922  -0.838  0.00  0.00    -0.408 N 
HETATM   22  C   UNK N   1      -1.049   0.851  -1.142  0.00  0.00     0.117 C 
HETATM   23  C   UNK N   1      -2.011   0.596   0.016  0.00  0.00     0.026 C 
BRANCH  21  24
HETATM   24  C   UNK N   1      -0.474   3.248  -1.341  0.00  0.00     0.157 C 
BRANCH  24  25
HETATM   25  C   UNK N   1      -1.554   3.971  -0.573  0.00  0.00    -0.017 A 
HETATM   26  C   UNK N   1      -1.379   5.316  -0.192  0.00  0.00     0.063 A 
HETATM   27  C   UNK N   1      -2.427   5.996   0.462  0.00  0.00     0.056 A 
HETATM   28 Cl   UNK N   1       0.124   6.160  -0.568  0.00  0.00    -0.082 Cl
HETATM   29  C   UNK N   1      -3.625   5.335   0.740  0.00  0.00     0.026 A 
HETATM   30 Cl   UNK N   1      -2.277   7.685   0.920  0.00  0.00    -0.083 Cl
HETATM   31  C   UNK N   1      -3.798   4.007   0.358  0.00  0.00     0.002 A 
HETATM   32  C   UNK N   1      -2.774   3.340  -0.310  0.00  0.00     0.011 A 
ENDBRANCH  24  25
ENDBRANCH  21  24
ENDBRANCH  17  18
ENDBRANCH  16  17
ENDBRANCH   1  16
BRANCH   6  33
HETATM   33  N   UNK N   1       1.843  -1.120  -0.085  0.00  0.00    -0.384 N 
HETATM   34  H   UNK N   1       2.627  -0.525  -0.099  0.00  0.00     0.157 HD
HETATM   35  H   UNK N   1       0.935  -0.737  -0.085  0.00  0.00     0.157 HD
ENDBRANCH   6  33
TORSDOF 6
