MODEL 1
REMARK VINA RESULT:      -7.8      0.000      0.000
REMARK  6 active torsions:
REMARK  status: ('A' for Active; 'I' for Inactive)
REMARK    1  A    between atoms: C_2  and  C_7 
REMARK    2  A    between atoms: C_7  and  N_21 
REMARK    3  A    between atoms: O_11  and  C_12 
REMARK    4  A    between atoms: O_11  and  C_24 
REMARK    5  A    between atoms: C_17  and  N_26 
REMARK       I    between atoms: C_18  and  N_29 
REMARK    6  A    between atoms: C_22  and  C_24 
ROOT
HETATM    1  C   UNK N   1      35.181  12.074  12.098  0.00  0.00     0.085 A 
HETATM    2  C   UNK N   1      34.511  10.902  11.728  0.00  0.00     0.038 A 
HETATM    3  C   UNK N   1      33.832  10.132  12.665  0.00  0.00     0.005 A 
HETATM    4  C   UNK N   1      33.793  10.532  13.994  0.00  0.00     0.031 A 
HETATM    5  C   UNK N   1      34.474  11.676  14.408  0.00  0.00     0.066 A 
HETATM    6  C   UNK N   1      35.948  13.556  14.014  0.00  0.00     0.130 A 
HETATM    7  C   UNK N   1      35.084  13.117  16.175  0.00  0.00     0.677 A 
HETATM    8  C   UNK N   1      35.213  12.458  13.481  0.00  0.00     0.069 A 
HETATM    9  N   UNK N   1      35.855  13.848  15.338  0.00  0.00    -0.176 N 
ATOM     10  HN  UNK N   1      36.379  14.640  15.710  1.00  0.00     0.186 HD
HETATM   11  N   UNK N   1      34.992  13.475  17.534  0.00  0.00    -0.234 N 
HETATM   12  N   UNK N   1      34.421  12.031  15.717  0.00  0.00    -0.191 N 
ATOM     13  HN  UNK N   1      33.873  11.468  16.368  1.00  0.00     0.184 HD
HETATM   14  H   UNK N   1      34.384  12.984  18.132  0.00  0.00     0.174 HD
HETATM   15  H   UNK N   1      35.535  14.218  17.885  0.00  0.00     0.174 HD
ENDROOT
BRANCH   1  16
HETATM   16  O   UNK N   1      35.723  12.790  11.089  0.00  0.00    -0.350 OA
BRANCH  16  17
HETATM   17  C   UNK N   1      35.091  13.048   9.889  0.00  0.00     0.180 C 
BRANCH  17  18
HETATM   18  C   UNK N   1      33.927  14.023  10.080  0.00  0.00     0.013 C 
HETATM   19  C   UNK N   1      34.388  15.365  10.651  0.00  0.00     0.026 C 
HETATM   20  C   UNK N   1      35.211  16.174   9.640  0.00  0.00     0.117 C 
HETATM   21  N   UNK N   1      34.590  16.237   8.308  0.00  0.00    -0.408 N 
HETATM   22  C   UNK N   1      34.032  14.992   7.772  0.00  0.00     0.117 C 
HETATM   23  C   UNK N   1      33.153  14.273   8.792  0.00  0.00     0.026 C 
BRANCH  21  24
HETATM   24  C   UNK N   1      33.836  17.449   7.968  0.00  0.00     0.157 C 
BRANCH  24  25
HETATM   25  C   UNK N   1      32.967  17.372   6.735  0.00  0.00    -0.017 A 
HETATM   26  C   UNK N   1      31.572  17.222   6.855  0.00  0.00     0.063 A 
HETATM   27  C   UNK N   1      30.769  17.224   5.696  0.00  0.00     0.056 A 
HETATM   28 Cl   UNK N   1      30.825  17.077   8.447  0.00  0.00    -0.082 Cl
HETATM   29  C   UNK N   1      31.358  17.361   4.437  0.00  0.00     0.026 A 
HETATM   30 Cl   UNK N   1      29.021  17.084   5.792  0.00  0.00    -0.083 Cl
HETATM   31  C   UNK N   1      32.737  17.514   4.321  0.00  0.00     0.002 A 
HETATM   32  C   UNK N   1      33.530  17.538   5.466  0.00  0.00     0.011 A 
ENDBRANCH  24  25
ENDBRANCH  21  24
ENDBRANCH  17  18
ENDBRANCH  16  17
ENDBRANCH   1  16
BRANCH   6  33
HETATM   33  N   UNK N   1      36.841  14.315  13.238  0.00  0.00    -0.384 N 
HETATM   34  H   UNK N   1      37.743  14.515  13.578  0.00  0.00     0.157 HD
HETATM   35  H   UNK N   1      36.565  14.648  12.352  0.00  0.00     0.157 HD
ENDBRANCH   6  33
TORSDOF 6
ENDMDL
MODEL 2
REMARK VINA RESULT:      -7.7      3.726      9.151
REMARK  6 active torsions:
REMARK  status: ('A' for Active; 'I' for Inactive)
REMARK    1  A    between atoms: C_2  and  C_7 
REMARK    2  A    between atoms: C_7  and  N_21 
REMARK    3  A    between atoms: O_11  and  C_12 
REMARK    4  A    between atoms: O_11  and  C_24 
REMARK    5  A    between atoms: C_17  and  N_26 
REMARK       I    between atoms: C_18  and  N_29 
REMARK    6  A    between atoms: C_22  and  C_24 
ROOT
HETATM    1  C   UNK N   1      32.601  17.383   7.469  0.00  0.00     0.085 A 
HETATM    2  C   UNK N   1      33.438  17.423   6.348  0.00  0.00     0.038 A 
HETATM    3  C   UNK N   1      32.918  17.440   5.059  0.00  0.00     0.005 A 
HETATM    4  C   UNK N   1      31.543  17.438   4.866  0.00  0.00     0.031 A 
HETATM    5  C   UNK N   1      30.677  17.367   5.956  0.00  0.00     0.066 A 
HETATM    6  C   UNK N   1      30.220  17.141   8.323  0.00  0.00     0.130 A 
HETATM    7  C   UNK N   1      28.456  17.264   6.749  0.00  0.00     0.677 A 
HETATM    8  C   UNK N   1      31.180  17.303   7.283  0.00  0.00     0.069 A 
HETATM    9  N   UNK N   1      28.896  17.131   8.020  0.00  0.00    -0.176 N 
ATOM     10  HN  UNK N   1      28.216  17.023   8.772  1.00  0.00     0.186 HD
HETATM   11  N   UNK N   1      27.072  17.280   6.485  0.00  0.00    -0.234 N 
HETATM   12  N   UNK N   1      29.339  17.357   5.728  0.00  0.00    -0.191 N 
ATOM     13  HN  UNK N   1      28.992  17.420   4.771  1.00  0.00     0.184 HD
HETATM   14  H   UNK N   1      26.748  17.440   5.569  0.00  0.00     0.174 HD
HETATM   15  H   UNK N   1      26.430  17.134   7.216  0.00  0.00     0.174 HD
ENDROOT
BRANCH   1  16
HETATM   16  O   UNK N   1      33.215  17.467   8.669  0.00  0.00    -0.350 OA
BRANCH  16  17
HETATM   17  C   UNK N   1      34.425  16.874   8.970  0.00  0.00     0.180 C 
BRANCH  17  18
HETATM   18  C   UNK N   1      34.326  15.349   8.887  0.00  0.00     0.013 C 
HETATM   19  C   UNK N   1      35.695  14.692   8.703  0.00  0.00     0.026 C 
HETATM   20  C   UNK N   1      36.567  14.806   9.961  0.00  0.00     0.117 C 
HETATM   21  N   UNK N   1      35.853  14.438  11.193  0.00  0.00    -0.408 N 
HETATM   22  C   UNK N   1      34.491  14.955  11.356  0.00  0.00     0.117 C 
HETATM   23  C   UNK N   1      33.643  14.739  10.104  0.00  0.00     0.026 C 
BRANCH  21  24
HETATM   24  C   UNK N   1      36.069  13.087  11.725  0.00  0.00     0.157 C 
BRANCH  24  25
HETATM   25  C   UNK N   1      35.933  12.928  13.220  0.00  0.00    -0.017 A 
HETATM   26  C   UNK N   1      35.187  11.860  13.758  0.00  0.00     0.063 A 
HETATM   27  C   UNK N   1      35.130  11.686  15.156  0.00  0.00     0.056 A 
HETATM   28 Cl   UNK N   1      34.365  10.721  12.691  0.00  0.00    -0.082 Cl
HETATM   29  C   UNK N   1      35.799  12.574  16.001  0.00  0.00     0.026 A 
HETATM   30 Cl   UNK N   1      34.251  10.347  15.877  0.00  0.00    -0.083 Cl
HETATM   31  C   UNK N   1      36.540  13.626  15.467  0.00  0.00     0.002 A 
HETATM   32  C   UNK N   1      36.618  13.786  14.085  0.00  0.00     0.011 A 
ENDBRANCH  24  25
ENDBRANCH  21  24
ENDBRANCH  17  18
ENDBRANCH  16  17
ENDBRANCH   1  16
BRANCH   6  33
HETATM   33  N   UNK N   1      30.588  16.909   9.660  0.00  0.00    -0.384 N 
HETATM   34  H   UNK N   1      29.895  16.812  10.352  0.00  0.00     0.157 HD
HETATM   35  H   UNK N   1      31.540  16.844   9.905  0.00  0.00     0.157 HD
ENDBRANCH   6  33
TORSDOF 6
ENDMDL
MODEL 3
REMARK VINA RESULT:      -7.4      6.690     10.141
REMARK  6 active torsions:
REMARK  status: ('A' for Active; 'I' for Inactive)
REMARK    1  A    between atoms: C_2  and  C_7 
REMARK    2  A    between atoms: C_7  and  N_21 
REMARK    3  A    between atoms: O_11  and  C_12 
REMARK    4  A    between atoms: O_11  and  C_24 
REMARK    5  A    between atoms: C_17  and  N_26 
REMARK       I    between atoms: C_18  and  N_29 
REMARK    6  A    between atoms: C_22  and  C_24 
ROOT
HETATM    1  C   UNK N   1      29.071  17.197   6.974  0.00  0.00     0.085 A 
HETATM    2  C   UNK N   1      28.085  17.463   7.930  0.00  0.00     0.038 A 
HETATM    3  C   UNK N   1      28.409  17.984   9.177  0.00  0.00     0.005 A 
HETATM    4  C   UNK N   1      29.732  18.271   9.486  0.00  0.00     0.031 A 
HETATM    5  C   UNK N   1      30.747  17.991   8.572  0.00  0.00     0.066 A 
HETATM    6  C   UNK N   1      31.561  17.084   6.480  0.00  0.00     0.130 A 
HETATM    7  C   UNK N   1      33.054  18.000   8.073  0.00  0.00     0.677 A 
HETATM    8  C   UNK N   1      30.451  17.416   7.308  0.00  0.00     0.069 A 
HETATM    9  N   UNK N   1      32.820  17.390   6.890  0.00  0.00    -0.176 N 
ATOM     10  HN  UNK N   1      33.609  17.156   6.288  1.00  0.00     0.186 HD
HETATM   11  N   UNK N   1      34.374  18.329   8.443  0.00  0.00    -0.234 N 
HETATM   12  N   UNK N   1      32.030  18.275   8.913  0.00  0.00    -0.191 N 
ATOM     13  HN  UNK N   1      32.226  18.703   9.818  1.00  0.00     0.184 HD
HETATM   14  H   UNK N   1      34.541  18.829   9.274  0.00  0.00     0.174 HD
HETATM   15  H   UNK N   1      35.127  18.059   7.870  0.00  0.00     0.174 HD
ENDROOT
BRANCH   1  16
HETATM   16  O   UNK N   1      28.630  16.783   5.767  0.00  0.00    -0.350 OA
BRANCH  16  17
HETATM   17  C   UNK N   1      27.360  17.018   5.278  0.00  0.00     0.180 C 
BRANCH  17  18
HETATM   18  C   UNK N   1      26.743  15.737   4.713  0.00  0.00     0.013 C 
HETATM   19  C   UNK N   1      26.778  14.588   5.723  0.00  0.00     0.026 C 
HETATM   20  C   UNK N   1      25.815  14.819   6.896  0.00  0.00     0.117 C 
HETATM   21  N   UNK N   1      24.473  15.240   6.468  0.00  0.00    -0.408 N 
HETATM   22  C   UNK N   1      24.396  16.259   5.417  0.00  0.00     0.117 C 
HETATM   23  C   UNK N   1      25.310  15.935   4.237  0.00  0.00     0.026 C 
BRANCH  21  24
HETATM   24  C   UNK N   1      23.425  14.213   6.410  0.00  0.00     0.157 C 
BRANCH  24  25
HETATM   25  C   UNK N   1      22.481  14.154   7.586  0.00  0.00    -0.017 A 
HETATM   26  C   UNK N   1      22.715  13.252   8.643  0.00  0.00     0.063 A 
HETATM   27  C   UNK N   1      21.863  13.261   9.767  0.00  0.00     0.056 A 
HETATM   28 Cl   UNK N   1      24.090  12.148   8.585  0.00  0.00    -0.082 Cl
HETATM   29  C   UNK N   1      20.788  14.150   9.823  0.00  0.00     0.026 A 
HETATM   30 Cl   UNK N   1      22.135  12.188  11.131  0.00  0.00    -0.083 Cl
HETATM   31  C   UNK N   1      20.561  15.044   8.780  0.00  0.00     0.002 A 
HETATM   32  C   UNK N   1      21.416  15.054   7.680  0.00  0.00     0.011 A 
ENDBRANCH  24  25
ENDBRANCH  21  24
ENDBRANCH  17  18
ENDBRANCH  16  17
ENDBRANCH   1  16
BRANCH   6  33
HETATM   33  N   UNK N   1      31.420  16.372   5.276  0.00  0.00    -0.384 N 
HETATM   34  H   UNK N   1      32.201  16.224   4.697  0.00  0.00     0.157 HD
HETATM   35  H   UNK N   1      30.538  16.021   5.012  0.00  0.00     0.157 HD
ENDBRANCH   6  33
TORSDOF 6
ENDMDL
MODEL 4
REMARK VINA RESULT:      -7.3      2.807      4.534
REMARK  6 active torsions:
REMARK  status: ('A' for Active; 'I' for Inactive)
REMARK    1  A    between atoms: C_2  and  C_7 
REMARK    2  A    between atoms: C_7  and  N_21 
REMARK    3  A    between atoms: O_11  and  C_12 
REMARK    4  A    between atoms: O_11  and  C_24 
REMARK    5  A    between atoms: C_17  and  N_26 
REMARK       I    between atoms: C_18  and  N_29 
REMARK    6  A    between atoms: C_22  and  C_24 
ROOT
HETATM    1  C   UNK N   1      33.894  14.602   9.492  0.00  0.00     0.085 A 
HETATM    2  C   UNK N   1      33.494  13.450   8.807  0.00  0.00     0.038 A 
HETATM    3  C   UNK N   1      33.857  12.184   9.249  0.00  0.00     0.005 A 
HETATM    4  C   UNK N   1      34.613  12.044  10.406  0.00  0.00     0.031 A 
HETATM    5  C   UNK N   1      35.057  13.169  11.100  0.00  0.00     0.066 A 
HETATM    6  C   UNK N   1      35.313  15.561  11.368  0.00  0.00     0.130 A 
HETATM    7  C   UNK N   1      36.279  14.052  12.916  0.00  0.00     0.677 A 
HETATM    8  C   UNK N   1      34.740  14.477  10.645  0.00  0.00     0.069 A 
HETATM    9  N   UNK N   1      36.058  15.311  12.478  0.00  0.00    -0.176 N 
ATOM     10  HN  UNK N   1      36.458  16.095  12.993  1.00  0.00     0.186 HD
HETATM   11  N   UNK N   1      37.030  13.840  14.089  0.00  0.00    -0.234 N 
HETATM   12  N   UNK N   1      35.803  12.994  12.220  0.00  0.00    -0.191 N 
ATOM     13  HN  UNK N   1      36.009  12.049  12.543  1.00  0.00     0.184 HD
HETATM   14  H   UNK N   1      37.139  12.930  14.445  0.00  0.00     0.174 HD
HETATM   15  H   UNK N   1      37.443  14.604  14.553  0.00  0.00     0.174 HD
ENDROOT
BRANCH   1  16
HETATM   16  O   UNK N   1      33.403  15.770   9.024  0.00  0.00    -0.350 OA
BRANCH  16  17
HETATM   17  C   UNK N   1      32.066  16.010   8.772  0.00  0.00     0.180 C 
BRANCH  17  18
HETATM   18  C   UNK N   1      31.862  17.399   8.163  0.00  0.00     0.013 C 
HETATM   19  C   UNK N   1      32.609  17.562   6.838  0.00  0.00     0.026 C 
HETATM   20  C   UNK N   1      31.989  16.718   5.716  0.00  0.00     0.117 C 
HETATM   21  N   UNK N   1      30.527  16.849   5.635  0.00  0.00    -0.408 N 
HETATM   22  C   UNK N   1      29.782  16.814   6.897  0.00  0.00     0.117 C 
HETATM   23  C   UNK N   1      30.393  17.737   7.949  0.00  0.00     0.026 C 
BRANCH  21  24
HETATM   24  C   UNK N   1      29.983  17.762   4.622  0.00  0.00     0.157 C 
BRANCH  24  25
HETATM   25  C   UNK N   1      28.566  17.496   4.175  0.00  0.00    -0.017 A 
HETATM   26  C   UNK N   1      27.572  18.483   4.329  0.00  0.00     0.063 A 
HETATM   27  C   UNK N   1      26.271  18.243   3.840  0.00  0.00     0.056 A 
HETATM   28 Cl   UNK N   1      27.961  20.027   5.088  0.00  0.00    -0.082 Cl
HETATM   29  C   UNK N   1      25.969  17.030   3.219  0.00  0.00     0.026 A 
HETATM   30 Cl   UNK N   1      25.007  19.456   3.968  0.00  0.00    -0.083 Cl
HETATM   31  C   UNK N   1      26.953  16.057   3.063  0.00  0.00     0.002 A 
HETATM   32  C   UNK N   1      28.245  16.301   3.522  0.00  0.00     0.011 A 
ENDBRANCH  24  25
ENDBRANCH  21  24
ENDBRANCH  17  18
ENDBRANCH  16  17
ENDBRANCH   1  16
BRANCH   6  33
HETATM   33  N   UNK N   1      35.210  16.896  10.937  0.00  0.00    -0.384 N 
HETATM   34  H   UNK N   1      35.042  17.613  11.590  0.00  0.00     0.157 HD
HETATM   35  H   UNK N   1      35.304  17.113   9.981  0.00  0.00     0.157 HD
ENDBRANCH   6  33
TORSDOF 6
ENDMDL
MODEL 5
REMARK VINA RESULT:      -7.3      1.556      2.116
REMARK  6 active torsions:
REMARK  status: ('A' for Active; 'I' for Inactive)
REMARK    1  A    between atoms: C_2  and  C_7 
REMARK    2  A    between atoms: C_7  and  N_21 
REMARK    3  A    between atoms: O_11  and  C_12 
REMARK    4  A    between atoms: O_11  and  C_24 
REMARK    5  A    between atoms: C_17  and  N_26 
REMARK       I    between atoms: C_18  and  N_29 
REMARK    6  A    between atoms: C_22  and  C_24 
ROOT
HETATM    1  C   UNK N   1      35.320  12.383  13.134  0.00  0.00     0.085 A 
HETATM    2  C   UNK N   1      34.597  11.246  12.754  0.00  0.00     0.038 A 
HETATM    3  C   UNK N   1      33.898  10.490  13.687  0.00  0.00     0.005 A 
HETATM    4  C   UNK N   1      33.890  10.871  15.023  0.00  0.00     0.031 A 
HETATM    5  C   UNK N   1      34.623  11.979  15.445  0.00  0.00     0.066 A 
HETATM    6  C   UNK N   1      36.169  13.802  15.062  0.00  0.00     0.130 A 
HETATM    7  C   UNK N   1      35.312  13.366  17.226  0.00  0.00     0.677 A 
HETATM    8  C   UNK N   1      35.384  12.745  14.522  0.00  0.00     0.069 A 
HETATM    9  N   UNK N   1      36.103  14.077  16.392  0.00  0.00    -0.176 N 
ATOM     10  HN  UNK N   1      36.664  14.841  16.769  1.00  0.00     0.186 HD
HETATM   11  N   UNK N   1      35.250  13.707  18.592  0.00  0.00    -0.234 N 
HETATM   12  N   UNK N   1      34.599  12.315  16.760  0.00  0.00    -0.191 N 
ATOM     13  HN  UNK N   1      34.035  11.766  17.409  1.00  0.00     0.184 HD
HETATM   14  H   UNK N   1      34.628  13.233  19.189  0.00  0.00     0.174 HD
HETATM   15  H   UNK N   1      35.827  14.421  18.948  0.00  0.00     0.174 HD
ENDROOT
BRANCH   1  16
HETATM   16  O   UNK N   1      35.880  13.091  12.129  0.00  0.00    -0.350 OA
BRANCH  16  17
HETATM   17  C   UNK N   1      35.362  13.177  10.852  0.00  0.00     0.180 C 
BRANCH  17  18
HETATM   18  C   UNK N   1      35.782  14.484  10.176  0.00  0.00     0.013 C 
HETATM   19  C   UNK N   1      35.877  14.341   8.656  0.00  0.00     0.026 C 
HETATM   20  C   UNK N   1      34.499  14.168   8.003  0.00  0.00     0.117 C 
HETATM   21  N   UNK N   1      33.506  15.141   8.483  0.00  0.00    -0.408 N 
HETATM   22  C   UNK N   1      33.461  15.392   9.927  0.00  0.00     0.117 C 
HETATM   23  C   UNK N   1      34.850  15.642  10.508  0.00  0.00     0.026 C 
BRANCH  21  24
HETATM   24  C   UNK N   1      33.245  16.316   7.643  0.00  0.00     0.157 C 
BRANCH  24  25
HETATM   25  C   UNK N   1      31.861  16.911   7.736  0.00  0.00    -0.017 A 
HETATM   26  C   UNK N   1      30.795  16.356   7.001  0.00  0.00     0.063 A 
HETATM   27  C   UNK N   1      29.496  16.880   7.156  0.00  0.00     0.056 A 
HETATM   28 Cl   UNK N   1      31.074  14.985   5.926  0.00  0.00    -0.082 Cl
HETATM   29  C   UNK N   1      29.271  17.951   8.023  0.00  0.00     0.026 A 
HETATM   30 Cl   UNK N   1      28.125  16.198   6.296  0.00  0.00    -0.083 Cl
HETATM   31  C   UNK N   1      30.325  18.495   8.753  0.00  0.00     0.002 A 
HETATM   32  C   UNK N   1      31.605  17.963   8.621  0.00  0.00     0.011 A 
ENDBRANCH  24  25
ENDBRANCH  21  24
ENDBRANCH  17  18
ENDBRANCH  16  17
ENDBRANCH   1  16
BRANCH   6  33
HETATM   33  N   UNK N   1      37.084  14.536  14.287  0.00  0.00    -0.384 N 
HETATM   34  H   UNK N   1      38.052  14.432  14.437  0.00  0.00     0.157 HD
HETATM   35  H   UNK N   1      36.758  15.155  13.593  0.00  0.00     0.157 HD
ENDBRANCH   6  33
TORSDOF 6
ENDMDL
MODEL 6
REMARK VINA RESULT:      -7.3      3.689      9.423
REMARK  6 active torsions:
REMARK  status: ('A' for Active; 'I' for Inactive)
REMARK    1  A    between atoms: C_2  and  C_7 
REMARK    2  A    between atoms: C_7  and  N_21 
REMARK    3  A    between atoms: O_11  and  C_12 
REMARK    4  A    between atoms: O_11  and  C_24 
REMARK    5  A    between atoms: C_17  and  N_26 
REMARK       I    between atoms: C_18  and  N_29 
REMARK    6  A    between atoms: C_22  and  C_24 
ROOT
HETATM    1  C   UNK N   1      32.214  17.190   7.681  0.00  0.00     0.085 A 
HETATM    2  C   UNK N   1      31.416  17.567   8.766  0.00  0.00     0.038 A 
HETATM    3  C   UNK N   1      30.058  17.818   8.611  0.00  0.00     0.005 A 
HETATM    4  C   UNK N   1      29.464  17.675   7.363  0.00  0.00     0.031 A 
HETATM    5  C   UNK N   1      30.232  17.330   6.252  0.00  0.00     0.066 A 
HETATM    6  C   UNK N   1      32.343  16.854   5.165  0.00  0.00     0.130 A 
HETATM    7  C   UNK N   1      30.322  16.902   3.932  0.00  0.00     0.677 A 
HETATM    8  C   UNK N   1      31.631  17.112   6.371  0.00  0.00     0.069 A 
HETATM    9  N   UNK N   1      31.665  16.754   3.992  0.00  0.00    -0.176 N 
ATOM     10  HN  UNK N   1      32.182  16.562   3.135  1.00  0.00     0.186 HD
HETATM   11  N   UNK N   1      29.656  16.758   2.699  0.00  0.00    -0.234 N 
HETATM   12  N   UNK N   1      29.619  17.209   5.047  0.00  0.00    -0.191 N 
ATOM     13  HN  UNK N   1      28.612  17.353   4.979  1.00  0.00     0.184 HD
HETATM   14  H   UNK N   1      28.674  16.802   2.663  0.00  0.00     0.174 HD
HETATM   15  H   UNK N   1      30.174  16.612   1.874  0.00  0.00     0.174 HD
ENDROOT
BRANCH   1  16
HETATM   16  O   UNK N   1      33.497  16.880   7.969  0.00  0.00    -0.350 OA
BRANCH  16  17
HETATM   17  C   UNK N   1      33.944  15.608   8.269  0.00  0.00     0.180 C 
BRANCH  17  18
HETATM   18  C   UNK N   1      35.249  15.659   9.068  0.00  0.00     0.013 C 
HETATM   19  C   UNK N   1      35.005  15.942  10.551  0.00  0.00     0.026 C 
HETATM   20  C   UNK N   1      34.336  14.759  11.264  0.00  0.00     0.117 C 
HETATM   21  N   UNK N   1      34.976  13.469  10.966  0.00  0.00    -0.408 N 
HETATM   22  C   UNK N   1      35.331  13.206   9.568  0.00  0.00     0.117 C 
HETATM   23  C   UNK N   1      36.069  14.383   8.935  0.00  0.00     0.026 C 
BRANCH  21  24
HETATM   24  C   UNK N   1      35.921  12.935  11.954  0.00  0.00     0.157 C 
BRANCH  24  25
HETATM   25  C   UNK N   1      35.316  12.285  13.175  0.00  0.00    -0.017 A 
HETATM   26  C   UNK N   1      35.527  12.836  14.455  0.00  0.00     0.063 A 
HETATM   27  C   UNK N   1      34.896  12.257  15.575  0.00  0.00     0.056 A 
HETATM   28 Cl   UNK N   1      36.539  14.268  14.652  0.00  0.00    -0.082 Cl
HETATM   29  C   UNK N   1      34.077  11.137  15.416  0.00  0.00     0.026 A 
HETATM   30 Cl   UNK N   1      35.091  12.929  17.185  0.00  0.00    -0.083 Cl
HETATM   31  C   UNK N   1      33.865  10.597  14.150  0.00  0.00     0.002 A 
HETATM   32  C   UNK N   1      34.468  11.182  13.038  0.00  0.00     0.011 A 
ENDBRANCH  24  25
ENDBRANCH  21  24
ENDBRANCH  17  18
ENDBRANCH  16  17
ENDBRANCH   1  16
BRANCH   6  33
HETATM   33  N   UNK N   1      33.746  16.774   5.119  0.00  0.00    -0.384 N 
HETATM   34  H   UNK N   1      34.256  17.391   4.546  0.00  0.00     0.157 HD
HETATM   35  H   UNK N   1      34.220  16.100   5.660  0.00  0.00     0.157 HD
ENDBRANCH   6  33
TORSDOF 6
ENDMDL
MODEL 7
REMARK VINA RESULT:      -7.3     10.087     13.762
REMARK  6 active torsions:
REMARK  status: ('A' for Active; 'I' for Inactive)
REMARK    1  A    between atoms: C_2  and  C_7 
REMARK    2  A    between atoms: C_7  and  N_21 
REMARK    3  A    between atoms: O_11  and  C_12 
REMARK    4  A    between atoms: O_11  and  C_24 
REMARK    5  A    between atoms: C_17  and  N_26 
REMARK       I    between atoms: C_18  and  N_29 
REMARK    6  A    between atoms: C_22  and  C_24 
ROOT
HETATM    1  C   UNK N   1      24.307  18.628   4.374  0.00  0.00     0.085 A 
HETATM    2  C   UNK N   1      23.793  19.700   3.636  0.00  0.00     0.038 A 
HETATM    3  C   UNK N   1      24.630  20.580   2.961  0.00  0.00     0.005 A 
HETATM    4  C   UNK N   1      26.006  20.391   2.995  0.00  0.00     0.031 A 
HETATM    5  C   UNK N   1      26.558  19.352   3.744  0.00  0.00     0.066 A 
HETATM    6  C   UNK N   1      26.389  17.494   5.286  0.00  0.00     0.130 A 
HETATM    7  C   UNK N   1      28.495  18.230   4.492  0.00  0.00     0.677 A 
HETATM    8  C   UNK N   1      25.729  18.465   4.480  0.00  0.00     0.069 A 
HETATM    9  N   UNK N   1      27.745  17.408   5.261  0.00  0.00    -0.176 N 
ATOM     10  HN  UNK N   1      28.209  16.705   5.835  1.00  0.00     0.186 HD
HETATM   11  N   UNK N   1      29.896  18.084   4.472  0.00  0.00    -0.234 N 
HETATM   12  N   UNK N   1      27.907  19.205   3.761  0.00  0.00    -0.191 N 
ATOM     13  HN  UNK N   1      28.489  19.840   3.214  1.00  0.00     0.184 HD
HETATM   14  H   UNK N   1      30.439  18.638   3.866  0.00  0.00     0.174 HD
HETATM   15  H   UNK N   1      30.331  17.428   5.062  0.00  0.00     0.174 HD
ENDROOT
BRANCH   1  16
HETATM   16  O   UNK N   1      23.395  17.785   4.906  0.00  0.00    -0.350 OA
BRANCH  16  17
HETATM   17  C   UNK N   1      22.256  17.355   4.255  0.00  0.00     0.180 C 
BRANCH  17  18
HETATM   18  C   UNK N   1      21.131  17.065   5.252  0.00  0.00     0.013 C 
HETATM   19  C   UNK N   1      20.173  15.988   4.740  0.00  0.00     0.026 C 
HETATM   20  C   UNK N   1      20.826  14.599   4.709  0.00  0.00     0.117 C 
HETATM   21  N   UNK N   1      21.540  14.268   5.951  0.00  0.00    -0.408 N 
HETATM   22  C   UNK N   1      22.381  15.316   6.537  0.00  0.00     0.117 C 
HETATM   23  C   UNK N   1      21.652  16.655   6.623  0.00  0.00     0.026 C 
BRANCH  21  24
HETATM   24  C   UNK N   1      20.849  13.414   6.925  0.00  0.00     0.157 C 
BRANCH  24  25
HETATM   25  C   UNK N   1      21.726  12.668   7.901  0.00  0.00    -0.017 A 
HETATM   26  C   UNK N   1      21.532  12.815   9.289  0.00  0.00     0.063 A 
HETATM   27  C   UNK N   1      22.314  12.056  10.185  0.00  0.00     0.056 A 
HETATM   28 Cl   UNK N   1      20.292  13.908   9.905  0.00  0.00    -0.082 Cl
HETATM   29  C   UNK N   1      23.280  11.174   9.697  0.00  0.00     0.026 A 
HETATM   30 Cl   UNK N   1      22.084  12.169  11.922  0.00  0.00    -0.083 Cl
HETATM   31  C   UNK N   1      23.466  11.027   8.325  0.00  0.00     0.002 A 
HETATM   32  C   UNK N   1      22.679  11.757   7.437  0.00  0.00     0.011 A 
ENDBRANCH  24  25
ENDBRANCH  21  24
ENDBRANCH  17  18
ENDBRANCH  16  17
ENDBRANCH   1  16
BRANCH   6  33
HETATM   33  N   UNK N   1      25.697  16.658   6.181  0.00  0.00    -0.384 N 
HETATM   34  H   UNK N   1      25.422  15.756   5.900  0.00  0.00     0.157 HD
HETATM   35  H   UNK N   1      25.487  16.976   7.090  0.00  0.00     0.157 HD
ENDBRANCH   6  33
TORSDOF 6
ENDMDL
MODEL 8
REMARK VINA RESULT:      -7.2      6.156      9.717
REMARK  6 active torsions:
REMARK  status: ('A' for Active; 'I' for Inactive)
REMARK    1  A    between atoms: C_2  and  C_7 
REMARK    2  A    between atoms: C_7  and  N_21 
REMARK    3  A    between atoms: O_11  and  C_12 
REMARK    4  A    between atoms: O_11  and  C_24 
REMARK    5  A    between atoms: C_17  and  N_26 
REMARK       I    between atoms: C_18  and  N_29 
REMARK    6  A    between atoms: C_22  and  C_24 
ROOT
HETATM    1  C   UNK N   1      30.570  17.157   5.688  0.00  0.00     0.085 A 
HETATM    2  C   UNK N   1      31.016  17.318   4.372  0.00  0.00     0.038 A 
HETATM    3  C   UNK N   1      32.362  17.506   4.083  0.00  0.00     0.005 A 
HETATM    4  C   UNK N   1      33.297  17.515   5.110  0.00  0.00     0.031 A 
HETATM    5  C   UNK N   1      32.889  17.388   6.437  0.00  0.00     0.066 A 
HETATM    6  C   UNK N   1      31.189  17.210   8.152  0.00  0.00     0.130 A 
HETATM    7  C   UNK N   1      33.485  17.318   8.720  0.00  0.00     0.677 A 
HETATM    8  C   UNK N   1      31.515  17.241   6.766  0.00  0.00     0.069 A 
HETATM    9  N   UNK N   1      32.184  17.246   9.078  0.00  0.00    -0.176 N 
ATOM     10  HN  UNK N   1      31.941  17.217  10.068  1.00  0.00     0.186 HD
HETATM   11  N   UNK N   1      34.485  17.320   9.713  0.00  0.00    -0.234 N 
HETATM   12  N   UNK N   1      33.830  17.411   7.415  0.00  0.00    -0.191 N 
ATOM     13  HN  UNK N   1      34.815  17.502   7.163  1.00  0.00     0.184 HD
HETATM   14  H   UNK N   1      35.435  17.309   9.454  0.00  0.00     0.174 HD
HETATM   15  H   UNK N   1      34.234  17.332  10.665  0.00  0.00     0.174 HD
ENDROOT
BRANCH   1  16
HETATM   16  O   UNK N   1      29.256  16.887   5.839  0.00  0.00    -0.350 OA
BRANCH  16  17
HETATM   17  C   UNK N   1      28.690  15.640   5.664  0.00  0.00     0.180 C 
BRANCH  17  18
HETATM   18  C   UNK N   1      27.301  15.751   5.031  0.00  0.00     0.013 C 
HETATM   19  C   UNK N   1      26.885  14.458   4.327  0.00  0.00     0.026 C 
HETATM   20  C   UNK N   1      26.603  13.322   5.321  0.00  0.00     0.117 C 
HETATM   21  N   UNK N   1      25.744  13.734   6.441  0.00  0.00    -0.408 N 
HETATM   22  C   UNK N   1      26.040  15.025   7.070  0.00  0.00     0.117 C 
HETATM   23  C   UNK N   1      26.226  16.135   6.039  0.00  0.00     0.026 C 
BRANCH  21  24
HETATM   24  C   UNK N   1      24.317  13.399   6.361  0.00  0.00     0.157 C 
BRANCH  24  25
HETATM   25  C   UNK N   1      23.584  13.277   7.675  0.00  0.00    -0.017 A 
HETATM   26  C   UNK N   1      22.457  14.080   7.940  0.00  0.00     0.063 A 
HETATM   27  C   UNK N   1      21.743  13.903   9.143  0.00  0.00     0.056 A 
HETATM   28 Cl   UNK N   1      21.914  15.270   6.756  0.00  0.00    -0.082 Cl
HETATM   29  C   UNK N   1      22.159  12.946  10.070  0.00  0.00     0.026 A 
HETATM   30 Cl   UNK N   1      20.306  14.847   9.502  0.00  0.00    -0.083 Cl
HETATM   31  C   UNK N   1      23.271  12.150   9.804  0.00  0.00     0.002 A 
HETATM   32  C   UNK N   1      23.963  12.305   8.606  0.00  0.00     0.011 A 
ENDBRANCH  24  25
ENDBRANCH  21  24
ENDBRANCH  17  18
ENDBRANCH  16  17
ENDBRANCH   1  16
BRANCH   6  33
HETATM   33  N   UNK N   1      29.862  17.225   8.616  0.00  0.00    -0.384 N 
HETATM   34  H   UNK N   1      29.255  17.952   8.350  0.00  0.00     0.157 HD
HETATM   35  H   UNK N   1      29.540  16.507   9.209  0.00  0.00     0.157 HD
ENDBRANCH   6  33
TORSDOF 6
ENDMDL
MODEL 9
REMARK VINA RESULT:      -7.1      3.895      9.608
REMARK  6 active torsions:
REMARK  status: ('A' for Active; 'I' for Inactive)
REMARK    1  A    between atoms: C_2  and  C_7 
REMARK    2  A    between atoms: C_7  and  N_21 
REMARK    3  A    between atoms: O_11  and  C_12 
REMARK    4  A    between atoms: O_11  and  C_24 
REMARK    5  A    between atoms: C_17  and  N_26 
REMARK       I    between atoms: C_18  and  N_29 
REMARK    6  A    between atoms: C_22  and  C_24 
ROOT
HETATM    1  C   UNK N   1      34.372  15.885   5.937  0.00  0.00     0.085 A 
HETATM    2  C   UNK N   1      33.746  17.132   6.050  0.00  0.00     0.038 A 
HETATM    3  C   UNK N   1      33.025  17.676   4.995  0.00  0.00     0.005 A 
HETATM    4  C   UNK N   1      32.895  16.969   3.806  0.00  0.00     0.031 A 
HETATM    5  C   UNK N   1      33.529  15.738   3.644  0.00  0.00     0.066 A 
HETATM    6  C   UNK N   1      34.992  13.962   4.397  0.00  0.00     0.130 A 
HETATM    7  C   UNK N   1      34.003  13.896   2.247  0.00  0.00     0.677 A 
HETATM    8  C   UNK N   1      34.311  15.178   4.689  0.00  0.00     0.069 A 
HETATM    9  N   UNK N   1      34.811  13.363   3.191  0.00  0.00    -0.176 N 
ATOM     10  HN  UNK N   1      35.297  12.489   2.993  1.00  0.00     0.186 HD
HETATM   11  N   UNK N   1      33.820  13.224   1.022  0.00  0.00    -0.234 N 
HETATM   12  N   UNK N   1      33.389  15.081   2.465  0.00  0.00    -0.191 N 
ATOM     13  HN  UNK N   1      32.811  15.488   1.729  1.00  0.00     0.184 HD
HETATM   14  H   UNK N   1      33.184  13.576   0.359  0.00  0.00     0.174 HD
HETATM   15  H   UNK N   1      34.327  12.402   0.831  0.00  0.00     0.174 HD
ENDROOT
BRANCH   1  16
HETATM   16  O   UNK N   1      34.963  15.416   7.057  0.00  0.00    -0.350 OA
BRANCH  16  17
HETATM   17  C   UNK N   1      34.448  15.559   8.331  0.00  0.00     0.180 C 
BRANCH  17  18
HETATM   18  C   UNK N   1      35.568  15.686   9.366  0.00  0.00     0.013 C 
HETATM   19  C   UNK N   1      35.027  15.749  10.795  0.00  0.00     0.026 C 
HETATM   20  C   UNK N   1      34.434  14.409  11.250  0.00  0.00     0.117 C 
HETATM   21  N   UNK N   1      35.306  13.262  10.957  0.00  0.00    -0.408 N 
HETATM   22  C   UNK N   1      35.938  13.223   9.635  0.00  0.00     0.117 C 
HETATM   23  C   UNK N   1      36.586  14.556   9.270  0.00  0.00     0.026 C 
BRANCH  21  24
HETATM   24  C   UNK N   1      36.134  12.742  12.053  0.00  0.00     0.157 C 
BRANCH  24  25
HETATM   25  C   UNK N   1      35.393  12.193  13.248  0.00  0.00    -0.017 A 
HETATM   26  C   UNK N   1      35.533  12.799  14.513  0.00  0.00     0.063 A 
HETATM   27  C   UNK N   1      34.779  12.317  15.602  0.00  0.00     0.056 A 
HETATM   28 Cl   UNK N   1      36.611  14.179  14.725  0.00  0.00    -0.082 Cl
HETATM   29  C   UNK N   1      33.909  11.238  15.430  0.00  0.00     0.026 A 
HETATM   30 Cl   UNK N   1      34.883  13.063  17.189  0.00  0.00    -0.083 Cl
HETATM   31  C   UNK N   1      33.769  10.644  14.178  0.00  0.00     0.002 A 
HETATM   32  C   UNK N   1      34.494  11.134  13.094  0.00  0.00     0.011 A 
ENDBRANCH  24  25
ENDBRANCH  21  24
ENDBRANCH  17  18
ENDBRANCH  16  17
ENDBRANCH   1  16
BRANCH   6  33
HETATM   33  N   UNK N   1      35.919  13.384   5.283  0.00  0.00    -0.384 N 
HETATM   34  H   UNK N   1      35.853  12.428   5.510  0.00  0.00     0.157 HD
HETATM   35  H   UNK N   1      36.634  13.935   5.677  0.00  0.00     0.157 HD
ENDBRANCH   6  33
TORSDOF 6
ENDMDL
