MODEL 1
REMARK VINA RESULT:      -7.6      0.000      0.000
REMARK  4 active torsions:
REMARK  status: ('A' for Active; 'I' for Inactive)
REMARK    1  A    between atoms: C_1  and  C_3 
REMARK    2  A    between atoms: C_3  and  O_18 
REMARK    3  A    between atoms: C_9  and  O_18 
REMARK    4  A    between atoms: C_13  and  N_22 
REMARK       I    between atoms: C_23  and  N_24 
ROOT
HETATM    1  N   UNK N   1      32.643  17.272   9.114  0.00  0.00    -0.176 N 
ATOM      2  HN  UNK N   1      32.475  17.216  10.119  1.00  0.00     0.186 HD
HETATM    3  C   UNK N   1      30.780  17.172   5.907  0.00  0.00     0.086 A 
HETATM    4  C   UNK N   1      32.410  17.409   4.120  0.00  0.00     0.005 A 
HETATM    5  C   UNK N   1      33.438  17.498   5.061  0.00  0.00     0.031 A 
HETATM    6  C   UNK N   1      31.820  17.250   6.864  0.00  0.00     0.069 A 
HETATM    7  C   UNK N   1      31.597  17.174   8.261  0.00  0.00     0.130 A 
HETATM    8  C   UNK N   1      31.087  17.252   4.539  0.00  0.00     0.038 A 
HETATM    9  C   UNK N   1      33.153  17.419   6.426  0.00  0.00     0.066 A 
HETATM   10  N   UNK N   1      34.160  17.511   7.331  0.00  0.00    -0.191 N 
ATOM     11  HN  UNK N   1      35.117  17.636   7.004  1.00  0.00     0.184 HD
HETATM   12  C   UNK N   1      33.913  17.442   8.665  0.00  0.00     0.677 A 
HETATM   13  N   UNK N   1      34.973  17.545   9.584  0.00  0.00    -0.234 N 
HETATM   14  H   UNK N   1      35.905  17.473   9.276  0.00  0.00     0.174 HD
HETATM   15  H   UNK N   1      34.781  17.690  10.539  0.00  0.00     0.174 HD
ENDROOT
BRANCH   3  16
HETATM   16  O   UNK N   1      29.499  17.064   6.332  0.00  0.00    -0.341 OA
BRANCH  16  17
HETATM   17  C   UNK N   1      28.339  17.005   5.584  0.00  0.00     0.158 C 
HETATM   18  C   UNK N   1      27.335  16.075   6.250  0.00  0.00     0.045 C 
BRANCH  17  19
HETATM   19  C   UNK N   1      27.782  18.407   5.479  0.00  0.00    -0.028 A 
HETATM   20  C   UNK N   1      27.193  18.864   4.292  0.00  0.00     0.033 A 
HETATM   21  C   UNK N   1      26.706  20.176   4.210  0.00  0.00     0.034 A 
HETATM   22  C   UNK N   1      26.814  21.037   5.307  0.00  0.00     0.024 A 
HETATM   23 Cl   UNK N   1      25.961  20.749   2.736  0.00  0.00    -0.084 Cl
HETATM   24  C   UNK N   1      27.401  20.592   6.489  0.00  0.00     0.002 A 
HETATM   25  C   UNK N   1      27.882  19.287   6.574  0.00  0.00     0.010 A 
ENDBRANCH  17  19
ENDBRANCH  16  17
ENDBRANCH   3  16
BRANCH   7  26
HETATM   26  N   UNK N   1      30.304  16.992   8.794  0.00  0.00    -0.384 N 
HETATM   27  H   UNK N   1      29.784  17.762   9.121  0.00  0.00     0.157 HD
HETATM   28  H   UNK N   1      29.916  16.088   8.840  0.00  0.00     0.157 HD
ENDBRANCH   7  26
TORSDOF 4
ENDMDL
MODEL 2
REMARK VINA RESULT:      -6.7      8.619     11.873
REMARK  4 active torsions:
REMARK  status: ('A' for Active; 'I' for Inactive)
REMARK    1  A    between atoms: C_1  and  C_3 
REMARK    2  A    between atoms: C_3  and  O_18 
REMARK    3  A    between atoms: C_9  and  O_18 
REMARK    4  A    between atoms: C_13  and  N_22 
REMARK       I    between atoms: C_23  and  N_24 
ROOT
HETATM    1  N   UNK N   1      35.467  16.114  11.464  0.00  0.00    -0.176 N 
ATOM      2  HN  UNK N   1      35.761  17.017  11.837  1.00  0.00     0.186 HD
HETATM    3  C   UNK N   1      35.623  12.502  12.302  0.00  0.00     0.086 A 
HETATM    4  C   UNK N   1      34.509  11.299  10.508  0.00  0.00     0.005 A 
HETATM    5  C   UNK N   1      34.240  12.504   9.857  0.00  0.00     0.031 A 
HETATM    6  C   UNK N   1      35.363  13.726  11.640  0.00  0.00     0.069 A 
HETATM    7  C   UNK N   1      35.767  14.985  12.149  0.00  0.00     0.130 A 
HETATM    8  C   UNK N   1      35.192  11.296  11.727  0.00  0.00     0.038 A 
HETATM    9  C   UNK N   1      34.663  13.714  10.413  0.00  0.00     0.066 A 
HETATM   10  N   UNK N   1      34.391  14.880   9.773  0.00  0.00    -0.191 N 
ATOM     11  HN  UNK N   1      33.883  14.861   8.890  1.00  0.00     0.184 HD
HETATM   12  C   UNK N   1      34.786  16.073  10.292  0.00  0.00     0.677 A 
HETATM   13  N   UNK N   1      34.488  17.268   9.613  0.00  0.00    -0.234 N 
HETATM   14  H   UNK N   1      34.173  17.244   8.680  0.00  0.00     0.174 HD
HETATM   15  H   UNK N   1      34.597  18.133  10.072  0.00  0.00     0.174 HD
ENDROOT
BRANCH   3  16
HETATM   16  O   UNK N   1      36.248  12.522  13.503  0.00  0.00    -0.341 OA
BRANCH  16  17
HETATM   17  C   UNK N   1      36.558  11.464  14.336  0.00  0.00     0.158 C 
HETATM   18  C   UNK N   1      38.057  11.198  14.308  0.00  0.00     0.045 C 
BRANCH  17  19
HETATM   19  C   UNK N   1      36.105  11.825  15.733  0.00  0.00    -0.028 A 
HETATM   20  C   UNK N   1      35.965  10.843  16.724  0.00  0.00     0.033 A 
HETATM   21  C   UNK N   1      35.519  11.197  18.005  0.00  0.00     0.034 A 
HETATM   22  C   UNK N   1      35.203  12.527  18.298  0.00  0.00     0.024 A 
HETATM   23 Cl   UNK N   1      35.353   9.979  19.248  0.00  0.00    -0.084 Cl
HETATM   24  C   UNK N   1      35.336  13.508  17.318  0.00  0.00     0.002 A 
HETATM   25  C   UNK N   1      35.782  13.159  16.045  0.00  0.00     0.010 A 
ENDBRANCH  17  19
ENDBRANCH  16  17
ENDBRANCH   3  16
BRANCH   7  26
HETATM   26  N   UNK N   1      36.483  15.098  13.359  0.00  0.00    -0.384 N 
HETATM   27  H   UNK N   1      36.239  15.783  14.024  0.00  0.00     0.157 HD
HETATM   28  H   UNK N   1      37.234  14.487  13.542  0.00  0.00     0.157 HD
ENDBRANCH   7  26
TORSDOF 4
ENDMDL
MODEL 3
REMARK VINA RESULT:      -6.6     10.455     12.854
REMARK  4 active torsions:
REMARK  status: ('A' for Active; 'I' for Inactive)
REMARK    1  A    between atoms: C_1  and  C_3 
REMARK    2  A    between atoms: C_3  and  O_18 
REMARK    3  A    between atoms: C_9  and  O_18 
REMARK    4  A    between atoms: C_13  and  N_22 
REMARK       I    between atoms: C_23  and  N_24 
ROOT
HETATM    1  N   UNK N   1      37.804  13.035  11.945  0.00  0.00    -0.176 N 
ATOM      2  HN  UNK N   1      38.629  13.589  12.175  1.00  0.00     0.186 HD
HETATM    3  C   UNK N   1      35.142  11.063  13.617  0.00  0.00     0.086 A 
HETATM    4  C   UNK N   1      33.700  10.178  11.872  0.00  0.00     0.005 A 
HETATM    5  C   UNK N   1      34.484  10.800  10.899  0.00  0.00     0.031 A 
HETATM    6  C   UNK N   1      35.946  11.686  12.632  0.00  0.00     0.069 A 
HETATM    7  C   UNK N   1      37.093  12.458  12.942  0.00  0.00     0.130 A 
HETATM    8  C   UNK N   1      34.022  10.311  13.225  0.00  0.00     0.038 A 
HETATM    9  C   UNK N   1      35.602  11.550  11.269  0.00  0.00     0.066 A 
HETATM   10  N   UNK N   1      36.354  12.154  10.314  0.00  0.00    -0.191 N 
ATOM     11  HN  UNK N   1      36.095  12.052   9.333  1.00  0.00     0.184 HD
HETATM   12  C   UNK N   1      37.445  12.894  10.643  0.00  0.00     0.677 A 
HETATM   13  N   UNK N   1      38.205  13.515   9.636  0.00  0.00    -0.234 N 
HETATM   14  H   UNK N   1      38.076  13.266   8.692  0.00  0.00     0.174 HD
HETATM   15  H   UNK N   1      38.870  14.201   9.876  0.00  0.00     0.174 HD
ENDROOT
BRANCH   3  16
HETATM   16  O   UNK N   1      35.444  11.240  14.924  0.00  0.00    -0.341 OA
BRANCH  16  17
HETATM   17  C   UNK N   1      35.275  10.364  15.979  0.00  0.00     0.158 C 
HETATM   18  C   UNK N   1      36.412   9.353  16.006  0.00  0.00     0.045 C 
BRANCH  17  19
HETATM   19  C   UNK N   1      35.247  11.174  17.256  0.00  0.00    -0.028 A 
HETATM   20  C   UNK N   1      35.223  12.575  17.223  0.00  0.00     0.033 A 
HETATM   21  C   UNK N   1      35.223  13.305  18.420  0.00  0.00     0.034 A 
HETATM   22  C   UNK N   1      35.257  12.642  19.650  0.00  0.00     0.024 A 
HETATM   23 Cl   UNK N   1      35.182  15.053  18.386  0.00  0.00    -0.084 Cl
HETATM   24  C   UNK N   1      35.286  11.250  19.692  0.00  0.00     0.002 A 
HETATM   25  C   UNK N   1      35.282  10.521  18.503  0.00  0.00     0.010 A 
ENDBRANCH  17  19
ENDBRANCH  16  17
ENDBRANCH   3  16
BRANCH   7  26
HETATM   26  N   UNK N   1      37.525  12.639  14.273  0.00  0.00    -0.384 N 
HETATM   27  H   UNK N   1      37.746  11.863  14.838  0.00  0.00     0.157 HD
HETATM   28  H   UNK N   1      37.607  13.549  14.640  0.00  0.00     0.157 HD
ENDBRANCH   7  26
TORSDOF 4
ENDMDL
MODEL 4
REMARK VINA RESULT:      -6.6     12.389     15.209
REMARK  4 active torsions:
REMARK  status: ('A' for Active; 'I' for Inactive)
REMARK    1  A    between atoms: C_1  and  C_3 
REMARK    2  A    between atoms: C_3  and  O_18 
REMARK    3  A    between atoms: C_9  and  O_18 
REMARK    4  A    between atoms: C_13  and  N_22 
REMARK       I    between atoms: C_23  and  N_24 
ROOT
HETATM    1  N   UNK N   1      35.909  13.753  15.901  0.00  0.00    -0.176 N 
ATOM      2  HN  UNK N   1      35.476  14.614  16.235  1.00  0.00     0.186 HD
HETATM    3  C   UNK N   1      36.187  10.167  16.814  0.00  0.00     0.086 A 
HETATM    4  C   UNK N   1      37.581   9.102  15.133  0.00  0.00     0.005 A 
HETATM    5  C   UNK N   1      37.719  10.321  14.466  0.00  0.00     0.031 A 
HETATM    6  C   UNK N   1      36.333  11.407  16.148  0.00  0.00     0.069 A 
HETATM    7  C   UNK N   1      35.735  12.608  16.603  0.00  0.00     0.130 A 
HETATM    8  C   UNK N   1      36.816   9.022  16.299  0.00  0.00     0.038 A 
HETATM    9  C   UNK N   1      37.102  11.471  14.964  0.00  0.00     0.066 A 
HETATM   10  N   UNK N   1      37.239  12.648  14.304  0.00  0.00    -0.191 N 
ATOM     11  HN  UNK N   1      37.794  12.683  13.450  1.00  0.00     0.184 HD
HETATM   12  C   UNK N   1      36.647  13.783  14.763  0.00  0.00     0.677 A 
HETATM   13  N   UNK N   1      36.800  14.991  14.058  0.00  0.00    -0.234 N 
HETATM   14  H   UNK N   1      37.481  15.070  13.351  0.00  0.00     0.174 HD
HETATM   15  H   UNK N   1      36.223  15.760  14.273  0.00  0.00     0.174 HD
ENDROOT
BRANCH   3  16
HETATM   16  O   UNK N   1      35.405  10.100  17.918  0.00  0.00    -0.341 OA
BRANCH  16  17
HETATM   17  C   UNK N   1      35.647   9.450  19.113  0.00  0.00     0.158 C 
HETATM   18  C   UNK N   1      36.775  10.143  19.865  0.00  0.00     0.045 C 
BRANCH  17  19
HETATM   19  C   UNK N   1      34.370   9.474  19.922  0.00  0.00    -0.028 A 
HETATM   20  C   UNK N   1      33.258   8.708  19.542  0.00  0.00     0.033 A 
HETATM   21  C   UNK N   1      32.076   8.765  20.293  0.00  0.00     0.034 A 
HETATM   22  C   UNK N   1      31.996   9.592  21.418  0.00  0.00     0.024 A 
HETATM   23 Cl   UNK N   1      30.691   7.805  19.830  0.00  0.00    -0.084 Cl
HETATM   24  C   UNK N   1      33.094  10.359  21.800  0.00  0.00     0.002 A 
HETATM   25  C   UNK N   1      34.272  10.300  21.057  0.00  0.00     0.010 A 
ENDBRANCH  17  19
ENDBRANCH  16  17
ENDBRANCH   3  16
BRANCH   7  26
HETATM   26  N   UNK N   1      34.961  12.649  17.781  0.00  0.00    -0.384 N 
HETATM   27  H   UNK N   1      35.146  12.028  18.524  0.00  0.00     0.157 HD
HETATM   28  H   UNK N   1      34.229  13.302  17.863  0.00  0.00     0.157 HD
ENDBRANCH   7  26
TORSDOF 4
ENDMDL
MODEL 5
REMARK VINA RESULT:      -6.6      8.802     11.298
REMARK  4 active torsions:
REMARK  status: ('A' for Active; 'I' for Inactive)
REMARK    1  A    between atoms: C_1  and  C_3 
REMARK    2  A    between atoms: C_3  and  O_18 
REMARK    3  A    between atoms: C_9  and  O_18 
REMARK    4  A    between atoms: C_13  and  N_22 
REMARK       I    between atoms: C_23  and  N_24 
ROOT
HETATM    1  N   UNK N   1      20.985  19.976   2.537  0.00  0.00    -0.176 N 
ATOM      2  HN  UNK N   1      21.200  20.889   2.937  1.00  0.00     0.186 HD
HETATM    3  C   UNK N   1      20.875  16.396   3.509  0.00  0.00     0.086 A 
HETATM    4  C   UNK N   1      20.186  15.139   1.547  0.00  0.00     0.005 A 
HETATM    5  C   UNK N   1      20.098  16.322   0.811  0.00  0.00     0.031 A 
HETATM    6  C   UNK N   1      20.799  17.597   2.764  0.00  0.00     0.069 A 
HETATM    7  C   UNK N   1      21.096  18.870   3.310  0.00  0.00     0.130 A 
HETATM    8  C   UNK N   1      20.567  15.173   2.890  0.00  0.00     0.038 A 
HETATM    9  C   UNK N   1      20.402  17.547   1.409  0.00  0.00     0.066 A 
HETATM   10  N   UNK N   1      20.308  18.691   0.685  0.00  0.00    -0.191 N 
ATOM     11  HN  UNK N   1      20.018  18.644  -0.291  1.00  0.00     0.184 HD
HETATM   12  C   UNK N   1      20.593  19.898   1.240  0.00  0.00     0.677 A 
HETATM   13  N   UNK N   1      20.484  21.071   0.470  0.00  0.00    -0.234 N 
HETATM   14  H   UNK N   1      20.392  21.015  -0.508  0.00  0.00     0.174 HD
HETATM   15  H   UNK N   1      20.499  21.951   0.913  0.00  0.00     0.174 HD
ENDROOT
BRANCH   3  16
HETATM   16  O   UNK N   1      21.205  16.454   4.821  0.00  0.00    -0.341 OA
BRANCH  16  17
HETATM   17  C   UNK N   1      21.965  15.571   5.563  0.00  0.00     0.158 C 
HETATM   18  C   UNK N   1      23.364  16.135   5.772  0.00  0.00     0.045 C 
BRANCH  17  19
HETATM   19  C   UNK N   1      21.270  15.359   6.890  0.00  0.00    -0.028 A 
HETATM   20  C   UNK N   1      20.333  16.285   7.370  0.00  0.00     0.033 A 
HETATM   21  C   UNK N   1      19.720  16.081   8.614  0.00  0.00     0.034 A 
HETATM   22  C   UNK N   1      20.045  14.960   9.384  0.00  0.00     0.024 A 
HETATM   23 Cl   UNK N   1      18.543  17.225   9.215  0.00  0.00    -0.084 Cl
HETATM   24  C   UNK N   1      20.978  14.038   8.916  0.00  0.00     0.002 A 
HETATM   25  C   UNK N   1      21.586  14.237   7.678  0.00  0.00     0.010 A 
ENDBRANCH  17  19
ENDBRANCH  16  17
ENDBRANCH   3  16
BRANCH   7  26
HETATM   26  N   UNK N   1      21.514  19.020   4.649  0.00  0.00    -0.384 N 
HETATM   27  H   UNK N   1      22.192  19.693   4.889  0.00  0.00     0.157 HD
HETATM   28  H   UNK N   1      21.125  18.449   5.350  0.00  0.00     0.157 HD
ENDBRANCH   7  26
TORSDOF 4
ENDMDL
MODEL 6
REMARK VINA RESULT:      -6.5      3.908      7.278
REMARK  4 active torsions:
REMARK  status: ('A' for Active; 'I' for Inactive)
REMARK    1  A    between atoms: C_1  and  C_3 
REMARK    2  A    between atoms: C_3  and  O_18 
REMARK    3  A    between atoms: C_9  and  O_18 
REMARK    4  A    between atoms: C_13  and  N_22 
REMARK       I    between atoms: C_23  and  N_24 
ROOT
HETATM    1  N   UNK N   1      29.296  17.459   7.824  0.00  0.00    -0.176 N 
ATOM      2  HN  UNK N   1      28.801  17.468   8.716  1.00  0.00     0.186 HD
HETATM    3  C   UNK N   1      32.663  16.732   6.445  0.00  0.00     0.086 A 
HETATM    4  C   UNK N   1      32.558  17.121   4.048  0.00  0.00     0.005 A 
HETATM    5  C   UNK N   1      31.211  17.472   4.157  0.00  0.00     0.031 A 
HETATM    6  C   UNK N   1      31.301  17.098   6.561  0.00  0.00     0.069 A 
HETATM    7  C   UNK N   1      30.604  17.112   7.795  0.00  0.00     0.130 A 
HETATM    8  C   UNK N   1      33.281  16.748   5.184  0.00  0.00     0.038 A 
HETATM    9  C   UNK N   1      30.579  17.463   5.403  0.00  0.00     0.066 A 
HETATM   10  N   UNK N   1      29.268  17.801   5.495  0.00  0.00    -0.191 N 
ATOM     11  HN  UNK N   1      28.757  18.060   4.653  1.00  0.00     0.184 HD
HETATM   12  C   UNK N   1      28.626  17.798   6.693  0.00  0.00     0.677 A 
HETATM   13  N   UNK N   1      27.265  18.147   6.763  0.00  0.00    -0.234 N 
HETATM   14  H   UNK N   1      26.823  18.577   5.995  0.00  0.00     0.174 HD
HETATM   15  H   UNK N   1      26.753  17.961   7.583  0.00  0.00     0.174 HD
ENDROOT
BRANCH   3  16
HETATM   16  O   UNK N   1      33.336  16.332   7.549  0.00  0.00    -0.341 OA
BRANCH  16  17
HETATM   17  C   UNK N   1      34.567  16.752   8.014  0.00  0.00     0.158 C 
HETATM   18  C   UNK N   1      34.538  18.250   8.288  0.00  0.00     0.045 C 
BRANCH  17  19
HETATM   19  C   UNK N   1      34.874  15.982   9.279  0.00  0.00    -0.028 A 
HETATM   20  C   UNK N   1      34.683  14.595   9.346  0.00  0.00     0.033 A 
HETATM   21  C   UNK N   1      34.950  13.906  10.537  0.00  0.00     0.034 A 
HETATM   22  C   UNK N   1      35.399  14.598  11.665  0.00  0.00     0.024 A 
HETATM   23 Cl   UNK N   1      34.724  12.175  10.623  0.00  0.00    -0.084 Cl
HETATM   24  C   UNK N   1      35.588  15.977  11.609  0.00  0.00     0.002 A 
HETATM   25  C   UNK N   1      35.326  16.664  10.425  0.00  0.00     0.010 A 
ENDBRANCH  17  19
ENDBRANCH  16  17
ENDBRANCH   3  16
BRANCH   7  26
HETATM   26  N   UNK N   1      31.241  16.777   9.008  0.00  0.00    -0.384 N 
HETATM   27  H   UNK N   1      30.717  16.447   9.774  0.00  0.00     0.157 HD
HETATM   28  H   UNK N   1      32.218  16.873   9.090  0.00  0.00     0.157 HD
ENDBRANCH   7  26
TORSDOF 4
ENDMDL
MODEL 7
REMARK VINA RESULT:      -6.3     11.419     13.088
REMARK  4 active torsions:
REMARK  status: ('A' for Active; 'I' for Inactive)
REMARK    1  A    between atoms: C_1  and  C_3 
REMARK    2  A    between atoms: C_3  and  O_18 
REMARK    3  A    between atoms: C_9  and  O_18 
REMARK    4  A    between atoms: C_13  and  N_22 
REMARK       I    between atoms: C_23  and  N_24 
ROOT
HETATM    1  N   UNK N   1      31.585  22.486  -2.879  0.00  0.00    -0.176 N 
ATOM      2  HN  UNK N   1      31.930  22.939  -2.032  1.00  0.00     0.186 HD
HETATM    3  C   UNK N   1      29.024  22.966  -5.521  0.00  0.00     0.086 A 
HETATM    4  C   UNK N   1      29.208  21.087  -7.051  0.00  0.00     0.005 A 
HETATM    5  C   UNK N   1      30.255  20.562  -6.291  0.00  0.00     0.031 A 
HETATM    6  C   UNK N   1      30.077  22.431  -4.741  0.00  0.00     0.069 A 
HETATM    7  C   UNK N   1      30.563  23.052  -3.564  0.00  0.00     0.130 A 
HETATM    8  C   UNK N   1      28.598  22.285  -6.673  0.00  0.00     0.038 A 
HETATM    9  C   UNK N   1      30.691  21.224  -5.141  0.00  0.00     0.066 A 
HETATM   10  N   UNK N   1      31.713  20.706  -4.413  0.00  0.00    -0.191 N 
ATOM     11  HN  UNK N   1      32.151  19.836  -4.712  1.00  0.00     0.184 HD
HETATM   12  C   UNK N   1      32.162  21.329  -3.292  0.00  0.00     0.677 A 
HETATM   13  N   UNK N   1      33.226  20.776  -2.557  0.00  0.00    -0.234 N 
HETATM   14  H   UNK N   1      33.520  19.852  -2.729  0.00  0.00     0.174 HD
HETATM   15  H   UNK N   1      33.677  21.314  -1.866  0.00  0.00     0.174 HD
ENDROOT
BRANCH   3  16
HETATM   16  O   UNK N   1      28.473  24.150  -5.163  0.00  0.00    -0.341 OA
BRANCH  16  17
HETATM   17  C   UNK N   1      27.197  24.621  -5.405  0.00  0.00     0.158 C 
HETATM   18  C   UNK N   1      26.296  24.322  -4.215  0.00  0.00     0.045 C 
BRANCH  17  19
HETATM   19  C   UNK N   1      27.289  26.112  -5.645  0.00  0.00    -0.028 A 
HETATM   20  C   UNK N   1      26.778  27.027  -4.714  0.00  0.00     0.033 A 
HETATM   21  C   UNK N   1      26.852  28.403  -4.970  0.00  0.00     0.034 A 
HETATM   22  C   UNK N   1      27.427  28.869  -6.157  0.00  0.00     0.024 A 
HETATM   23 Cl   UNK N   1      26.226  29.550  -3.809  0.00  0.00    -0.084 Cl
HETATM   24  C   UNK N   1      27.934  27.966  -7.088  0.00  0.00     0.002 A 
HETATM   25  C   UNK N   1      27.865  26.598  -6.834  0.00  0.00     0.010 A 
ENDBRANCH  17  19
ENDBRANCH  16  17
ENDBRANCH   3  16
BRANCH   7  26
HETATM   26  N   UNK N   1      30.005  24.253  -3.076  0.00  0.00    -0.384 N 
HETATM   27  H   UNK N   1      30.453  25.115  -3.237  0.00  0.00     0.157 HD
HETATM   28  H   UNK N   1      29.161  24.229  -2.570  0.00  0.00     0.157 HD
ENDBRANCH   7  26
TORSDOF 4
ENDMDL
MODEL 8
REMARK VINA RESULT:      -6.3      4.076      6.045
REMARK  4 active torsions:
REMARK  status: ('A' for Active; 'I' for Inactive)
REMARK    1  A    between atoms: C_1  and  C_3 
REMARK    2  A    between atoms: C_3  and  O_18 
REMARK    3  A    between atoms: C_9  and  O_18 
REMARK    4  A    between atoms: C_13  and  N_22 
REMARK       I    between atoms: C_23  and  N_24 
ROOT
HETATM    1  N   UNK N   1      33.074  11.933   9.226  0.00  0.00    -0.176 N 
ATOM      2  HN  UNK N   1      32.480  11.388   8.600  1.00  0.00     0.186 HD
HETATM    3  C   UNK N   1      34.278  15.411   9.697  0.00  0.00     0.086 A 
HETATM    4  C   UNK N   1      35.729  15.411  11.647  0.00  0.00     0.005 A 
HETATM    5  C   UNK N   1      35.512  14.043  11.817  0.00  0.00     0.031 A 
HETATM    6  C   UNK N   1      34.064  14.021   9.860  0.00  0.00     0.069 A 
HETATM    7  C   UNK N   1      33.241  13.256   8.996  0.00  0.00     0.130 A 
HETATM    8  C   UNK N   1      35.113  16.095  10.596  0.00  0.00     0.038 A 
HETATM    9  C   UNK N   1      34.687  13.345  10.933  0.00  0.00     0.066 A 
HETATM   10  N   UNK N   1      34.479  12.016  11.112  0.00  0.00    -0.191 N 
ATOM     11  HN  UNK N   1      34.931  11.538  11.891  1.00  0.00     0.184 HD
HETATM   12  C   UNK N   1      33.678  11.311  10.270  0.00  0.00     0.677 A 
HETATM   13  N   UNK N   1      33.474   9.935  10.479  0.00  0.00    -0.234 N 
HETATM   14  H   UNK N   1      34.050   9.438  11.104  0.00  0.00     0.174 HD
HETATM   15  H   UNK N   1      32.753   9.468   9.999  0.00  0.00     0.174 HD
ENDROOT
BRANCH   3  16
HETATM   16  O   UNK N   1      33.638  16.064   8.700  0.00  0.00    -0.341 OA
BRANCH  16  17
HETATM   17  C   UNK N   1      33.237  17.386   8.646  0.00  0.00     0.158 C 
HETATM   18  C   UNK N   1      34.228  18.199   7.825  0.00  0.00     0.045 C 
BRANCH  17  19
HETATM   19  C   UNK N   1      31.861  17.429   8.020  0.00  0.00    -0.028 A 
HETATM   20  C   UNK N   1      30.725  17.716   8.791  0.00  0.00     0.033 A 
HETATM   21  C   UNK N   1      29.457  17.726   8.194  0.00  0.00     0.034 A 
HETATM   22  C   UNK N   1      29.317  17.442   6.832  0.00  0.00     0.024 A 
HETATM   23 Cl   UNK N   1      28.038  18.093   9.146  0.00  0.00    -0.084 Cl
HETATM   24  C   UNK N   1      30.440  17.152   6.060  0.00  0.00     0.002 A 
HETATM   25  C   UNK N   1      31.702  17.145   6.651  0.00  0.00     0.010 A 
ENDBRANCH  17  19
ENDBRANCH  16  17
ENDBRANCH   3  16
BRANCH   7  26
HETATM   26  N   UNK N   1      32.588  13.839   7.889  0.00  0.00    -0.384 N 
HETATM   27  H   UNK N   1      31.728  13.481   7.571  0.00  0.00     0.157 HD
HETATM   28  H   UNK N   1      32.996  14.609   7.431  0.00  0.00     0.157 HD
ENDBRANCH   7  26
TORSDOF 4
ENDMDL
MODEL 9
REMARK VINA RESULT:      -6.3      3.894      6.735
REMARK  4 active torsions:
REMARK  status: ('A' for Active; 'I' for Inactive)
REMARK    1  A    between atoms: C_1  and  C_3 
REMARK    2  A    between atoms: C_3  and  O_18 
REMARK    3  A    between atoms: C_9  and  O_18 
REMARK    4  A    between atoms: C_13  and  N_22 
REMARK       I    between atoms: C_23  and  N_24 
ROOT
HETATM    1  N   UNK N   1      26.379  19.165   4.111  0.00  0.00    -0.176 N 
ATOM      2  HN  UNK N   1      26.288  20.111   4.481  1.00  0.00     0.186 HD
HETATM    3  C   UNK N   1      28.981  16.593   3.487  0.00  0.00     0.086 A 
HETATM    4  C   UNK N   1      27.869  14.668   2.506  0.00  0.00     0.005 A 
HETATM    5  C   UNK N   1      26.642  15.330   2.581  0.00  0.00     0.031 A 
HETATM    6  C   UNK N   1      27.741  17.273   3.554  0.00  0.00     0.069 A 
HETATM    7  C   UNK N   1      27.603  18.587   4.066  0.00  0.00     0.130 A 
HETATM    8  C   UNK N   1      29.033  15.292   2.961  0.00  0.00     0.038 A 
HETATM    9  C   UNK N   1      26.571  16.625   3.100  0.00  0.00     0.066 A 
HETATM   10  N   UNK N   1      25.372  17.257   3.172  0.00  0.00    -0.191 N 
ATOM     11  HN  UNK N   1      24.533  16.779   2.844  1.00  0.00     0.184 HD
HETATM   12  C   UNK N   1      25.271  18.515   3.675  0.00  0.00     0.677 A 
HETATM   13  N   UNK N   1      24.016  19.147   3.744  0.00  0.00    -0.234 N 
HETATM   14  H   UNK N   1      23.245  18.773   3.260  0.00  0.00     0.174 HD
HETATM   15  H   UNK N   1      23.909  19.968   4.279  0.00  0.00     0.174 HD
ENDROOT
BRANCH   3  16
HETATM   16  O   UNK N   1      30.091  17.197   3.972  0.00  0.00    -0.341 OA
BRANCH  16  17
HETATM   17  C   UNK N   1      31.329  16.647   4.245  0.00  0.00     0.158 C 
HETATM   18  C   UNK N   1      32.354  17.139   3.232  0.00  0.00     0.045 C 
BRANCH  17  19
HETATM   19  C   UNK N   1      31.722  17.057   5.647  0.00  0.00    -0.028 A 
HETATM   20  C   UNK N   1      30.770  17.123   6.674  0.00  0.00     0.033 A 
HETATM   21  C   UNK N   1      31.152  17.530   7.960  0.00  0.00     0.034 A 
HETATM   22  C   UNK N   1      32.480  17.879   8.222  0.00  0.00     0.024 A 
HETATM   23 Cl   UNK N   1      29.972  17.605   9.247  0.00  0.00    -0.084 Cl
HETATM   24  C   UNK N   1      33.432  17.820   7.206  0.00  0.00     0.002 A 
HETATM   25  C   UNK N   1      33.054  17.412   5.928  0.00  0.00     0.010 A 
ENDBRANCH  17  19
ENDBRANCH  16  17
ENDBRANCH   3  16
BRANCH   7  26
HETATM   26  N   UNK N   1      28.715  19.320   4.531  0.00  0.00    -0.384 N 
HETATM   27  H   UNK N   1      28.730  20.303   4.463  0.00  0.00     0.157 HD
HETATM   28  H   UNK N   1      29.483  18.847   4.926  0.00  0.00     0.157 HD
ENDBRANCH   7  26
TORSDOF 4
ENDMDL
