REMARK  4 active torsions:
REMARK  status: ('A' for Active; 'I' for Inactive)
REMARK    1  A    between atoms: C_1  and  C_3 
REMARK    2  A    between atoms: C_3  and  O_18 
REMARK    3  A    between atoms: C_9  and  O_18 
REMARK    4  A    between atoms: C_13  and  N_22 
REMARK       I    between atoms: C_23  and  N_24 
ROOT
HETATM    1  N   UNK N   1      -3.417   1.284   0.500  0.00  0.00    -0.176 N 
ATOM      2  HN  UNK N   1      -4.189   0.650   0.707  1.00  0.00     0.186 HD
HETATM    3  C   UNK N   1       0.254   1.217  -0.039  0.00  0.00     0.086 A 
HETATM    4  C   UNK N   1       0.961   3.504  -0.459  0.00  0.00     0.005 A 
HETATM    5  C   UNK N   1      -0.358   3.943  -0.329  0.00  0.00     0.031 A 
HETATM    6  C   UNK N   1      -1.083   1.659   0.105  0.00  0.00     0.069 A 
HETATM    7  C   UNK N   1      -2.162   0.787   0.392  0.00  0.00     0.130 A 
HETATM    8  C   UNK N   1       1.267   2.148  -0.320  0.00  0.00     0.038 A 
HETATM    9  C   UNK N   1      -1.379   3.032  -0.048  0.00  0.00     0.066 A 
HETATM   10  N   UNK N   1      -2.658   3.470   0.071  0.00  0.00    -0.191 N 
ATOM     11  HN  UNK N   1      -2.861   4.462  -0.044  1.00  0.00     0.184 HD
HETATM   12  C   UNK N   1      -3.673   2.607   0.340  0.00  0.00     0.677 A 
HETATM   13  N   UNK N   1      -4.991   3.084   0.454  0.00  0.00    -0.234 N 
HETATM   14  H   UNK N   1      -5.164   4.050   0.534  0.00  0.00     0.174 HD
HETATM   15  H   UNK N   1      -5.744   2.449   0.454  0.00  0.00     0.174 HD
ENDROOT
BRANCH   3  16
HETATM   16  O   UNK N   1       0.525  -0.106   0.056  0.00  0.00    -0.341 OA
BRANCH  16  17
HETATM   17  C   UNK N   1       1.740  -0.753  -0.065  0.00  0.00     0.158 C 
HETATM   18  C   UNK N   1       2.589  -0.505   1.174  0.00  0.00     0.045 C 
BRANCH  17  19
HETATM   19  C   UNK N   1       1.465  -2.230  -0.239  0.00  0.00    -0.028 A 
HETATM   20  C   UNK N   1       2.514  -3.147  -0.397  0.00  0.00     0.033 A 
HETATM   21  C   UNK N   1       2.234  -4.508  -0.582  0.00  0.00     0.034 A 
HETATM   22  C   UNK N   1       0.910  -4.956  -0.619  0.00  0.00     0.024 A 
HETATM   23 Cl   UNK N   1       3.537  -5.658  -0.769  0.00  0.00    -0.084 Cl
HETATM   24  C   UNK N   1      -0.138  -4.051  -0.467  0.00  0.00     0.002 A 
HETATM   25  C   UNK N   1       0.138  -2.698  -0.279  0.00  0.00     0.010 A 
ENDBRANCH  17  19
ENDBRANCH  16  17
ENDBRANCH   3  16
BRANCH   7  26
HETATM   26  N   UNK N   1      -1.965  -0.598   0.576  0.00  0.00    -0.384 N 
HETATM   27  H   UNK N   1      -2.734  -1.200   0.704  0.00  0.00     0.157 HD
HETATM   28  H   UNK N   1      -1.052  -0.966   0.576  0.00  0.00     0.157 HD
ENDBRANCH   7  26
TORSDOF 4
