MODEL 1
REMARK VINA RESULT:      -4.4      0.000      0.000
REMARK  10 active torsions:
REMARK  status: ('A' for Active; 'I' for Inactive)
REMARK    1  A    between atoms: N_1  and  C_5 
REMARK    2  A    between atoms: C_5  and  C_6 
REMARK    3  A    between atoms: C_6  and  C_7 
REMARK    4  A    between atoms: C_7  and  C_8 
REMARK    5  A    between atoms: C_8  and  C_9 
REMARK    6  A    between atoms: C_9  and  C_10 
REMARK    7  A    between atoms: C_10  and  C_11 
REMARK    8  A    between atoms: C_11  and  C_12 
REMARK    9  A    between atoms: C_12  and  C_13 
REMARK   10  A    between atoms: C_13  and  C_14 
ROOT
HETATM    1  C   UNK N   1      26.453  23.813  -4.797  0.00  0.00     0.000 C 
ENDROOT
BRANCH   1   2
HETATM    2  C   UNK N   1      27.062  24.593  -3.648  0.00  0.00     0.002 C 
BRANCH   2   3
HETATM    3  C   UNK N   1      28.566  24.436  -3.650  0.00  0.00     0.036 C 
BRANCH   3   4
HETATM    4  C   UNK N   1      28.952  23.051  -3.135  0.00  0.00     0.311 C 
BRANCH   4   5
HETATM    5  N   UNK N   1      30.370  22.957  -2.783  0.00  0.00     0.005 N 
HETATM    6  O   UNK N   1      30.476  23.069  -1.439  0.00  0.00    -0.065 OA
HETATM    7  C   UNK N   1      30.916  21.665  -3.172  0.00  0.00     0.355 C 
HETATM    8  C   UNK N   1      31.150  24.027  -3.387  0.00  0.00     0.355 C 
ENDBRANCH   4   5
ENDBRANCH   3   4
ENDBRANCH   2   3
ENDBRANCH   1   2
BRANCH   1   9
HETATM    9  C   UNK N   1      25.337  24.646  -5.380  0.00  0.00     0.000 C 
BRANCH   9  10
HETATM   10  C   UNK N   1      25.694  25.180  -6.750  0.00  0.00     0.000 C 
BRANCH  10  11
HETATM   11  C   UNK N   1      25.618  26.687  -6.653  0.00  0.00     0.000 C 
BRANCH  11  12
HETATM   12  C   UNK N   1      24.729  27.143  -5.519  0.00  0.00     0.000 C 
BRANCH  12  13
HETATM   13  C   UNK N   1      25.530  28.136  -4.704  0.00  0.00    -0.000 C 
BRANCH  13  14
HETATM   14  C   UNK N   1      26.924  28.296  -5.264  0.00  0.00    -0.005 C 
HETATM   15  C   UNK N   1      27.924  28.081  -4.146  0.00  0.00     0.005 C 
ENDBRANCH  13  14
ENDBRANCH  12  13
ENDBRANCH  11  12
ENDBRANCH  10  11
ENDBRANCH   9  10
ENDBRANCH   1   9
TORSDOF 10
ENDMDL
MODEL 2
REMARK VINA RESULT:      -4.2     19.785     23.784
REMARK  10 active torsions:
REMARK  status: ('A' for Active; 'I' for Inactive)
REMARK    1  A    between atoms: N_1  and  C_5 
REMARK    2  A    between atoms: C_5  and  C_6 
REMARK    3  A    between atoms: C_6  and  C_7 
REMARK    4  A    between atoms: C_7  and  C_8 
REMARK    5  A    between atoms: C_8  and  C_9 
REMARK    6  A    between atoms: C_9  and  C_10 
REMARK    7  A    between atoms: C_10  and  C_11 
REMARK    8  A    between atoms: C_11  and  C_12 
REMARK    9  A    between atoms: C_12  and  C_13 
REMARK   10  A    between atoms: C_13  and  C_14 
ROOT
HETATM    1  C   UNK N   1      36.433  13.933  14.428  0.00  0.00     0.000 C 
ENDROOT
BRANCH   1   2
HETATM    2  C   UNK N   1      36.517  12.891  13.330  0.00  0.00     0.002 C 
BRANCH   2   3
HETATM    3  C   UNK N   1      35.368  13.059  12.361  0.00  0.00     0.036 C 
BRANCH   3   4
HETATM    4  C   UNK N   1      35.865  13.665  11.051  0.00  0.00     0.311 C 
BRANCH   4   5
HETATM    5  N   UNK N   1      35.141  14.882  10.683  0.00  0.00     0.005 N 
HETATM    6  O   UNK N   1      33.971  14.895  11.360  0.00  0.00    -0.065 OA
HETATM    7  C   UNK N   1      35.895  16.068  11.061  0.00  0.00     0.355 C 
HETATM    8  C   UNK N   1      34.838  14.921   9.259  0.00  0.00     0.355 C 
ENDBRANCH   4   5
ENDBRANCH   3   4
ENDBRANCH   2   3
ENDBRANCH   1   2
BRANCH   1   9
HETATM    9  C   UNK N   1      36.576  13.221  15.751  0.00  0.00     0.000 C 
BRANCH   9  10
HETATM   10  C   UNK N   1      35.434  13.550  16.689  0.00  0.00     0.000 C 
BRANCH  10  11
HETATM   11  C   UNK N   1      35.155  12.290  17.477  0.00  0.00     0.000 C 
BRANCH  11  12
HETATM   12  C   UNK N   1      35.922  11.101  16.946  0.00  0.00     0.000 C 
BRANCH  12  13
HETATM   13  C   UNK N   1      34.898  10.063  16.536  0.00  0.00    -0.000 C 
BRANCH  13  14
HETATM   14  C   UNK N   1      34.767   9.998  15.033  0.00  0.00    -0.005 C 
HETATM   15  C   UNK N   1      33.535  10.777  14.618  0.00  0.00     0.005 C 
ENDBRANCH  13  14
ENDBRANCH  12  13
ENDBRANCH  11  12
ENDBRANCH  10  11
ENDBRANCH   9  10
ENDBRANCH   1   9
TORSDOF 10
ENDMDL
MODEL 3
REMARK VINA RESULT:      -4.2      1.264      2.466
REMARK  10 active torsions:
REMARK  status: ('A' for Active; 'I' for Inactive)
REMARK    1  A    between atoms: N_1  and  C_5 
REMARK    2  A    between atoms: C_5  and  C_6 
REMARK    3  A    between atoms: C_6  and  C_7 
REMARK    4  A    between atoms: C_7  and  C_8 
REMARK    5  A    between atoms: C_8  and  C_9 
REMARK    6  A    between atoms: C_9  and  C_10 
REMARK    7  A    between atoms: C_10  and  C_11 
REMARK    8  A    between atoms: C_11  and  C_12 
REMARK    9  A    between atoms: C_12  and  C_13 
REMARK   10  A    between atoms: C_13  and  C_14 
ROOT
HETATM    1  C   UNK N   1      28.792  25.797  -3.983  0.00  0.00     0.000 C 
ENDROOT
BRANCH   1   2
HETATM    2  C   UNK N   1      30.245  25.373  -3.889  0.00  0.00     0.002 C 
BRANCH   2   3
HETATM    3  C   UNK N   1      30.342  23.953  -3.379  0.00  0.00     0.036 C 
BRANCH   3   4
HETATM    4  C   UNK N   1      31.638  23.305  -3.863  0.00  0.00     0.311 C 
BRANCH   4   5
HETATM    5  N   UNK N   1      31.757  21.906  -3.449  0.00  0.00     0.005 N 
HETATM    6  O   UNK N   1      31.970  21.881  -2.114  0.00  0.00    -0.065 OA
HETATM    7  C   UNK N   1      30.528  21.178  -3.723  0.00  0.00     0.355 C 
HETATM    8  C   UNK N   1      32.881  21.245  -4.096  0.00  0.00     0.355 C 
ENDBRANCH   4   5
ENDBRANCH   3   4
ENDBRANCH   2   3
ENDBRANCH   1   2
BRANCH   1   9
HETATM    9  C   UNK N   1      28.026  24.673  -4.638  0.00  0.00     0.000 C 
BRANCH   9  10
HETATM   10  C   UNK N   1      26.703  24.422  -3.948  0.00  0.00     0.000 C 
BRANCH  10  11
HETATM   11  C   UNK N   1      25.656  24.382  -5.038  0.00  0.00     0.000 C 
BRANCH  11  12
HETATM   12  C   UNK N   1      25.861  25.467  -6.069  0.00  0.00     0.000 C 
BRANCH  12  13
HETATM   13  C   UNK N   1      24.990  26.636  -5.657  0.00  0.00    -0.000 C 
BRANCH  13  14
HETATM   14  C   UNK N   1      25.834  27.816  -5.236  0.00  0.00    -0.005 C 
HETATM   15  C   UNK N   1      25.692  28.005  -3.739  0.00  0.00     0.005 C 
ENDBRANCH  13  14
ENDBRANCH  12  13
ENDBRANCH  11  12
ENDBRANCH  10  11
ENDBRANCH   9  10
ENDBRANCH   1   9
TORSDOF 10
ENDMDL
MODEL 4
REMARK VINA RESULT:      -4.1     10.615     13.038
REMARK  10 active torsions:
REMARK  status: ('A' for Active; 'I' for Inactive)
REMARK    1  A    between atoms: N_1  and  C_5 
REMARK    2  A    between atoms: C_5  and  C_6 
REMARK    3  A    between atoms: C_6  and  C_7 
REMARK    4  A    between atoms: C_7  and  C_8 
REMARK    5  A    between atoms: C_8  and  C_9 
REMARK    6  A    between atoms: C_9  and  C_10 
REMARK    7  A    between atoms: C_10  and  C_11 
REMARK    8  A    between atoms: C_11  and  C_12 
REMARK    9  A    between atoms: C_12  and  C_13 
REMARK   10  A    between atoms: C_13  and  C_14 
ROOT
HETATM    1  C   UNK N   1      28.834  17.773   7.975  0.00  0.00     0.000 C 
ENDROOT
BRANCH   1   2
HETATM    2  C   UNK N   1      30.123  18.300   8.577  0.00  0.00     0.002 C 
BRANCH   2   3
HETATM    3  C   UNK N   1      31.224  17.274   8.433  0.00  0.00     0.036 C 
BRANCH   3   4
HETATM    4  C   UNK N   1      32.554  17.963   8.139  0.00  0.00     0.311 C 
BRANCH   4   5
HETATM    5  N   UNK N   1      33.276  17.345   7.026  0.00  0.00     0.005 N 
HETATM    6  O   UNK N   1      34.331  18.133   6.721  0.00  0.00    -0.065 OA
HETATM    7  C   UNK N   1      33.786  16.035   7.403  0.00  0.00     0.355 C 
HETATM    8  C   UNK N   1      32.441  17.229   5.839  0.00  0.00     0.355 C 
ENDBRANCH   4   5
ENDBRANCH   3   4
ENDBRANCH   2   3
ENDBRANCH   1   2
BRANCH   1   9
HETATM    9  C   UNK N   1      28.540  18.582   6.735  0.00  0.00     0.000 C 
BRANCH   9  10
HETATM   10  C   UNK N   1      27.655  19.771   7.040  0.00  0.00     0.000 C 
BRANCH  10  11
HETATM   11  C   UNK N   1      27.692  20.654   5.813  0.00  0.00     0.000 C 
BRANCH  11  12
HETATM   12  C   UNK N   1      27.898  19.862   4.543  0.00  0.00     0.000 C 
BRANCH  12  13
HETATM   13  C   UNK N   1      26.740  20.194   3.625  0.00  0.00    -0.000 C 
BRANCH  13  14
HETATM   14  C   UNK N   1      25.672  19.128   3.694  0.00  0.00    -0.005 C 
HETATM   15  C   UNK N   1      26.343  17.773   3.787  0.00  0.00     0.005 C 
ENDBRANCH  13  14
ENDBRANCH  12  13
ENDBRANCH  11  12
ENDBRANCH  10  11
ENDBRANCH   9  10
ENDBRANCH   1   9
TORSDOF 10
ENDMDL
MODEL 5
REMARK VINA RESULT:      -4.0     12.947     14.695
REMARK  10 active torsions:
REMARK  status: ('A' for Active; 'I' for Inactive)
REMARK    1  A    between atoms: N_1  and  C_5 
REMARK    2  A    between atoms: C_5  and  C_6 
REMARK    3  A    between atoms: C_6  and  C_7 
REMARK    4  A    between atoms: C_7  and  C_8 
REMARK    5  A    between atoms: C_8  and  C_9 
REMARK    6  A    between atoms: C_9  and  C_10 
REMARK    7  A    between atoms: C_10  and  C_11 
REMARK    8  A    between atoms: C_11  and  C_12 
REMARK    9  A    between atoms: C_12  and  C_13 
REMARK   10  A    between atoms: C_13  and  C_14 
ROOT
HETATM    1  C   UNK N   1      30.103  18.627   9.083  0.00  0.00     0.000 C 
ENDROOT
BRANCH   1   2
HETATM    2  C   UNK N   1      30.560  17.184   8.994  0.00  0.00     0.002 C 
BRANCH   2   3
HETATM    3  C   UNK N   1      31.819  17.086   8.163  0.00  0.00     0.036 C 
BRANCH   3   4
HETATM    4  C   UNK N   1      32.760  18.244   8.490  0.00  0.00     0.311 C 
BRANCH   4   5
HETATM    5  N   UNK N   1      34.167  17.905   8.273  0.00  0.00     0.005 N 
HETATM    6  O   UNK N   1      34.882  19.053   8.286  0.00  0.00    -0.065 OA
HETATM    7  C   UNK N   1      34.665  17.052   9.341  0.00  0.00     0.355 C 
HETATM    8  C   UNK N   1      34.375  17.260   6.985  0.00  0.00     0.355 C 
ENDBRANCH   4   5
ENDBRANCH   3   4
ENDBRANCH   2   3
ENDBRANCH   1   2
BRANCH   1   9
HETATM    9  C   UNK N   1      28.781  18.737   8.361  0.00  0.00     0.000 C 
BRANCH   9  10
HETATM   10  C   UNK N   1      28.176  17.376   8.093  0.00  0.00     0.000 C 
BRANCH  10  11
HETATM   11  C   UNK N   1      27.715  17.392   6.653  0.00  0.00     0.000 C 
BRANCH  11  12
HETATM   12  C   UNK N   1      28.872  17.471   5.683  0.00  0.00     0.000 C 
BRANCH  12  13
HETATM   13  C   UNK N   1      29.452  16.076   5.576  0.00  0.00    -0.000 C 
BRANCH  13  14
HETATM   14  C   UNK N   1      30.679  16.068   4.695  0.00  0.00    -0.005 C 
HETATM   15  C   UNK N   1      31.180  17.490   4.545  0.00  0.00     0.005 C 
ENDBRANCH  13  14
ENDBRANCH  12  13
ENDBRANCH  11  12
ENDBRANCH  10  11
ENDBRANCH   9  10
ENDBRANCH   1   9
TORSDOF 10
ENDMDL
MODEL 6
REMARK VINA RESULT:      -4.0      1.631      3.232
REMARK  10 active torsions:
REMARK  status: ('A' for Active; 'I' for Inactive)
REMARK    1  A    between atoms: N_1  and  C_5 
REMARK    2  A    between atoms: C_5  and  C_6 
REMARK    3  A    between atoms: C_6  and  C_7 
REMARK    4  A    between atoms: C_7  and  C_8 
REMARK    5  A    between atoms: C_8  and  C_9 
REMARK    6  A    between atoms: C_9  and  C_10 
REMARK    7  A    between atoms: C_10  and  C_11 
REMARK    8  A    between atoms: C_11  and  C_12 
REMARK    9  A    between atoms: C_12  and  C_13 
REMARK   10  A    between atoms: C_13  and  C_14 
ROOT
HETATM    1  C   UNK N   1      26.402  25.398  -3.934  0.00  0.00     0.000 C 
ENDROOT
BRANCH   1   2
HETATM    2  C   UNK N   1      27.033  24.178  -3.291  0.00  0.00     0.002 C 
BRANCH   2   3
HETATM    3  C   UNK N   1      28.506  24.114  -3.627  0.00  0.00     0.036 C 
BRANCH   3   4
HETATM    4  C   UNK N   1      29.109  22.809  -3.113  0.00  0.00     0.311 C 
BRANCH   4   5
HETATM    5  N   UNK N   1      30.515  22.950  -2.732  0.00  0.00     0.005 N 
HETATM    6  O   UNK N   1      30.575  23.075  -1.387  0.00  0.00    -0.065 OA
HETATM    7  C   UNK N   1      31.275  21.767  -3.108  0.00  0.00     0.355 C 
HETATM    8  C   UNK N   1      31.119  24.136  -3.323  0.00  0.00     0.355 C 
ENDBRANCH   4   5
ENDBRANCH   3   4
ENDBRANCH   2   3
ENDBRANCH   1   2
BRANCH   1   9
HETATM    9  C   UNK N   1      25.514  24.919  -5.057  0.00  0.00     0.000 C 
BRANCH   9  10
HETATM   10  C   UNK N   1      25.876  25.573  -6.373  0.00  0.00     0.000 C 
BRANCH  10  11
HETATM   11  C   UNK N   1      26.033  24.453  -7.376  0.00  0.00     0.000 C 
BRANCH  11  12
HETATM   12  C   UNK N   1      25.833  23.092  -6.750  0.00  0.00     0.000 C 
BRANCH  12  13
HETATM   13  C   UNK N   1      26.956  22.208  -7.252  0.00  0.00    -0.000 C 
BRANCH  13  14
HETATM   14  C   UNK N   1      28.303  22.810  -6.932  0.00  0.00    -0.005 C 
HETATM   15  C   UNK N   1      29.281  21.689  -6.643  0.00  0.00     0.005 C 
ENDBRANCH  13  14
ENDBRANCH  12  13
ENDBRANCH  11  12
ENDBRANCH  10  11
ENDBRANCH   9  10
ENDBRANCH   1   9
TORSDOF 10
ENDMDL
MODEL 7
REMARK VINA RESULT:      -4.0     11.299     13.599
REMARK  10 active torsions:
REMARK  status: ('A' for Active; 'I' for Inactive)
REMARK    1  A    between atoms: N_1  and  C_5 
REMARK    2  A    between atoms: C_5  and  C_6 
REMARK    3  A    between atoms: C_6  and  C_7 
REMARK    4  A    between atoms: C_7  and  C_8 
REMARK    5  A    between atoms: C_8  and  C_9 
REMARK    6  A    between atoms: C_9  and  C_10 
REMARK    7  A    between atoms: C_10  and  C_11 
REMARK    8  A    between atoms: C_11  and  C_12 
REMARK    9  A    between atoms: C_12  and  C_13 
REMARK   10  A    between atoms: C_13  and  C_14 
ROOT
HETATM    1  C   UNK N   1      29.943  17.434   7.426  0.00  0.00     0.000 C 
ENDROOT
BRANCH   1   2
HETATM    2  C   UNK N   1      30.556  17.952   8.712  0.00  0.00     0.002 C 
BRANCH   2   3
HETATM    3  C   UNK N   1      32.042  18.168   8.532  0.00  0.00     0.036 C 
BRANCH   3   4
HETATM    4  C   UNK N   1      32.599  17.181   7.508  0.00  0.00     0.311 C 
BRANCH   4   5
HETATM    5  N   UNK N   1      34.059  17.098   7.543  0.00  0.00     0.005 N 
HETATM    6  O   UNK N   1      34.556  18.185   6.910  0.00  0.00    -0.065 OA
HETATM    7  C   UNK N   1      34.547  17.111   8.913  0.00  0.00     0.355 C 
HETATM    8  C   UNK N   1      34.550  15.913   6.853  0.00  0.00     0.355 C 
ENDBRANCH   4   5
ENDBRANCH   3   4
ENDBRANCH   2   3
ENDBRANCH   1   2
BRANCH   1   9
HETATM    9  C   UNK N   1      28.454  17.304   7.645  0.00  0.00     0.000 C 
BRANCH   9  10
HETATM   10  C   UNK N   1      27.687  17.408   6.345  0.00  0.00     0.000 C 
BRANCH  10  11
HETATM   11  C   UNK N   1      28.680  17.863   5.300  0.00  0.00     0.000 C 
BRANCH  11  12
HETATM   12  C   UNK N   1      28.280  19.174   4.662  0.00  0.00     0.000 C 
BRANCH  12  13
HETATM   13  C   UNK N   1      26.802  19.362   4.932  0.00  0.00    -0.000 C 
BRANCH  13  14
HETATM   14  C   UNK N   1      26.497  20.796   5.293  0.00  0.00    -0.005 C 
HETATM   15  C   UNK N   1      27.501  21.261   6.328  0.00  0.00     0.005 C 
ENDBRANCH  13  14
ENDBRANCH  12  13
ENDBRANCH  11  12
ENDBRANCH  10  11
ENDBRANCH   9  10
ENDBRANCH   1   9
TORSDOF 10
ENDMDL
MODEL 8
REMARK VINA RESULT:      -3.9      3.625      6.511
REMARK  10 active torsions:
REMARK  status: ('A' for Active; 'I' for Inactive)
REMARK    1  A    between atoms: N_1  and  C_5 
REMARK    2  A    between atoms: C_5  and  C_6 
REMARK    3  A    between atoms: C_6  and  C_7 
REMARK    4  A    between atoms: C_7  and  C_8 
REMARK    5  A    between atoms: C_8  and  C_9 
REMARK    6  A    between atoms: C_9  and  C_10 
REMARK    7  A    between atoms: C_10  and  C_11 
REMARK    8  A    between atoms: C_11  and  C_12 
REMARK    9  A    between atoms: C_12  and  C_13 
REMARK   10  A    between atoms: C_13  and  C_14 
ROOT
HETATM    1  C   UNK N   1      27.045  24.829  -3.462  0.00  0.00     0.000 C 
ENDROOT
BRANCH   1   2
HETATM    2  C   UNK N   1      26.014  24.396  -4.486  0.00  0.00     0.002 C 
BRANCH   2   3
HETATM    3  C   UNK N   1      26.700  23.862  -5.723  0.00  0.00     0.036 C 
BRANCH   3   4
HETATM    4  C   UNK N   1      25.791  22.868  -6.445  0.00  0.00     0.311 C 
BRANCH   4   5
HETATM    5  N   UNK N   1      25.661  23.159  -7.873  0.00  0.00     0.005 N 
HETATM    6  O   UNK N   1      24.452  22.712  -8.283  0.00  0.00    -0.065 OA
HETATM    7  C   UNK N   1      25.718  24.592  -8.118  0.00  0.00     0.355 C 
HETATM    8  C   UNK N   1      26.682  22.481  -8.658  0.00  0.00     0.355 C 
ENDBRANCH   4   5
ENDBRANCH   3   4
ENDBRANCH   2   3
ENDBRANCH   1   2
BRANCH   1   9
HETATM    9  C   UNK N   1      28.196  23.855  -3.527  0.00  0.00     0.000 C 
BRANCH   9  10
HETATM   10  C   UNK N   1      28.386  23.126  -2.214  0.00  0.00     0.000 C 
BRANCH  10  11
HETATM   11  C   UNK N   1      29.878  23.064  -1.974  0.00  0.00     0.000 C 
BRANCH  11  12
HETATM   12  C   UNK N   1      30.665  23.050  -3.264  0.00  0.00     0.000 C 
BRANCH  12  13
HETATM   13  C   UNK N   1      31.533  21.809  -3.237  0.00  0.00    -0.000 C 
BRANCH  13  14
HETATM   14  C   UNK N   1      30.905  20.693  -4.037  0.00  0.00    -0.005 C 
HETATM   15  C   UNK N   1      30.181  21.294  -5.225  0.00  0.00     0.005 C 
ENDBRANCH  13  14
ENDBRANCH  12  13
ENDBRANCH  11  12
ENDBRANCH  10  11
ENDBRANCH   9  10
ENDBRANCH   1   9
TORSDOF 10
ENDMDL
MODEL 9
REMARK VINA RESULT:      -3.9      1.452      2.834
REMARK  10 active torsions:
REMARK  status: ('A' for Active; 'I' for Inactive)
REMARK    1  A    between atoms: N_1  and  C_5 
REMARK    2  A    between atoms: C_5  and  C_6 
REMARK    3  A    between atoms: C_6  and  C_7 
REMARK    4  A    between atoms: C_7  and  C_8 
REMARK    5  A    between atoms: C_8  and  C_9 
REMARK    6  A    between atoms: C_9  and  C_10 
REMARK    7  A    between atoms: C_10  and  C_11 
REMARK    8  A    between atoms: C_11  and  C_12 
REMARK    9  A    between atoms: C_12  and  C_13 
REMARK   10  A    between atoms: C_13  and  C_14 
ROOT
HETATM    1  C   UNK N   1      29.577  26.619  -4.117  0.00  0.00     0.000 C 
ENDROOT
BRANCH   1   2
HETATM    2  C   UNK N   1      29.451  25.126  -3.879  0.00  0.00     0.002 C 
BRANCH   2   3
HETATM    3  C   UNK N   1      30.800  24.537  -3.537  0.00  0.00     0.036 C 
BRANCH   3   4
HETATM    4  C   UNK N   1      30.626  23.265  -2.710  0.00  0.00     0.311 C 
BRANCH   4   5
HETATM    5  N   UNK N   1      31.464  22.164  -3.187  0.00  0.00     0.005 N 
HETATM    6  O   UNK N   1      32.184  21.700  -2.140  0.00  0.00    -0.065 OA
HETATM    7  C   UNK N   1      30.646  21.071  -3.691  0.00  0.00     0.355 C 
HETATM    8  C   UNK N   1      32.396  22.601  -4.216  0.00  0.00     0.355 C 
ENDBRANCH   4   5
ENDBRANCH   3   4
ENDBRANCH   2   3
ENDBRANCH   1   2
BRANCH   1   9
HETATM    9  C   UNK N   1      28.207  27.231  -3.942  0.00  0.00     0.000 C 
BRANCH   9  10
HETATM   10  C   UNK N   1      27.940  28.306  -4.973  0.00  0.00     0.000 C 
BRANCH  10  11
HETATM   11  C   UNK N   1      26.553  28.834  -4.687  0.00  0.00     0.000 C 
BRANCH  11  12
HETATM   12  C   UNK N   1      25.597  27.738  -4.276  0.00  0.00     0.000 C 
BRANCH  12  13
HETATM   13  C   UNK N   1      24.873  27.292  -5.529  0.00  0.00    -0.000 C 
BRANCH  13  14
HETATM   14  C   UNK N   1      25.315  25.909  -5.945  0.00  0.00    -0.005 C 
HETATM   15  C   UNK N   1      25.923  25.989  -7.330  0.00  0.00     0.005 C 
ENDBRANCH  13  14
ENDBRANCH  12  13
ENDBRANCH  11  12
ENDBRANCH  10  11
ENDBRANCH   9  10
ENDBRANCH   1   9
TORSDOF 10
ENDMDL
