MODEL 1
REMARK VINA RESULT:      -8.0      0.000      0.000
REMARK  6 active torsions:
REMARK  status: ('A' for Active; 'I' for Inactive)
REMARK    1  A    between atoms: C_6  and  C_7 
REMARK    2  A    between atoms: C_9  and  N_10 
REMARK    3  A    between atoms: N_10  and  C_11 
REMARK    4  A    between atoms: C_11  and  C_12 
REMARK    5  A    between atoms: C_12  and  O_14 
REMARK    6  A    between atoms: C_22  and  C_23 
ROOT
HETATM    1  C   UNK N   1      29.017  17.957   5.966  0.00  0.00     0.019 A 
HETATM    2  C   UNK N   1      29.414  17.844   7.331  0.00  0.00     0.065 A 
HETATM    3  C   UNK N   1      30.479  17.241   8.052  0.00  0.00     0.117 A 
HETATM    4  N   UNK N   1      30.488  17.349   9.416  0.00  0.00    -0.338 N 
ATOM      5  HN  UNK N   1      31.245  16.916   9.943  1.00  0.00     0.168 HD
HETATM    6  C   UNK N   1      29.511  18.022  10.089  0.00  0.00     0.183 A 
HETATM    7  N   UNK N   1      28.484  18.592   9.410  0.00  0.00    -0.338 N 
ATOM      8  HN  UNK N   1      27.746  19.088   9.909  1.00  0.00     0.168 HD
HETATM    9  C   UNK N   1      28.452  18.491   8.061  0.00  0.00     0.121 A 
HETATM   10  N   UNK N   1      27.481  18.990   7.300  0.00  0.00    -0.340 N 
HETATM   11  C   UNK N   1      27.774  18.686   6.015  0.00  0.00     0.056 A 
HETATM   12  H   UNK N   1      26.692  19.490   7.614  0.00  0.00     0.167 HD
ENDROOT
BRANCH   3  13
HETATM   13  N   UNK N   1      31.498  16.500   7.420  0.00  0.00    -0.373 N 
HETATM   14  H   UNK N   1      31.251  15.896   6.683  0.00  0.00     0.161 HD
BRANCH  13  15
HETATM   15  C   UNK N   1      32.885  16.589   7.804  0.00  0.00     0.152 C 
BRANCH  15  16
HETATM   16  C   UNK N   1      33.527  17.852   7.245  0.00  0.00     0.132 C 
HETATM   17  C   UNK N   1      34.490  18.409   8.272  0.00  0.00     0.041 C 
BRANCH  16  18
HETATM   18  O   UNK N   1      34.234  17.563   6.077  0.00  0.00    -0.394 OA
HETATM   19  H   UNK N   1      34.722  16.728   5.995  0.00  0.00     0.210 HD
ENDBRANCH  16  18
ENDBRANCH  15  16
ENDBRANCH  13  15
ENDBRANCH   3  13
BRANCH   1  20
HETATM   20  C   UNK N   1      29.759  17.415   4.755  0.00  0.00    -0.023 A 
HETATM   21  C   UNK N   1      31.102  17.717   4.512  0.00  0.00     0.012 A 
HETATM   22  C   UNK N   1      31.789  17.211   3.404  0.00  0.00     0.001 A 
HETATM   23  C   UNK N   1      31.133  16.379   2.502  0.00  0.00     0.000 A 
HETATM   24  C   UNK N   1      29.797  16.058   2.718  0.00  0.00     0.001 A 
HETATM   25  C   UNK N   1      29.130  16.571   3.833  0.00  0.00     0.012 A 
ENDBRANCH   1  20
BRANCH  11  26
HETATM   26  C   UNK N   1      26.797  19.131   4.962  0.00  0.00    -0.009 A 
HETATM   27  C   UNK N   1      27.214  20.126   4.057  0.00  0.00     0.014 A 
HETATM   28  C   UNK N   1      26.358  20.606   3.062  0.00  0.00     0.001 A 
HETATM   29  C   UNK N   1      25.063  20.098   2.954  0.00  0.00     0.000 A 
HETATM   30  C   UNK N   1      24.633  19.112   3.840  0.00  0.00     0.001 A 
HETATM   31  C   UNK N   1      25.496  18.640   4.832  0.00  0.00     0.014 A 
ENDBRANCH  11  26
TORSDOF 6
ENDMDL
MODEL 2
REMARK VINA RESULT:      -7.7      2.040      2.635
REMARK  6 active torsions:
REMARK  status: ('A' for Active; 'I' for Inactive)
REMARK    1  A    between atoms: C_6  and  C_7 
REMARK    2  A    between atoms: C_9  and  N_10 
REMARK    3  A    between atoms: N_10  and  C_11 
REMARK    4  A    between atoms: C_11  and  C_12 
REMARK    5  A    between atoms: C_12  and  O_14 
REMARK    6  A    between atoms: C_22  and  C_23 
ROOT
HETATM    1  C   UNK N   1      29.548  16.779   5.888  0.00  0.00     0.019 A 
HETATM    2  C   UNK N   1      29.504  17.178   7.256  0.00  0.00     0.065 A 
HETATM    3  C   UNK N   1      30.446  17.463   8.281  0.00  0.00     0.117 A 
HETATM    4  N   UNK N   1      29.979  17.808   9.519  0.00  0.00    -0.338 N 
ATOM      5  HN  UNK N   1      30.647  18.009  10.263  1.00  0.00     0.168 HD
HETATM    6  C   UNK N   1      28.645  17.892   9.785  0.00  0.00     0.183 A 
HETATM    7  N   UNK N   1      27.737  17.612   8.816  0.00  0.00    -0.338 N 
ATOM      8  HN  UNK N   1      26.738  17.664   9.013  1.00  0.00     0.168 HD
HETATM    9  C   UNK N   1      28.177  17.261   7.586  0.00  0.00     0.121 A 
HETATM   10  N   UNK N   1      27.377  16.942   6.571  0.00  0.00    -0.340 N 
HETATM   11  C   UNK N   1      28.163  16.634   5.514  0.00  0.00     0.056 A 
HETATM   12  H   UNK N   1      26.392  16.933   6.586  0.00  0.00     0.167 HD
ENDROOT
BRANCH   3  13
HETATM   13  N   UNK N   1      31.838  17.357   8.081  0.00  0.00    -0.373 N 
HETATM   14  H   UNK N   1      32.185  16.573   7.599  0.00  0.00     0.161 HD
BRANCH  13  15
HETATM   15  C   UNK N   1      32.774  18.348   8.552  0.00  0.00     0.152 C 
BRANCH  15  16
HETATM   16  C   UNK N   1      34.207  17.937   8.242  0.00  0.00     0.132 C 
HETATM   17  C   UNK N   1      34.254  17.330   6.856  0.00  0.00     0.041 C 
BRANCH  16  18
HETATM   18  O   UNK N   1      35.051  19.048   8.274  0.00  0.00    -0.394 OA
HETATM   19  H   UNK N   1      35.768  19.099   8.925  0.00  0.00     0.210 HD
ENDBRANCH  16  18
ENDBRANCH  15  16
ENDBRANCH  13  15
ENDBRANCH   3  13
BRANCH   1  20
HETATM   20  C   UNK N   1      30.792  16.560   5.042  0.00  0.00    -0.023 A 
HETATM   21  C   UNK N   1      31.410  15.311   4.939  0.00  0.00     0.012 A 
HETATM   22  C   UNK N   1      32.549  15.106   4.155  0.00  0.00     0.001 A 
HETATM   23  C   UNK N   1      33.100  16.167   3.443  0.00  0.00     0.000 A 
HETATM   24  C   UNK N   1      32.507  17.423   3.523  0.00  0.00     0.001 A 
HETATM   25  C   UNK N   1      31.368  17.605   4.311  0.00  0.00     0.012 A 
ENDBRANCH   1  20
BRANCH  11  26
HETATM   26  C   UNK N   1      27.475  16.215   4.245  0.00  0.00    -0.009 A 
HETATM   27  C   UNK N   1      26.145  16.635   4.048  0.00  0.00     0.014 A 
HETATM   28  C   UNK N   1      25.432  16.271   2.902  0.00  0.00     0.001 A 
HETATM   29  C   UNK N   1      26.038  15.478   1.929  0.00  0.00     0.000 A 
HETATM   30  C   UNK N   1      27.354  15.053   2.105  0.00  0.00     0.001 A 
HETATM   31  C   UNK N   1      28.058  15.421   3.254  0.00  0.00     0.014 A 
ENDBRANCH  11  26
TORSDOF 6
ENDMDL
MODEL 3
REMARK VINA RESULT:      -7.3      5.660      9.414
REMARK  6 active torsions:
REMARK  status: ('A' for Active; 'I' for Inactive)
REMARK    1  A    between atoms: C_6  and  C_7 
REMARK    2  A    between atoms: C_9  and  N_10 
REMARK    3  A    between atoms: N_10  and  C_11 
REMARK    4  A    between atoms: C_11  and  C_12 
REMARK    5  A    between atoms: C_12  and  O_14 
REMARK    6  A    between atoms: C_22  and  C_23 
ROOT
HETATM    1  C   UNK N   1      22.951  18.500   3.970  0.00  0.00     0.019 A 
HETATM    2  C   UNK N   1      21.851  19.111   3.298  0.00  0.00     0.065 A 
HETATM    3  C   UNK N   1      20.498  18.782   3.019  0.00  0.00     0.117 A 
HETATM    4  N   UNK N   1      19.746  19.669   2.298  0.00  0.00    -0.338 N 
ATOM      5  HN  UNK N   1      18.774  19.439   2.088  1.00  0.00     0.168 HD
HETATM    6  C   UNK N   1      20.259  20.850   1.854  0.00  0.00     0.183 A 
HETATM    7  N   UNK N   1      21.554  21.169   2.106  0.00  0.00    -0.338 N 
ATOM      8  HN  UNK N   1      21.946  22.048   1.768  1.00  0.00     0.168 HD
HETATM    9  C   UNK N   1      22.318  20.303   2.812  0.00  0.00     0.121 A 
HETATM   10  N   UNK N   1      23.603  20.504   3.094  0.00  0.00    -0.340 N 
HETATM   11  C   UNK N   1      24.038  19.430   3.793  0.00  0.00     0.056 A 
HETATM   12  H   UNK N   1      24.140  21.290   2.841  0.00  0.00     0.167 HD
ENDROOT
BRANCH   3  13
HETATM   13  N   UNK N   1      19.917  17.560   3.417  0.00  0.00    -0.373 N 
HETATM   14  H   UNK N   1      19.375  17.543   4.239  0.00  0.00     0.161 HD
BRANCH  13  15
HETATM   15  C   UNK N   1      20.082  16.336   2.674  0.00  0.00     0.152 C 
BRANCH  15  16
HETATM   16  C   UNK N   1      19.756  15.124   3.537  0.00  0.00     0.132 C 
HETATM   17  C   UNK N   1      19.123  15.598   4.828  0.00  0.00     0.041 C 
BRANCH  16  18
HETATM   18  O   UNK N   1      18.856  14.285   2.878  0.00  0.00    -0.394 OA
HETATM   19  H   UNK N   1      18.363  13.611   3.374  0.00  0.00     0.210 HD
ENDBRANCH  16  18
ENDBRANCH  15  16
ENDBRANCH  13  15
ENDBRANCH   3  13
BRANCH   1  20
HETATM   20  C   UNK N   1      22.946  17.165   4.696  0.00  0.00    -0.023 A 
HETATM   21  C   UNK N   1      23.483  16.007   4.126  0.00  0.00     0.012 A 
HETATM   22  C   UNK N   1      23.488  14.781   4.797  0.00  0.00     0.001 A 
HETATM   23  C   UNK N   1      22.947  14.688   6.075  0.00  0.00     0.000 A 
HETATM   24  C   UNK N   1      22.407  15.823   6.671  0.00  0.00     0.001 A 
HETATM   25  C   UNK N   1      22.414  17.039   5.984  0.00  0.00     0.012 A 
ENDBRANCH   1  20
BRANCH  11  26
HETATM   26  C   UNK N   1      25.483  19.419   4.208  0.00  0.00    -0.009 A 
HETATM   27  C   UNK N   1      26.303  18.388   3.710  0.00  0.00     0.014 A 
HETATM   28  C   UNK N   1      27.652  18.299   4.064  0.00  0.00     0.001 A 
HETATM   29  C   UNK N   1      28.208  19.243   4.928  0.00  0.00     0.000 A 
HETATM   30  C   UNK N   1      27.413  20.271   5.431  0.00  0.00     0.001 A 
HETATM   31  C   UNK N   1      26.065  20.351   5.071  0.00  0.00     0.014 A 
ENDBRANCH  11  26
TORSDOF 6
ENDMDL
MODEL 4
REMARK VINA RESULT:      -7.2      2.294      6.509
REMARK  6 active torsions:
REMARK  status: ('A' for Active; 'I' for Inactive)
REMARK    1  A    between atoms: C_6  and  C_7 
REMARK    2  A    between atoms: C_9  and  N_10 
REMARK    3  A    between atoms: N_10  and  C_11 
REMARK    4  A    between atoms: C_11  and  C_12 
REMARK    5  A    between atoms: C_12  and  O_14 
REMARK    6  A    between atoms: C_22  and  C_23 
ROOT
HETATM    1  C   UNK N   1      31.249  16.713   7.092  0.00  0.00     0.019 A 
HETATM    2  C   UNK N   1      30.030  17.311   7.526  0.00  0.00     0.065 A 
HETATM    3  C   UNK N   1      28.909  17.937   6.916  0.00  0.00     0.117 A 
HETATM    4  N   UNK N   1      27.911  18.415   7.720  0.00  0.00    -0.338 N 
ATOM      5  HN  UNK N   1      27.106  18.871   7.292  1.00  0.00     0.168 HD
HETATM    6  C   UNK N   1      27.964  18.298   9.077  0.00  0.00     0.183 A 
HETATM    7  N   UNK N   1      29.034  17.711   9.670  0.00  0.00    -0.338 N 
ATOM      8  HN  UNK N   1      29.082  17.629  10.685  1.00  0.00     0.168 HD
HETATM    9  C   UNK N   1      30.036  17.237   8.894  0.00  0.00     0.121 A 
HETATM   10  N   UNK N   1      31.140  16.667   9.371  0.00  0.00    -0.340 N 
HETATM   11  C   UNK N   1      31.916  16.335   8.313  0.00  0.00     0.056 A 
HETATM   12  H   UNK N   1      31.354  16.513  10.320  0.00  0.00     0.167 HD
ENDROOT
BRANCH   3  13
HETATM   13  N   UNK N   1      28.812  18.124   5.522  0.00  0.00    -0.373 N 
HETATM   14  H   UNK N   1      29.609  17.956   4.969  0.00  0.00     0.161 HD
BRANCH  13  15
HETATM   15  C   UNK N   1      27.597  18.547   4.871  0.00  0.00     0.152 C 
BRANCH  15  16
HETATM   16  C   UNK N   1      27.678  20.013   4.465  0.00  0.00     0.132 C 
HETATM   17  C   UNK N   1      26.528  20.327   3.531  0.00  0.00     0.041 C 
BRANCH  16  18
HETATM   18  O   UNK N   1      27.581  20.836   5.588  0.00  0.00    -0.394 OA
HETATM   19  H   UNK N   1      27.681  21.798   5.499  0.00  0.00     0.210 HD
ENDBRANCH  16  18
ENDBRANCH  15  16
ENDBRANCH  13  15
ENDBRANCH   3  13
BRANCH   1  20
HETATM   20  C   UNK N   1      31.714  16.534   5.656  0.00  0.00    -0.023 A 
HETATM   21  C   UNK N   1      32.577  17.442   5.035  0.00  0.00     0.012 A 
HETATM   22  C   UNK N   1      33.012  17.273   3.718  0.00  0.00     0.001 A 
HETATM   23  C   UNK N   1      32.587  16.171   2.983  0.00  0.00     0.000 A 
HETATM   24  C   UNK N   1      31.730  15.247   3.573  0.00  0.00     0.001 A 
HETATM   25  C   UNK N   1      31.308  15.434   4.892  0.00  0.00     0.012 A 
ENDBRANCH   1  20
BRANCH  11  26
HETATM   26  C   UNK N   1      33.242  15.690   8.607  0.00  0.00    -0.009 A 
HETATM   27  C   UNK N   1      33.480  14.406   8.080  0.00  0.00     0.014 A 
HETATM   28  C   UNK N   1      34.680  13.733   8.325  0.00  0.00     0.001 A 
HETATM   29  C   UNK N   1      35.668  14.334   9.105  0.00  0.00     0.000 A 
HETATM   30  C   UNK N   1      35.451  15.605   9.635  0.00  0.00     0.001 A 
HETATM   31  C   UNK N   1      34.247  16.269   9.385  0.00  0.00     0.014 A 
ENDBRANCH  11  26
TORSDOF 6
ENDMDL
MODEL 5
REMARK VINA RESULT:      -7.0     11.037     14.699
REMARK  6 active torsions:
REMARK  status: ('A' for Active; 'I' for Inactive)
REMARK    1  A    between atoms: C_6  and  C_7 
REMARK    2  A    between atoms: C_9  and  N_10 
REMARK    3  A    between atoms: N_10  and  C_11 
REMARK    4  A    between atoms: C_11  and  C_12 
REMARK    5  A    between atoms: C_12  and  O_14 
REMARK    6  A    between atoms: C_22  and  C_23 
ROOT
HETATM    1  C   UNK N   1      34.952  10.821  16.677  0.00  0.00     0.019 A 
HETATM    2  C   UNK N   1      35.215  12.165  17.073  0.00  0.00     0.065 A 
HETATM    3  C   UNK N   1      35.506  13.397  16.427  0.00  0.00     0.117 A 
HETATM    4  N   UNK N   1      35.722  14.505  17.200  0.00  0.00    -0.338 N 
ATOM      5  HN  UNK N   1      35.937  15.392  16.745  1.00  0.00     0.168 HD
HETATM    6  C   UNK N   1      35.658  14.455  18.560  0.00  0.00     0.183 A 
HETATM    7  N   UNK N   1      35.391  13.281  19.188  0.00  0.00    -0.338 N 
ATOM      8  HN  UNK N   1      35.350  13.237  20.206  1.00  0.00     0.168 HD
HETATM    9  C   UNK N   1      35.180  12.171  18.443  0.00  0.00     0.121 A 
HETATM   10  N   UNK N   1      34.936  10.967  18.954  0.00  0.00    -0.340 N 
HETATM   11  C   UNK N   1      34.796  10.107  17.920  0.00  0.00     0.056 A 
HETATM   12  H   UNK N   1      34.869  10.743  19.911  0.00  0.00     0.167 HD
ENDROOT
BRANCH   3  13
HETATM   13  N   UNK N   1      35.625  13.508  15.026  0.00  0.00    -0.373 N 
HETATM   14  H   UNK N   1      34.862  13.864  14.517  0.00  0.00     0.161 HD
BRANCH  13  15
HETATM   15  C   UNK N   1      36.815  13.123  14.309  0.00  0.00     0.152 C 
BRANCH  15  16
HETATM   16  C   UNK N   1      36.511  12.885  12.835  0.00  0.00     0.132 C 
HETATM   17  C   UNK N   1      35.179  13.521  12.500  0.00  0.00     0.041 C 
BRANCH  16  18
HETATM   18  O   UNK N   1      37.498  13.463  12.035  0.00  0.00    -0.394 OA
HETATM   19  H   UNK N   1      38.059  12.906  11.472  0.00  0.00     0.210 HD
ENDBRANCH  16  18
ENDBRANCH  15  16
ENDBRANCH  13  15
ENDBRANCH   3  13
BRANCH   1  20
HETATM   20  C   UNK N   1      34.866  10.292  15.255  0.00  0.00    -0.023 A 
HETATM   21  C   UNK N   1      33.813  10.629  14.400  0.00  0.00     0.012 A 
HETATM   22  C   UNK N   1      33.738  10.152  13.088  0.00  0.00     0.001 A 
HETATM   23  C   UNK N   1      34.734   9.314  12.597  0.00  0.00     0.000 A 
HETATM   24  C   UNK N   1      35.798   8.963  13.422  0.00  0.00     0.001 A 
HETATM   25  C   UNK N   1      35.855   9.453  14.729  0.00  0.00     0.012 A 
ENDBRANCH   1  20
BRANCH  11  26
HETATM   26  C   UNK N   1      34.534   8.665  18.255  0.00  0.00    -0.009 A 
HETATM   27  C   UNK N   1      33.493   8.379  19.159  0.00  0.00     0.014 A 
HETATM   28  C   UNK N   1      33.200   7.064  19.535  0.00  0.00     0.001 A 
HETATM   29  C   UNK N   1      33.946   6.009  19.011  0.00  0.00     0.000 A 
HETATM   30  C   UNK N   1      34.979   6.272  18.113  0.00  0.00     0.001 A 
HETATM   31  C   UNK N   1      35.264   7.589  17.745  0.00  0.00     0.014 A 
ENDBRANCH  11  26
TORSDOF 6
ENDMDL
MODEL 6
REMARK VINA RESULT:      -6.9     12.108     13.771
REMARK  6 active torsions:
REMARK  status: ('A' for Active; 'I' for Inactive)
REMARK    1  A    between atoms: C_6  and  C_7 
REMARK    2  A    between atoms: C_9  and  N_10 
REMARK    3  A    between atoms: N_10  and  C_11 
REMARK    4  A    between atoms: C_11  and  C_12 
REMARK    5  A    between atoms: C_12  and  O_14 
REMARK    6  A    between atoms: C_22  and  C_23 
ROOT
HETATM    1  C   UNK N   1      27.719  23.586  -6.098  0.00  0.00     0.019 A 
HETATM    2  C   UNK N   1      27.318  22.556  -6.998  0.00  0.00     0.065 A 
HETATM    3  C   UNK N   1      27.944  21.482  -7.688  0.00  0.00     0.117 A 
HETATM    4  N   UNK N   1      27.179  20.699  -8.508  0.00  0.00    -0.338 N 
ATOM      5  HN  UNK N   1      27.620  19.930  -9.011  1.00  0.00     0.168 HD
HETATM    6  C   UNK N   1      25.843  20.919  -8.670  0.00  0.00     0.183 A 
HETATM    7  N   UNK N   1      25.238  21.948  -8.024  0.00  0.00    -0.338 N 
ATOM      8  HN  UNK N   1      24.241  22.122  -8.149  1.00  0.00     0.168 HD
HETATM    9  C   UNK N   1      25.977  22.740  -7.213  0.00  0.00     0.121 A 
HETATM   10  N   UNK N   1      25.492  23.788  -6.552  0.00  0.00    -0.340 N 
HETATM   11  C   UNK N   1      26.515  24.343  -5.862  0.00  0.00     0.056 A 
HETATM   12  H   UNK N   1      24.559  24.103  -6.563  0.00  0.00     0.167 HD
ENDROOT
BRANCH   3  13
HETATM   13  N   UNK N   1      29.327  21.225  -7.593  0.00  0.00    -0.373 N 
HETATM   14  H   UNK N   1      29.942  21.753  -8.151  0.00  0.00     0.161 HD
BRANCH  13  15
HETATM   15  C   UNK N   1      29.879  20.224  -6.714  0.00  0.00     0.152 C 
BRANCH  15  16
HETATM   16  C   UNK N   1      31.266  20.626  -6.231  0.00  0.00     0.132 C 
HETATM   17  C   UNK N   1      31.382  20.308  -4.755  0.00  0.00     0.041 C 
BRANCH  16  18
HETATM   18  O   UNK N   1      32.248  19.915  -6.922  0.00  0.00    -0.394 OA
HETATM   19  H   UNK N   1      32.134  18.968  -7.097  0.00  0.00     0.210 HD
ENDBRANCH  16  18
ENDBRANCH  15  16
ENDBRANCH  13  15
ENDBRANCH   3  13
BRANCH   1  20
HETATM   20  C   UNK N   1      29.113  23.810  -5.534  0.00  0.00    -0.023 A 
HETATM   21  C   UNK N   1      30.144  24.363  -6.301  0.00  0.00     0.012 A 
HETATM   22  C   UNK N   1      31.423  24.579  -5.781  0.00  0.00     0.001 A 
HETATM   23  C   UNK N   1      31.701  24.241  -4.460  0.00  0.00     0.000 A 
HETATM   24  C   UNK N   1      30.696  23.691  -3.671  0.00  0.00     0.001 A 
HETATM   25  C   UNK N   1      29.424  23.486  -4.209  0.00  0.00     0.012 A 
ENDBRANCH   1  20
BRANCH  11  26
HETATM   26  C   UNK N   1      26.211  25.570  -5.049  0.00  0.00    -0.009 A 
HETATM   27  C   UNK N   1      25.481  26.604  -5.667  0.00  0.00     0.014 A 
HETATM   28  C   UNK N   1      25.174  27.784  -4.983  0.00  0.00     0.001 A 
HETATM   29  C   UNK N   1      25.595  27.953  -3.664  0.00  0.00     0.000 A 
HETATM   30  C   UNK N   1      26.317  26.940  -3.035  0.00  0.00     0.001 A 
HETATM   31  C   UNK N   1      26.620  25.765  -3.728  0.00  0.00     0.014 A 
ENDBRANCH  11  26
TORSDOF 6
ENDMDL
MODEL 7
REMARK VINA RESULT:      -6.9      2.362      6.519
REMARK  6 active torsions:
REMARK  status: ('A' for Active; 'I' for Inactive)
REMARK    1  A    between atoms: C_6  and  C_7 
REMARK    2  A    between atoms: C_9  and  N_10 
REMARK    3  A    between atoms: N_10  and  C_11 
REMARK    4  A    between atoms: C_11  and  C_12 
REMARK    5  A    between atoms: C_12  and  O_14 
REMARK    6  A    between atoms: C_22  and  C_23 
ROOT
HETATM    1  C   UNK N   1      31.307  16.659   7.098  0.00  0.00     0.019 A 
HETATM    2  C   UNK N   1      30.077  17.282   7.462  0.00  0.00     0.065 A 
HETATM    3  C   UNK N   1      28.987  17.894   6.787  0.00  0.00     0.117 A 
HETATM    4  N   UNK N   1      27.963  18.410   7.533  0.00  0.00    -0.338 N 
ATOM      5  HN  UNK N   1      27.179  18.855   7.058  1.00  0.00     0.168 HD
HETATM    6  C   UNK N   1      27.963  18.343   8.895  0.00  0.00     0.183 A 
HETATM    7  N   UNK N   1      29.004  17.770   9.550  0.00  0.00    -0.338 N 
ATOM      8  HN  UNK N   1      29.013  17.726  10.569  1.00  0.00     0.168 HD
HETATM    9  C   UNK N   1      30.031  17.259   8.832  0.00  0.00     0.121 A 
HETATM   10  N   UNK N   1      31.111  16.699   9.371  0.00  0.00    -0.340 N 
HETATM   11  C   UNK N   1      31.923  16.322   8.357  0.00  0.00     0.056 A 
HETATM   12  H   UNK N   1      31.287  16.580  10.333  0.00  0.00     0.167 HD
ENDROOT
BRANCH   3  13
HETATM   13  N   UNK N   1      28.945  18.029   5.384  0.00  0.00    -0.373 N 
HETATM   14  H   UNK N   1      29.793  18.143   4.898  0.00  0.00     0.161 HD
BRANCH  13  15
HETATM   15  C   UNK N   1      27.715  18.004   4.632  0.00  0.00     0.152 C 
BRANCH  15  16
HETATM   16  C   UNK N   1      27.622  16.746   3.779  0.00  0.00     0.132 C 
HETATM   17  C   UNK N   1      28.951  16.519   3.091  0.00  0.00     0.041 C 
BRANCH  16  18
HETATM   18  O   UNK N   1      27.335  15.637   4.577  0.00  0.00    -0.394 OA
HETATM   19  H   UNK N   1      26.497  15.159   4.468  0.00  0.00     0.210 HD
ENDBRANCH  16  18
ENDBRANCH  15  16
ENDBRANCH  13  15
ENDBRANCH   3  13
BRANCH   1  20
HETATM   20  C   UNK N   1      31.824  16.421   5.688  0.00  0.00    -0.023 A 
HETATM   21  C   UNK N   1      31.785  15.161   5.086  0.00  0.00     0.012 A 
HETATM   22  C   UNK N   1      32.251  14.943   3.786  0.00  0.00     0.001 A 
HETATM   23  C   UNK N   1      32.773  16.003   3.050  0.00  0.00     0.000 A 
HETATM   24  C   UNK N   1      32.822  17.271   3.621  0.00  0.00     0.001 A 
HETATM   25  C   UNK N   1      32.349  17.467   4.921  0.00  0.00     0.012 A 
ENDBRANCH   1  20
BRANCH  11  26
HETATM   26  C   UNK N   1      33.230  15.678   8.726  0.00  0.00    -0.009 A 
HETATM   27  C   UNK N   1      33.407  14.318   8.406  0.00  0.00     0.014 A 
HETATM   28  C   UNK N   1      34.587  13.643   8.733  0.00  0.00     0.001 A 
HETATM   29  C   UNK N   1      35.615  14.320   9.389  0.00  0.00     0.000 A 
HETATM   30  C   UNK N   1      35.460  15.666   9.713  0.00  0.00     0.001 A 
HETATM   31  C   UNK N   1      34.276  16.331   9.383  0.00  0.00     0.014 A 
ENDBRANCH  11  26
TORSDOF 6
ENDMDL
MODEL 8
REMARK VINA RESULT:      -6.8     11.820     14.154
REMARK  6 active torsions:
REMARK  status: ('A' for Active; 'I' for Inactive)
REMARK    1  A    between atoms: C_6  and  C_7 
REMARK    2  A    between atoms: C_9  and  N_10 
REMARK    3  A    between atoms: N_10  and  C_11 
REMARK    4  A    between atoms: C_11  and  C_12 
REMARK    5  A    between atoms: C_12  and  O_14 
REMARK    6  A    between atoms: C_22  and  C_23 
ROOT
HETATM    1  C   UNK N   1      27.524  24.264  -5.917  0.00  0.00     0.019 A 
HETATM    2  C   UNK N   1      27.001  23.327  -6.856  0.00  0.00     0.065 A 
HETATM    3  C   UNK N   1      27.391  22.071  -7.392  0.00  0.00     0.117 A 
HETATM    4  N   UNK N   1      26.585  21.480  -8.327  0.00  0.00    -0.338 N 
ATOM      5  HN  UNK N   1      26.860  20.581  -8.721  1.00  0.00     0.168 HD
HETATM    6  C   UNK N   1      25.426  22.062  -8.745  0.00  0.00     0.183 A 
HETATM    7  N   UNK N   1      25.049  23.267  -8.247  0.00  0.00    -0.338 N 
ATOM      8  HN  UNK N   1      24.187  23.710  -8.563  1.00  0.00     0.168 HD
HETATM    9  C   UNK N   1      25.835  23.872  -7.326  0.00  0.00     0.121 A 
HETATM   10  N   UNK N   1      25.574  25.063  -6.792  0.00  0.00    -0.340 N 
HETATM   11  C   UNK N   1      26.577  25.351  -5.931  0.00  0.00     0.056 A 
HETATM   12  H   UNK N   1      24.793  25.630  -6.986  0.00  0.00     0.167 HD
ENDROOT
BRANCH   3  13
HETATM   13  N   UNK N   1      28.597  21.435  -7.030  0.00  0.00    -0.373 N 
HETATM   14  H   UNK N   1      28.621  20.915  -6.195  0.00  0.00     0.161 HD
BRANCH  13  15
HETATM   15  C   UNK N   1      29.793  21.511  -7.831  0.00  0.00     0.152 C 
BRANCH  15  16
HETATM   16  C   UNK N   1      31.005  21.017  -7.051  0.00  0.00     0.132 C 
HETATM   17  C   UNK N   1      30.582  20.715  -5.629  0.00  0.00     0.041 C 
BRANCH  16  18
HETATM   18  O   UNK N   1      31.512  19.851  -7.626  0.00  0.00    -0.394 OA
HETATM   19  H   UNK N   1      31.656  19.801  -8.585  0.00  0.00     0.210 HD
ENDBRANCH  16  18
ENDBRANCH  15  16
ENDBRANCH  13  15
ENDBRANCH   3  13
BRANCH   1  20
HETATM   20  C   UNK N   1      28.800  24.120  -5.103  0.00  0.00    -0.023 A 
HETATM   21  C   UNK N   1      28.799  23.593  -3.809  0.00  0.00     0.012 A 
HETATM   22  C   UNK N   1      29.973  23.451  -3.063  0.00  0.00     0.001 A 
HETATM   23  C   UNK N   1      31.193  23.839  -3.609  0.00  0.00     0.000 A 
HETATM   24  C   UNK N   1      31.227  24.364  -4.897  0.00  0.00     0.001 A 
HETATM   25  C   UNK N   1      30.043  24.496  -5.626  0.00  0.00     0.012 A 
ENDBRANCH   1  20
BRANCH  11  26
HETATM   26  C   UNK N   1      26.512  26.672  -5.216  0.00  0.00    -0.009 A 
HETATM   27  C   UNK N   1      26.082  26.673  -3.875  0.00  0.00     0.014 A 
HETATM   28  C   UNK N   1      25.978  27.862  -3.148  0.00  0.00     0.001 A 
HETATM   29  C   UNK N   1      26.301  29.077  -3.752  0.00  0.00     0.000 A 
HETATM   30  C   UNK N   1      26.729  29.096  -5.079  0.00  0.00     0.001 A 
HETATM   31  C   UNK N   1      26.829  27.902  -5.797  0.00  0.00     0.014 A 
ENDBRANCH  11  26
TORSDOF 6
ENDMDL
MODEL 9
REMARK VINA RESULT:      -6.7      3.076      4.936
REMARK  6 active torsions:
REMARK  status: ('A' for Active; 'I' for Inactive)
REMARK    1  A    between atoms: C_6  and  C_7 
REMARK    2  A    between atoms: C_9  and  N_10 
REMARK    3  A    between atoms: N_10  and  C_11 
REMARK    4  A    between atoms: C_11  and  C_12 
REMARK    5  A    between atoms: C_12  and  O_14 
REMARK    6  A    between atoms: C_22  and  C_23 
ROOT
HETATM    1  C   UNK N   1      32.442  15.840   7.330  0.00  0.00     0.019 A 
HETATM    2  C   UNK N   1      33.323  15.102   8.174  0.00  0.00     0.065 A 
HETATM    3  C   UNK N   1      34.459  14.266   8.005  0.00  0.00     0.117 A 
HETATM    4  N   UNK N   1      35.031  13.708   9.116  0.00  0.00    -0.338 N 
ATOM      5  HN  UNK N   1      35.844  13.103   9.004  1.00  0.00     0.168 HD
HETATM    6  C   UNK N   1      34.543  13.941  10.367  0.00  0.00     0.183 A 
HETATM    7  N   UNK N   1      33.451  14.729  10.538  0.00  0.00    -0.338 N 
ATOM      8  HN  UNK N   1      33.077  14.898  11.472  1.00  0.00     0.168 HD
HETATM    9  C   UNK N   1      32.866  15.285   9.452  0.00  0.00     0.121 A 
HETATM   10  N   UNK N   1      31.780  16.052   9.503  0.00  0.00    -0.340 N 
HETATM   11  C   UNK N   1      31.476  16.411   8.235  0.00  0.00     0.056 A 
HETATM   12  H   UNK N   1      31.287  16.312  10.315  0.00  0.00     0.167 HD
ENDROOT
BRANCH   3  13
HETATM   13  N   UNK N   1      34.989  13.956   6.735  0.00  0.00    -0.373 N 
HETATM   14  H   UNK N   1      34.588  13.214   6.228  0.00  0.00     0.161 HD
BRANCH  13  15
HETATM   15  C   UNK N   1      36.091  14.677   6.149  0.00  0.00     0.152 C 
BRANCH  15  16
HETATM   16  C   UNK N   1      37.379  13.869   6.231  0.00  0.00     0.132 C 
HETATM   17  C   UNK N   1      38.443  14.556   5.401  0.00  0.00     0.041 C 
BRANCH  16  18
HETATM   18  O   UNK N   1      37.822  13.790   7.552  0.00  0.00    -0.394 OA
HETATM   19  H   UNK N   1      38.344  14.512   7.937  0.00  0.00     0.210 HD
ENDBRANCH  16  18
ENDBRANCH  15  16
ENDBRANCH  13  15
ENDBRANCH   3  13
BRANCH   1  20
HETATM   20  C   UNK N   1      32.528  15.972   5.818  0.00  0.00    -0.023 A 
HETATM   21  C   UNK N   1      33.020  17.126   5.200  0.00  0.00     0.012 A 
HETATM   22  C   UNK N   1      33.109  17.245   3.810  0.00  0.00     0.001 A 
HETATM   23  C   UNK N   1      32.703  16.191   2.997  0.00  0.00     0.000 A 
HETATM   24  C   UNK N   1      32.212  15.028   3.581  0.00  0.00     0.001 A 
HETATM   25  C   UNK N   1      32.133  14.930   4.972  0.00  0.00     0.012 A 
ENDBRANCH   1  20
BRANCH  11  26
HETATM   26  C   UNK N   1      30.259  17.271   8.036  0.00  0.00    -0.009 A 
HETATM   27  C   UNK N   1      29.690  17.879   9.172  0.00  0.00     0.014 A 
HETATM   28  C   UNK N   1      28.547  18.677   9.072  0.00  0.00     0.001 A 
HETATM   29  C   UNK N   1      27.949  18.882   7.829  0.00  0.00     0.000 A 
HETATM   30  C   UNK N   1      28.497  18.290   6.692  0.00  0.00     0.001 A 
HETATM   31  C   UNK N   1      29.639  17.492   6.804  0.00  0.00     0.014 A 
ENDBRANCH  11  26
TORSDOF 6
ENDMDL
