MODEL 1
REMARK VINA RESULT:      -8.0      0.000      0.000
REMARK  8 active torsions:
REMARK  status: ('A' for Active; 'I' for Inactive)
REMARK    1  A    between atoms: C_2  and  C_3 
REMARK    2  A    between atoms: C_15  and  O_18 
REMARK    3  A    between atoms: C_15  and  C_27 
REMARK    4  A    between atoms: N_19  and  C_20 
REMARK    5  A    between atoms: N_19  and  C_28 
REMARK    6  A    between atoms: C_25  and  C_26 
REMARK    7  A    between atoms: C_27  and  C_28 
REMARK    8  A    between atoms: C_27  and  O_29 
ROOT
HETATM    1  C   UNK N   1      29.662  17.988  10.136  0.00  0.00     0.183 A 
HETATM    2  C   UNK N   1      27.810  18.589   6.119  0.00  0.00     0.056 A 
HETATM    3  N   UNK N   1      28.583  18.535   9.504  0.00  0.00    -0.338 N 
ATOM      4  HN  UNK N   1      27.856  19.013  10.036  1.00  0.00     0.168 HD
HETATM    5  C   UNK N   1      28.497  18.430   8.156  0.00  0.00     0.121 A 
HETATM    6  C   UNK N   1      29.450  17.803   7.408  0.00  0.00     0.065 A 
HETATM    7  C   UNK N   1      30.543  17.218   8.057  0.00  0.00     0.117 A 
HETATM    8  N   UNK N   1      30.627  17.331   9.418  0.00  0.00    -0.338 N 
ATOM      9  HN  UNK N   1      31.421  16.920   9.906  1.00  0.00     0.168 HD
HETATM   10  N   UNK N   1      27.495  18.907   7.401  0.00  0.00    -0.340 N 
HETATM   11  C   UNK N   1      29.036  17.886   6.080  0.00  0.00     0.019 A 
HETATM   12  H   UNK N   1      26.694  19.387   7.713  0.00  0.00     0.167 HD
ENDROOT
BRANCH   7  13
HETATM   13  N   UNK N   1      31.521  16.503   7.333  0.00  0.00    -0.373 N 
HETATM   14  H   UNK N   1      31.251  16.054   6.500  0.00  0.00     0.161 HD
BRANCH  13  15
HETATM   15  C   UNK N   1      32.894  16.399   7.751  0.00  0.00     0.155 C 
BRANCH  15  16
HETATM   16  C   UNK N   1      33.580  17.746   7.550  0.00  0.00     0.159 C 
BRANCH  16  17
HETATM   17  C   UNK N   1      34.643  17.974   8.610  0.00  0.00     0.197 C 
BRANCH  17  18
HETATM   18  O   UNK N   1      35.250  19.220   8.438  0.00  0.00    -0.398 OA
HETATM   19  H   UNK N   1      35.836  19.912   8.785  0.00  0.00     0.209 HD
ENDBRANCH  17  18
ENDBRANCH  16  17
BRANCH  16  20
HETATM   20  O   UNK N   1      34.171  17.806   6.285  0.00  0.00    -0.392 OA
HETATM   21  H   UNK N   1      34.627  18.610   5.992  0.00  0.00     0.210 HD
ENDBRANCH  16  20
ENDBRANCH  15  16
ENDBRANCH  13  15
ENDBRANCH   7  13
BRANCH  11  22
HETATM   22  C   UNK N   1      29.735  17.333   4.887  0.00  0.00    -0.023 A 
HETATM   23  C   UNK N   1      31.030  17.760   4.559  0.00  0.00     0.012 A 
HETATM   24  C   UNK N   1      31.691  17.247   3.439  0.00  0.00     0.001 A 
HETATM   25  C   UNK N   1      31.062  16.296   2.636  0.00  0.00     0.000 A 
HETATM   26  C   UNK N   1      29.772  15.865   2.948  0.00  0.00     0.001 A 
HETATM   27  C   UNK N   1      29.111  16.387   4.064  0.00  0.00     0.012 A 
ENDBRANCH  11  22
BRANCH   2  28
HETATM   28  C   UNK N   1      26.968  19.046   4.982  0.00  0.00    -0.009 A 
HETATM   29  C   UNK N   1      25.761  18.387   4.701  0.00  0.00     0.014 A 
HETATM   30  C   UNK N   1      24.943  18.819   3.652  0.00  0.00     0.001 A 
HETATM   31  C   UNK N   1      25.314  19.927   2.885  0.00  0.00     0.000 A 
HETATM   32  C   UNK N   1      26.497  20.606   3.172  0.00  0.00     0.001 A 
HETATM   33  C   UNK N   1      27.313  20.168   4.215  0.00  0.00     0.014 A 
ENDBRANCH   2  28
TORSDOF 8
ENDMDL
MODEL 2
REMARK VINA RESULT:      -7.8      1.822      2.493
REMARK  8 active torsions:
REMARK  status: ('A' for Active; 'I' for Inactive)
REMARK    1  A    between atoms: C_2  and  C_3 
REMARK    2  A    between atoms: C_15  and  O_18 
REMARK    3  A    between atoms: C_15  and  C_27 
REMARK    4  A    between atoms: N_19  and  C_20 
REMARK    5  A    between atoms: N_19  and  C_28 
REMARK    6  A    between atoms: C_25  and  C_26 
REMARK    7  A    between atoms: C_27  and  C_28 
REMARK    8  A    between atoms: C_27  and  O_29 
ROOT
HETATM    1  C   UNK N   1      29.039  18.281   9.938  0.00  0.00     0.183 A 
HETATM    2  C   UNK N   1      28.284  16.705   5.830  0.00  0.00     0.056 A 
HETATM    3  N   UNK N   1      28.045  17.918   9.075  0.00  0.00    -0.338 N 
ATOM      4  HN  UNK N   1      27.066  17.984   9.352  1.00  0.00     0.168 HD
HETATM    5  C   UNK N   1      28.387  17.469   7.843  0.00  0.00     0.121 A 
HETATM    6  C   UNK N   1      29.684  17.370   7.434  0.00  0.00     0.065 A 
HETATM    7  C   UNK N   1      30.704  17.716   8.326  0.00  0.00     0.117 A 
HETATM    8  N   UNK N   1      30.353  18.174   9.567  0.00  0.00    -0.338 N 
ATOM      9  HN  UNK N   1      31.083  18.440  10.227  1.00  0.00     0.168 HD
HETATM   10  N   UNK N   1      27.525  17.067   6.896  0.00  0.00    -0.340 N 
HETATM   11  C   UNK N   1      29.655  16.876   6.131  0.00  0.00     0.019 A 
HETATM   12  H   UNK N   1      26.543  17.039   6.960  0.00  0.00     0.167 HD
ENDROOT
BRANCH   7  13
HETATM   13  N   UNK N   1      32.062  17.570   7.971  0.00  0.00    -0.373 N 
HETATM   14  H   UNK N   1      32.444  18.199   7.316  0.00  0.00     0.161 HD
BRANCH  13  15
HETATM   15  C   UNK N   1      32.916  16.550   8.518  0.00  0.00     0.155 C 
BRANCH  15  16
HETATM   16  C   UNK N   1      34.309  17.130   8.734  0.00  0.00     0.159 C 
BRANCH  16  17
HETATM   17  C   UNK N   1      34.447  18.475   8.042  0.00  0.00     0.197 C 
BRANCH  17  18
HETATM   18  O   UNK N   1      35.413  19.259   8.678  0.00  0.00    -0.398 OA
HETATM   19  H   UNK N   1      35.670  20.117   9.052  0.00  0.00     0.209 HD
ENDBRANCH  17  18
ENDBRANCH  16  17
BRANCH  16  20
HETATM   20  O   UNK N   1      34.564  17.286  10.099  0.00  0.00    -0.392 OA
HETATM   21  H   UNK N   1      34.006  17.866  10.641  0.00  0.00     0.210 HD
ENDBRANCH  16  20
ENDBRANCH  15  16
ENDBRANCH  13  15
ENDBRANCH   7  13
BRANCH  11  22
HETATM   22  C   UNK N   1      30.826  16.580   5.259  0.00  0.00    -0.023 A 
HETATM   23  C   UNK N   1      31.434  15.316   5.287  0.00  0.00     0.012 A 
HETATM   24  C   UNK N   1      32.534  15.033   4.474  0.00  0.00     0.001 A 
HETATM   25  C   UNK N   1      33.037  16.012   3.617  0.00  0.00     0.000 A 
HETATM   26  C   UNK N   1      32.444  17.275   3.581  0.00  0.00     0.001 A 
HETATM   27  C   UNK N   1      31.349  17.558   4.403  0.00  0.00     0.012 A 
ENDBRANCH  11  22
BRANCH   2  28
HETATM   28  C   UNK N   1      27.662  16.294   4.543  0.00  0.00    -0.009 A 
HETATM   29  C   UNK N   1      28.102  15.125   3.902  0.00  0.00     0.014 A 
HETATM   30  C   UNK N   1      27.511  14.708   2.705  0.00  0.00     0.001 A 
HETATM   31  C   UNK N   1      26.462  15.444   2.147  0.00  0.00     0.000 A 
HETATM   32  C   UNK N   1      26.000  16.592   2.789  0.00  0.00     0.001 A 
HETATM   33  C   UNK N   1      26.596  17.008   3.980  0.00  0.00     0.014 A 
ENDBRANCH   2  28
TORSDOF 8
ENDMDL
MODEL 3
REMARK VINA RESULT:      -7.2      6.621      9.799
REMARK  8 active torsions:
REMARK  status: ('A' for Active; 'I' for Inactive)
REMARK    1  A    between atoms: C_2  and  C_3 
REMARK    2  A    between atoms: C_15  and  O_18 
REMARK    3  A    between atoms: C_15  and  C_27 
REMARK    4  A    between atoms: N_19  and  C_20 
REMARK    5  A    between atoms: N_19  and  C_28 
REMARK    6  A    between atoms: C_25  and  C_26 
REMARK    7  A    between atoms: C_27  and  C_28 
REMARK    8  A    between atoms: C_27  and  O_29 
ROOT
HETATM    1  C   UNK N   1      20.087  20.773   2.017  0.00  0.00     0.183 A 
HETATM    2  C   UNK N   1      24.028  19.482   3.669  0.00  0.00     0.056 A 
HETATM    3  N   UNK N   1      21.384  21.167   2.176  0.00  0.00    -0.338 N 
ATOM      4  HN  UNK N   1      21.698  22.074   1.831  1.00  0.00     0.168 HD
HETATM    5  C   UNK N   1      22.246  20.329   2.800  0.00  0.00     0.121 A 
HETATM    6  C   UNK N   1      21.865  19.110   3.278  0.00  0.00     0.065 A 
HETATM    7  C   UNK N   1      20.542  18.693   3.092  0.00  0.00     0.117 A 
HETATM    8  N   UNK N   1      19.675  19.545   2.466  0.00  0.00    -0.338 N 
ATOM      9  HN  UNK N   1      18.705  19.262   2.330  1.00  0.00     0.168 HD
HETATM   10  N   UNK N   1      23.548  20.573   3.019  0.00  0.00    -0.340 N 
HETATM   11  C   UNK N   1      22.997  18.531   3.849  0.00  0.00     0.019 A 
HETATM   12  H   UNK N   1      24.052  21.377   2.759  0.00  0.00     0.167 HD
ENDROOT
BRANCH   7  13
HETATM   13  N   UNK N   1      20.117  17.414   3.512  0.00  0.00    -0.373 N 
HETATM   14  H   UNK N   1      19.834  17.300   4.449  0.00  0.00     0.161 HD
BRANCH  13  15
HETATM   15  C   UNK N   1      20.073  16.271   2.641  0.00  0.00     0.155 C 
BRANCH  15  16
HETATM   16  C   UNK N   1      19.822  15.019   3.473  0.00  0.00     0.159 C 
BRANCH  16  17
HETATM   17  C   UNK N   1      19.424  15.385   4.892  0.00  0.00     0.197 C 
BRANCH  17  18
HETATM   18  O   UNK N   1      18.097  15.820   4.934  0.00  0.00    -0.398 OA
HETATM   19  H   UNK N   1      17.210  15.813   4.541  0.00  0.00     0.209 HD
ENDBRANCH  17  18
ENDBRANCH  16  17
BRANCH  16  20
HETATM   20  O   UNK N   1      18.811  14.247   2.896  0.00  0.00    -0.392 OA
HETATM   21  H   UNK N   1      17.921  14.235   3.280  0.00  0.00     0.210 HD
ENDBRANCH  16  20
ENDBRANCH  15  16
ENDBRANCH  13  15
ENDBRANCH   7  13
BRANCH  11  22
HETATM   22  C   UNK N   1      23.093  17.191   4.491  0.00  0.00    -0.023 A 
HETATM   23  C   UNK N   1      23.526  16.078   3.755  0.00  0.00     0.012 A 
HETATM   24  C   UNK N   1      23.615  14.817   4.351  0.00  0.00     0.001 A 
HETATM   25  C   UNK N   1      23.274  14.656   5.694  0.00  0.00     0.000 A 
HETATM   26  C   UNK N   1      22.838  15.754   6.437  0.00  0.00     0.001 A 
HETATM   27  C   UNK N   1      22.742  17.012   5.835  0.00  0.00     0.012 A 
ENDBRANCH  11  22
BRANCH   2  28
HETATM   28  C   UNK N   1      25.429  19.435   4.166  0.00  0.00    -0.009 A 
HETATM   29  C   UNK N   1      26.312  18.467   3.664  0.00  0.00     0.014 A 
HETATM   30  C   UNK N   1      27.640  18.423   4.100  0.00  0.00     0.001 A 
HETATM   31  C   UNK N   1      28.105  19.360   5.028  0.00  0.00     0.000 A 
HETATM   32  C   UNK N   1      27.243  20.342   5.513  0.00  0.00     0.001 A 
HETATM   33  C   UNK N   1      25.917  20.379   5.081  0.00  0.00     0.014 A 
ENDBRANCH   2  28
TORSDOF 8
ENDMDL
MODEL 4
REMARK VINA RESULT:      -7.1      2.724      6.543
REMARK  8 active torsions:
REMARK  status: ('A' for Active; 'I' for Inactive)
REMARK    1  A    between atoms: C_2  and  C_3 
REMARK    2  A    between atoms: C_15  and  O_18 
REMARK    3  A    between atoms: C_15  and  C_27 
REMARK    4  A    between atoms: N_19  and  C_20 
REMARK    5  A    between atoms: N_19  and  C_28 
REMARK    6  A    between atoms: C_25  and  C_26 
REMARK    7  A    between atoms: C_27  and  C_28 
REMARK    8  A    between atoms: C_27  and  O_29 
ROOT
HETATM    1  C   UNK N   1      27.979  18.271   9.055  0.00  0.00     0.183 A 
HETATM    2  C   UNK N   1      31.879  16.248   8.267  0.00  0.00     0.056 A 
HETATM    3  N   UNK N   1      29.038  17.669   9.670  0.00  0.00    -0.338 N 
ATOM      4  HN  UNK N   1      29.072  17.588  10.686  1.00  0.00     0.168 HD
HETATM    5  C   UNK N   1      30.044  17.182   8.903  0.00  0.00     0.121 A 
HETATM    6  C   UNK N   1      30.034  17.268   7.542  0.00  0.00     0.065 A 
HETATM    7  C   UNK N   1      28.961  17.908   6.912  0.00  0.00     0.117 A 
HETATM    8  N   UNK N   1      27.947  18.394   7.691  0.00  0.00    -0.338 N 
ATOM      9  HN  UNK N   1      27.153  18.855   7.248  1.00  0.00     0.168 HD
HETATM   10  N   UNK N   1      31.150  16.577   9.364  0.00  0.00    -0.340 N 
HETATM   11  C   UNK N   1      31.211  16.672   7.095  0.00  0.00     0.019 A 
HETATM   12  H   UNK N   1      31.385  16.408  10.304  0.00  0.00     0.167 HD
ENDROOT
BRANCH   7  13
HETATM   13  N   UNK N   1      28.937  18.078   5.511  0.00  0.00    -0.373 N 
HETATM   14  H   UNK N   1      29.624  18.649   5.097  0.00  0.00     0.161 HD
BRANCH  13  15
HETATM   15  C   UNK N   1      27.959  17.456   4.657  0.00  0.00     0.155 C 
BRANCH  15  16
HETATM   16  C   UNK N   1      27.187  18.539   3.913  0.00  0.00     0.159 C 
BRANCH  16  17
HETATM   17  C   UNK N   1      25.927  18.920   4.671  0.00  0.00     0.197 C 
BRANCH  17  18
HETATM   18  O   UNK N   1      25.668  17.999   5.689  0.00  0.00    -0.398 OA
HETATM   19  H   UNK N   1      25.950  17.220   6.194  0.00  0.00     0.209 HD
ENDBRANCH  17  18
ENDBRANCH  16  17
BRANCH  16  20
HETATM   20  O   UNK N   1      27.984  19.675   3.745  0.00  0.00    -0.392 OA
HETATM   21  H   UNK N   1      28.920  19.588   3.508  0.00  0.00     0.210 HD
ENDBRANCH  16  20
ENDBRANCH  15  16
ENDBRANCH  13  15
ENDBRANCH   7  13
BRANCH  11  22
HETATM   22  C   UNK N   1      31.666  16.533   5.683  0.00  0.00    -0.023 A 
HETATM   23  C   UNK N   1      32.514  17.492   5.111  0.00  0.00     0.012 A 
HETATM   24  C   UNK N   1      32.942  17.369   3.786  0.00  0.00     0.001 A 
HETATM   25  C   UNK N   1      32.528  16.280   3.019  0.00  0.00     0.000 A 
HETATM   26  C   UNK N   1      31.681  15.320   3.575  0.00  0.00     0.001 A 
HETATM   27  C   UNK N   1      31.248  15.451   4.898  0.00  0.00     0.012 A 
ENDBRANCH  11  22
BRANCH   2  28
HETATM   28  C   UNK N   1      33.140  15.468   8.384  0.00  0.00    -0.009 A 
HETATM   29  C   UNK N   1      34.241  16.023   9.054  0.00  0.00     0.014 A 
HETATM   30  C   UNK N   1      35.426  15.294   9.198  0.00  0.00     0.001 A 
HETATM   31  C   UNK N   1      35.516  13.995   8.690  0.00  0.00     0.000 A 
HETATM   32  C   UNK N   1      34.419  13.424   8.045  0.00  0.00     0.001 A 
HETATM   33  C   UNK N   1      33.241  14.156   7.899  0.00  0.00     0.014 A 
ENDBRANCH   2  28
TORSDOF 8
ENDMDL
MODEL 5
REMARK VINA RESULT:      -6.8      2.970      5.166
REMARK  8 active torsions:
REMARK  status: ('A' for Active; 'I' for Inactive)
REMARK    1  A    between atoms: C_2  and  C_3 
REMARK    2  A    between atoms: C_15  and  O_18 
REMARK    3  A    between atoms: C_15  and  C_27 
REMARK    4  A    between atoms: N_19  and  C_20 
REMARK    5  A    between atoms: N_19  and  C_28 
REMARK    6  A    between atoms: C_25  and  C_26 
REMARK    7  A    between atoms: C_27  and  C_28 
REMARK    8  A    between atoms: C_27  and  O_29 
ROOT
HETATM    1  C   UNK N   1      28.539  14.611   1.917  0.00  0.00     0.183 A 
HETATM    2  C   UNK N   1      25.228  16.907   3.838  0.00  0.00     0.056 A 
HETATM    3  N   UNK N   1      27.183  14.655   2.059  0.00  0.00    -0.338 N 
ATOM      4  HN  UNK N   1      26.590  13.959   1.606  1.00  0.00     0.168 HD
HETATM    5  C   UNK N   1      26.639  15.640   2.814  0.00  0.00     0.121 A 
HETATM    6  C   UNK N   1      27.398  16.586   3.438  0.00  0.00     0.065 A 
HETATM    7  C   UNK N   1      28.787  16.559   3.271  0.00  0.00     0.117 A 
HETATM    8  N   UNK N   1      29.330  15.559   2.512  0.00  0.00    -0.338 N 
ATOM      9  HN  UNK N   1      30.341  15.518   2.388  1.00  0.00     0.168 HD
HETATM   10  N   UNK N   1      25.328  15.817   3.035  0.00  0.00    -0.340 N 
HETATM   11  C   UNK N   1      26.514  17.427   4.112  0.00  0.00     0.019 A 
HETATM   12  H   UNK N   1      24.588  15.270   2.685  0.00  0.00     0.167 HD
ENDROOT
BRANCH   7  13
HETATM   13  N   UNK N   1      29.608  17.553   3.845  0.00  0.00    -0.373 N 
HETATM   14  H   UNK N   1      29.410  18.497   3.643  0.00  0.00     0.161 HD
BRANCH  13  15
HETATM   15  C   UNK N   1      30.718  17.258   4.711  0.00  0.00     0.155 C 
BRANCH  15  16
HETATM   16  C   UNK N   1      32.012  17.676   4.023  0.00  0.00     0.159 C 
BRANCH  16  17
HETATM   17  C   UNK N   1      33.214  17.044   4.703  0.00  0.00     0.197 C 
BRANCH  17  18
HETATM   18  O   UNK N   1      33.723  17.891   5.691  0.00  0.00    -0.398 OA
HETATM   19  H   UNK N   1      34.133  17.994   6.564  0.00  0.00     0.209 HD
ENDBRANCH  17  18
ENDBRANCH  16  17
BRANCH  16  20
HETATM   20  O   UNK N   1      31.991  17.298   2.679  0.00  0.00    -0.392 OA
HETATM   21  H   UNK N   1      32.241  16.398   2.417  0.00  0.00     0.210 HD
ENDBRANCH  16  20
ENDBRANCH  15  16
ENDBRANCH  13  15
ENDBRANCH   7  13
BRANCH  11  22
HETATM   22  C   UNK N   1      26.861  18.623   4.929  0.00  0.00    -0.023 A 
HETATM   23  C   UNK N   1      26.651  19.915   4.425  0.00  0.00     0.012 A 
HETATM   24  C   UNK N   1      26.977  21.041   5.185  0.00  0.00     0.001 A 
HETATM   25  C   UNK N   1      27.514  20.886   6.463  0.00  0.00     0.000 A 
HETATM   26  C   UNK N   1      27.731  19.607   6.976  0.00  0.00     0.001 A 
HETATM   27  C   UNK N   1      27.412  18.482   6.209  0.00  0.00     0.012 A 
ENDBRANCH  11  22
BRANCH   2  28
HETATM   28  C   UNK N   1      23.915  17.351   4.377  0.00  0.00    -0.009 A 
HETATM   29  C   UNK N   1      23.381  16.721   5.511  0.00  0.00     0.014 A 
HETATM   30  C   UNK N   1      22.160  17.142   6.049  0.00  0.00     0.001 A 
HETATM   31  C   UNK N   1      21.470  18.211   5.469  0.00  0.00     0.000 A 
HETATM   32  C   UNK N   1      22.005  18.861   4.358  0.00  0.00     0.001 A 
HETATM   33  C   UNK N   1      23.220  18.434   3.821  0.00  0.00     0.014 A 
ENDBRANCH   2  28
TORSDOF 8
ENDMDL
MODEL 6
REMARK VINA RESULT:      -6.8      6.284      9.544
REMARK  8 active torsions:
REMARK  status: ('A' for Active; 'I' for Inactive)
REMARK    1  A    between atoms: C_2  and  C_3 
REMARK    2  A    between atoms: C_15  and  O_18 
REMARK    3  A    between atoms: C_15  and  C_27 
REMARK    4  A    between atoms: N_19  and  C_20 
REMARK    5  A    between atoms: N_19  and  C_28 
REMARK    6  A    between atoms: C_25  and  C_26 
REMARK    7  A    between atoms: C_27  and  C_28 
REMARK    8  A    between atoms: C_27  and  O_29 
ROOT
HETATM    1  C   UNK N   1      20.329  20.513   1.938  0.00  0.00     0.183 A 
HETATM    2  C   UNK N   1      24.320  19.758   3.789  0.00  0.00     0.056 A 
HETATM    3  N   UNK N   1      21.513  21.112   2.257  0.00  0.00    -0.338 N 
ATOM      4  HN  UNK N   1      21.671  22.097   2.046  1.00  0.00     0.168 HD
HETATM    5  C   UNK N   1      22.474  20.371   2.861  0.00  0.00     0.121 A 
HETATM    6  C   UNK N   1      22.300  19.053   3.162  0.00  0.00     0.065 A 
HETATM    7  C   UNK N   1      21.097  18.431   2.811  0.00  0.00     0.117 A 
HETATM    8  N   UNK N   1      20.129  19.184   2.207  0.00  0.00    -0.338 N 
ATOM      9  HN  UNK N   1      19.242  18.750   1.953  1.00  0.00     0.168 HD
HETATM   10  N   UNK N   1      23.687  20.817   3.223  0.00  0.00    -0.340 N 
HETATM   11  C   UNK N   1      23.480  18.621   3.766  0.00  0.00     0.019 A 
HETATM   12  H   UNK N   1      24.046  21.726   3.101  0.00  0.00     0.167 HD
ENDROOT
BRANCH   7  13
HETATM   13  N   UNK N   1      20.895  17.054   3.046  0.00  0.00    -0.373 N 
HETATM   14  H   UNK N   1      21.581  16.559   3.551  0.00  0.00     0.161 HD
BRANCH  13  15
HETATM   15  C   UNK N   1      19.736  16.336   2.584  0.00  0.00     0.155 C 
BRANCH  15  16
HETATM   16  C   UNK N   1      20.063  15.664   1.256  0.00  0.00     0.159 C 
BRANCH  16  17
HETATM   17  C   UNK N   1      19.473  16.447   0.096  0.00  0.00     0.197 C 
BRANCH  17  18
HETATM   18  O   UNK N   1      20.279  17.545  -0.216  0.00  0.00    -0.398 OA
HETATM   19  H   UNK N   1      21.106  17.886  -0.591  0.00  0.00     0.209 HD
ENDBRANCH  17  18
ENDBRANCH  16  17
BRANCH  16  20
HETATM   20  O   UNK N   1      21.446  15.564   1.089  0.00  0.00    -0.392 OA
HETATM   21  H   UNK N   1      21.973  16.348   0.868  0.00  0.00     0.210 HD
ENDBRANCH  16  20
ENDBRANCH  15  16
ENDBRANCH  13  15
ENDBRANCH   7  13
BRANCH  11  22
HETATM   22  C   UNK N   1      23.784  17.250   4.261  0.00  0.00    -0.023 A 
HETATM   23  C   UNK N   1      23.401  16.857   5.552  0.00  0.00     0.012 A 
HETATM   24  C   UNK N   1      23.686  15.573   6.023  0.00  0.00     0.001 A 
HETATM   25  C   UNK N   1      24.355  14.664   5.204  0.00  0.00     0.000 A 
HETATM   26  C   UNK N   1      24.745  15.042   3.918  0.00  0.00     0.001 A 
HETATM   27  C   UNK N   1      24.466  16.331   3.454  0.00  0.00     0.012 A 
ENDBRANCH  11  22
BRANCH   2  28
HETATM   28  C   UNK N   1      25.667  19.902   4.403  0.00  0.00    -0.009 A 
HETATM   29  C   UNK N   1      26.775  19.289   3.799  0.00  0.00     0.014 A 
HETATM   30  C   UNK N   1      28.054  19.435   4.348  0.00  0.00     0.001 A 
HETATM   31  C   UNK N   1      28.240  20.212   5.495  0.00  0.00     0.000 A 
HETATM   32  C   UNK N   1      27.150  20.847   6.088  0.00  0.00     0.001 A 
HETATM   33  C   UNK N   1      25.875  20.694   5.541  0.00  0.00     0.014 A 
ENDBRANCH   2  28
TORSDOF 8
ENDMDL
MODEL 7
REMARK VINA RESULT:      -6.8      4.386      6.572
REMARK  8 active torsions:
REMARK  status: ('A' for Active; 'I' for Inactive)
REMARK    1  A    between atoms: C_2  and  C_3 
REMARK    2  A    between atoms: C_15  and  O_18 
REMARK    3  A    between atoms: C_15  and  C_27 
REMARK    4  A    between atoms: N_19  and  C_20 
REMARK    5  A    between atoms: N_19  and  C_28 
REMARK    6  A    between atoms: C_25  and  C_26 
REMARK    7  A    between atoms: C_27  and  C_28 
REMARK    8  A    between atoms: C_27  and  O_29 
ROOT
HETATM    1  C   UNK N   1      35.895  16.302  11.351  0.00  0.00     0.183 A 
HETATM    2  C   UNK N   1      33.582  16.493   7.538  0.00  0.00     0.056 A 
HETATM    3  N   UNK N   1      34.915  16.998  10.704  0.00  0.00    -0.338 N 
ATOM      4  HN  UNK N   1      34.462  17.795  11.152  1.00  0.00     0.168 HD
HETATM    5  C   UNK N   1      34.559  16.610   9.456  0.00  0.00     0.121 A 
HETATM    6  C   UNK N   1      35.144  15.554   8.822  0.00  0.00     0.065 A 
HETATM    7  C   UNK N   1      36.130  14.823   9.495  0.00  0.00     0.117 A 
HETATM    8  N   UNK N   1      36.489  15.222  10.752  0.00  0.00    -0.338 N 
ATOM      9  HN  UNK N   1      37.212  14.707  11.253  1.00  0.00     0.168 HD
HETATM   10  N   UNK N   1      33.609  17.188   8.704  0.00  0.00    -0.340 N 
HETATM   11  C   UNK N   1      34.534  15.448   7.574  0.00  0.00     0.019 A 
HETATM   12  H   UNK N   1      33.046  17.958   8.948  0.00  0.00     0.167 HD
ENDROOT
BRANCH   7  13
HETATM   13  N   UNK N   1      36.719  13.684   8.905  0.00  0.00    -0.373 N 
HETATM   14  H   UNK N   1      37.433  13.818   8.241  0.00  0.00     0.161 HD
BRANCH  13  15
HETATM   15  C   UNK N   1      36.328  12.337   9.227  0.00  0.00     0.155 C 
BRANCH  15  16
HETATM   16  C   UNK N   1      37.281  11.779  10.278  0.00  0.00     0.159 C 
BRANCH  16  17
HETATM   17  C   UNK N   1      38.701  12.256  10.025  0.00  0.00     0.197 C 
BRANCH  17  18
HETATM   18  O   UNK N   1      38.991  13.376  10.809  0.00  0.00    -0.398 OA
HETATM   19  H   UNK N   1      39.470  13.761  11.560  0.00  0.00     0.209 HD
ENDBRANCH  17  18
ENDBRANCH  16  17
BRANCH  16  20
HETATM   20  O   UNK N   1      36.882  12.179  11.556  0.00  0.00    -0.392 OA
HETATM   21  H   UNK N   1      36.242  12.899  11.669  0.00  0.00     0.210 HD
ENDBRANCH  16  20
ENDBRANCH  15  16
ENDBRANCH  13  15
ENDBRANCH   7  13
BRANCH  11  22
HETATM   22  C   UNK N   1      34.819  14.436   6.520  0.00  0.00    -0.023 A 
HETATM   23  C   UNK N   1      34.035  13.277   6.414  0.00  0.00     0.012 A 
HETATM   24  C   UNK N   1      34.299  12.322   5.429  0.00  0.00     0.001 A 
HETATM   25  C   UNK N   1      35.351  12.518   4.534  0.00  0.00     0.000 A 
HETATM   26  C   UNK N   1      36.141  13.665   4.630  0.00  0.00     0.001 A 
HETATM   27  C   UNK N   1      35.879  14.613   5.622  0.00  0.00     0.012 A 
ENDBRANCH  11  22
BRANCH   2  28
HETATM   28  C   UNK N   1      32.708  16.912   6.410  0.00  0.00    -0.009 A 
HETATM   29  C   UNK N   1      33.288  17.359   5.212  0.00  0.00     0.014 A 
HETATM   30  C   UNK N   1      32.483  17.732   4.130  0.00  0.00     0.001 A 
HETATM   31  C   UNK N   1      31.092  17.644   4.228  0.00  0.00     0.000 A 
HETATM   32  C   UNK N   1      30.507  17.177   5.404  0.00  0.00     0.001 A 
HETATM   33  C   UNK N   1      31.312  16.811   6.483  0.00  0.00     0.014 A 
ENDBRANCH   2  28
TORSDOF 8
ENDMDL
MODEL 8
REMARK VINA RESULT:      -6.6      3.715      7.090
REMARK  8 active torsions:
REMARK  status: ('A' for Active; 'I' for Inactive)
REMARK    1  A    between atoms: C_2  and  C_3 
REMARK    2  A    between atoms: C_15  and  O_18 
REMARK    3  A    between atoms: C_15  and  C_27 
REMARK    4  A    between atoms: N_19  and  C_20 
REMARK    5  A    between atoms: N_19  and  C_28 
REMARK    6  A    between atoms: C_25  and  C_26 
REMARK    7  A    between atoms: C_27  and  C_28 
REMARK    8  A    between atoms: C_27  and  O_29 
ROOT
HETATM    1  C   UNK N   1      27.589  12.793   4.428  0.00  0.00     0.183 A 
HETATM    2  C   UNK N   1      30.377  15.894   6.021  0.00  0.00     0.056 A 
HETATM    3  N   UNK N   1      28.862  12.984   4.883  0.00  0.00    -0.338 N 
ATOM      4  HN  UNK N   1      29.522  12.207   4.924  1.00  0.00     0.168 HD
HETATM    5  C   UNK N   1      29.231  14.227   5.277  0.00  0.00     0.121 A 
HETATM    6  C   UNK N   1      28.380  15.291   5.234  0.00  0.00     0.065 A 
HETATM    7  C   UNK N   1      27.067  15.091   4.793  0.00  0.00     0.117 A 
HETATM    8  N   UNK N   1      26.701  13.836   4.392  0.00  0.00    -0.338 N 
ATOM      9  HN  UNK N   1      25.752  13.673   4.059  1.00  0.00     0.168 HD
HETATM   10  N   UNK N   1      30.439  14.564   5.755  0.00  0.00    -0.340 N 
HETATM   11  C   UNK N   1      29.090  16.392   5.710  0.00  0.00     0.019 A 
HETATM   12  H   UNK N   1      31.212  13.969   5.887  0.00  0.00     0.167 HD
ENDROOT
BRANCH   7  13
HETATM   13  N   UNK N   1      26.132  16.148   4.791  0.00  0.00    -0.373 N 
HETATM   14  H   UNK N   1      26.384  16.995   4.356  0.00  0.00     0.161 HD
BRANCH  13  15
HETATM   15  C   UNK N   1      24.827  16.050   5.390  0.00  0.00     0.155 C 
BRANCH  15  16
HETATM   16  C   UNK N   1      23.812  16.748   4.492  0.00  0.00     0.159 C 
BRANCH  16  17
HETATM   17  C   UNK N   1      24.226  18.185   4.225  0.00  0.00     0.197 C 
BRANCH  17  18
HETATM   18  O   UNK N   1      24.684  18.790   5.398  0.00  0.00    -0.398 OA
HETATM   19  H   UNK N   1      24.561  19.463   6.087  0.00  0.00     0.209 HD
ENDBRANCH  17  18
ENDBRANCH  16  17
BRANCH  16  20
HETATM   20  O   UNK N   1      23.693  16.069   3.276  0.00  0.00    -0.392 OA
HETATM   21  H   UNK N   1      24.483  15.773   2.799  0.00  0.00     0.210 HD
ENDBRANCH  16  20
ENDBRANCH  15  16
ENDBRANCH  13  15
ENDBRANCH   7  13
BRANCH  11  22
HETATM   22  C   UNK N   1      28.586  17.784   5.869  0.00  0.00    -0.023 A 
HETATM   23  C   UNK N   1      28.190  18.258   7.129  0.00  0.00     0.012 A 
HETATM   24  C   UNK N   1      27.713  19.562   7.285  0.00  0.00     0.001 A 
HETATM   25  C   UNK N   1      27.631  20.410   6.180  0.00  0.00     0.000 A 
HETATM   26  C   UNK N   1      28.019  19.950   4.921  0.00  0.00     0.001 A 
HETATM   27  C   UNK N   1      28.487  18.642   4.767  0.00  0.00     0.012 A 
ENDBRANCH  11  22
BRANCH   2  28
HETATM   28  C   UNK N   1      31.575  16.646   6.478  0.00  0.00    -0.009 A 
HETATM   29  C   UNK N   1      31.647  17.097   7.805  0.00  0.00     0.014 A 
HETATM   30  C   UNK N   1      32.778  17.784   8.261  0.00  0.00     0.001 A 
HETATM   31  C   UNK N   1      33.856  18.009   7.400  0.00  0.00     0.000 A 
HETATM   32  C   UNK N   1      33.806  17.542   6.088  0.00  0.00     0.001 A 
HETATM   33  C   UNK N   1      32.674  16.863   5.635  0.00  0.00     0.014 A 
ENDBRANCH   2  28
TORSDOF 8
ENDMDL
MODEL 9
REMARK VINA RESULT:      -6.6      4.016      6.000
REMARK  8 active torsions:
REMARK  status: ('A' for Active; 'I' for Inactive)
REMARK    1  A    between atoms: C_2  and  C_3 
REMARK    2  A    between atoms: C_15  and  O_18 
REMARK    3  A    between atoms: C_15  and  C_27 
REMARK    4  A    between atoms: N_19  and  C_20 
REMARK    5  A    between atoms: N_19  and  C_28 
REMARK    6  A    between atoms: C_25  and  C_26 
REMARK    7  A    between atoms: C_27  and  C_28 
REMARK    8  A    between atoms: C_27  and  O_29 
ROOT
HETATM    1  C   UNK N   1      34.340  10.643   7.767  0.00  0.00     0.183 A 
HETATM    2  C   UNK N   1      32.035  13.864   5.709  0.00  0.00     0.056 A 
HETATM    3  N   UNK N   1      33.462  10.874   6.748  0.00  0.00    -0.338 N 
ATOM      4  HN  UNK N   1      33.132  10.107   6.162  1.00  0.00     0.168 HD
HETATM    5  C   UNK N   1      33.037  12.142   6.531  0.00  0.00     0.121 A 
HETATM    6  C   UNK N   1      33.452  13.194   7.294  0.00  0.00     0.065 A 
HETATM    7  C   UNK N   1      34.372  12.963   8.322  0.00  0.00     0.117 A 
HETATM    8  N   UNK N   1      34.794  11.680   8.540  0.00  0.00    -0.338 N 
ATOM      9  HN  UNK N   1      35.457  11.491   9.291  1.00  0.00     0.168 HD
HETATM   10  N   UNK N   1      32.188  12.523   5.564  0.00  0.00    -0.340 N 
HETATM   11  C   UNK N   1      32.821  14.328   6.788  0.00  0.00     0.019 A 
HETATM   12  H   UNK N   1      31.763  11.948   4.887  0.00  0.00     0.167 HD
ENDROOT
BRANCH   7  13
HETATM   13  N   UNK N   1      34.878  14.028   9.098  0.00  0.00    -0.373 N 
HETATM   14  H   UNK N   1      34.926  14.922   8.689  0.00  0.00     0.161 HD
BRANCH  13  15
HETATM   15  C   UNK N   1      35.326  13.873  10.456  0.00  0.00     0.155 C 
BRANCH  15  16
HETATM   16  C   UNK N   1      34.727  14.985  11.309  0.00  0.00     0.159 C 
BRANCH  16  17
HETATM   17  C   UNK N   1      35.325  16.331  10.939  0.00  0.00     0.197 C 
BRANCH  17  18
HETATM   18  O   UNK N   1      36.710  16.227  10.782  0.00  0.00    -0.398 OA
HETATM   19  H   UNK N   1      37.565  15.943  11.140  0.00  0.00     0.209 HD
ENDBRANCH  17  18
ENDBRANCH  16  17
BRANCH  16  20
HETATM   20  O   UNK N   1      33.341  15.034  11.138  0.00  0.00    -0.392 OA
HETATM   21  H   UNK N   1      32.933  14.695  10.326  0.00  0.00     0.210 HD
ENDBRANCH  16  20
ENDBRANCH  15  16
ENDBRANCH  13  15
ENDBRANCH   7  13
BRANCH  11  22
HETATM   22  C   UNK N   1      32.965  15.728   7.278  0.00  0.00    -0.023 A 
HETATM   23  C   UNK N   1      34.073  16.502   6.902  0.00  0.00     0.012 A 
HETATM   24  C   UNK N   1      34.216  17.815   7.360  0.00  0.00     0.001 A 
HETATM   25  C   UNK N   1      33.248  18.369   8.197  0.00  0.00     0.000 A 
HETATM   26  C   UNK N   1      32.143  17.609   8.581  0.00  0.00     0.001 A 
HETATM   27  C   UNK N   1      32.008  16.293   8.128  0.00  0.00     0.012 A 
ENDBRANCH  11  22
BRANCH   2  28
HETATM   28  C   UNK N   1      31.077  14.627   4.864  0.00  0.00    -0.009 A 
HETATM   29  C   UNK N   1      29.703  14.562   5.140  0.00  0.00     0.014 A 
HETATM   30  C   UNK N   1      28.790  15.293   4.373  0.00  0.00     0.001 A 
HETATM   31  C   UNK N   1      29.243  16.112   3.335  0.00  0.00     0.000 A 
HETATM   32  C   UNK N   1      30.609  16.205   3.070  0.00  0.00     0.001 A 
HETATM   33  C   UNK N   1      31.516  15.469   3.833  0.00  0.00     0.014 A 
ENDBRANCH   2  28
TORSDOF 8
ENDMDL
