MODEL 1
REMARK VINA RESULT:      -7.4      0.000      0.000
REMARK  8 active torsions:
REMARK  status: ('A' for Active; 'I' for Inactive)
REMARK    1  A    between atoms: N_1  and  C_2 
REMARK    2  A    between atoms: C_12  and  C_13 
REMARK    3  A    between atoms: C_13  and  N_14 
REMARK    4  A    between atoms: C_16  and  O_17 
REMARK    5  A    between atoms: C_19  and  C_20 
REMARK    6  A    between atoms: C_20  and  S_21 
REMARK    7  A    between atoms: S_21  and  C_22 
REMARK    8  A    between atoms: C_22  and  C_23 
ROOT
HETATM    1  N   UNK N   1      33.814  16.522   9.033  0.00  0.00     0.095 N 
HETATM    2  C   UNK N   1      34.900  17.170   9.748  0.00  0.00     0.304 C 
HETATM    3  C   UNK N   1      35.429  16.113  10.691  0.00  0.00     0.152 C 
HETATM    4  C   UNK N   1      34.407  15.241   8.698  0.00  0.00     0.280 C 
HETATM    5  C   UNK N   1      34.943  14.803  10.050  0.00  0.00     0.054 C 
ENDROOT
BRANCH   1   6
HETATM    6  C   UNK N   1      33.401  17.314   7.884  0.00  0.00     0.315 C 
BRANCH   6   7
HETATM    7  C   UNK N   1      31.936  17.079   7.590  0.00  0.00     0.015 A 
HETATM    8  C   UNK N   1      30.836  17.547   8.281  0.00  0.00     0.073 A 
HETATM    9  N   UNK N   1      30.761  18.311   9.400  0.00  0.00    -0.350 N 
HETATM   10  C   UNK N   1      29.732  17.122   7.630  0.00  0.00     0.103 A 
HETATM   11  C   UNK N   1      29.528  18.666   9.870  0.00  0.00     0.182 A 
ATOM     12  HN  UNK N   1      31.606  18.614   9.882  1.00  0.00     0.166 HD
HETATM   13  N   UNK N   1      28.395  18.253   9.220  0.00  0.00    -0.337 N 
HETATM   14  C   UNK N   1      28.473  17.476   8.099  0.00  0.00     0.129 A 
ATOM     15  HN  UNK N   1      27.481  18.528   9.579  1.00  0.00     0.168 HD
HETATM   16  N   UNK N   1      30.061  16.385   6.552  0.00  0.00    -0.360 N 
HETATM   17  C   UNK N   1      31.422  16.353   6.518  0.00  0.00     0.099 A 
HETATM   18  H   UNK N   1      29.442  15.955   5.917  0.00  0.00     0.165 HD
BRANCH  14  19
HETATM   19  N   UNK N   1      27.302  17.062   7.436  0.00  0.00    -0.384 N 
HETATM   20  H   UNK N   1      26.433  17.469   7.656  0.00  0.00     0.157 HD
HETATM   21  H   UNK N   1      27.352  16.358   6.749  0.00  0.00     0.157 HD
ENDBRANCH  14  19
ENDBRANCH   6   7
ENDBRANCH   1   6
BRANCH   3  22
HETATM   22  O   UNK N   1      36.817  16.226  10.759  0.00  0.00    -0.393 OA
HETATM   23  H   UNK N   1      37.674  15.781  10.658  0.00  0.00     0.210 HD
ENDBRANCH   3  22
BRANCH   5  24
HETATM   24  C   UNK N   1      35.918  13.628  10.072  0.00  0.00     0.083 C 
BRANCH  24  25
HETATM   25  S   UNK N   1      35.506  12.336  11.291  0.00  0.00    -0.164 SA
BRANCH  25  26
HETATM   26  C   UNK N   1      36.605  13.120  12.503  0.00  0.00     0.112 C 
BRANCH  26  27
HETATM   27  C   UNK N   1      36.027  13.065  13.873  0.00  0.00    -0.049 A 
HETATM   28  C   UNK N   1      34.893  12.283  14.106  0.00  0.00     0.008 A 
HETATM   29  C   UNK N   1      34.353  12.199  15.392  0.00  0.00     0.001 A 
HETATM   30  C   UNK N   1      34.944  12.903  16.446  0.00  0.00     0.000 A 
HETATM   31  C   UNK N   1      36.078  13.686  16.215  0.00  0.00     0.001 A 
HETATM   32  C   UNK N   1      36.625  13.763  14.932  0.00  0.00     0.008 A 
ENDBRANCH  26  27
ENDBRANCH  25  26
ENDBRANCH  24  25
ENDBRANCH   5  24
TORSDOF 8
ENDMDL
MODEL 2
REMARK VINA RESULT:      -7.0      1.435      2.490
REMARK  8 active torsions:
REMARK  status: ('A' for Active; 'I' for Inactive)
REMARK    1  A    between atoms: N_1  and  C_2 
REMARK    2  A    between atoms: C_12  and  C_13 
REMARK    3  A    between atoms: C_13  and  N_14 
REMARK    4  A    between atoms: C_16  and  O_17 
REMARK    5  A    between atoms: C_19  and  C_20 
REMARK    6  A    between atoms: C_20  and  S_21 
REMARK    7  A    between atoms: S_21  and  C_22 
REMARK    8  A    between atoms: C_22  and  C_23 
ROOT
HETATM    1  N   UNK N   1      33.958  16.015   9.255  0.00  0.00     0.095 N 
HETATM    2  C   UNK N   1      35.089  16.777   9.760  0.00  0.00     0.304 C 
HETATM    3  C   UNK N   1      35.444  16.118  11.074  0.00  0.00     0.152 C 
HETATM    4  C   UNK N   1      34.399  14.652   9.482  0.00  0.00     0.280 C 
HETATM    5  C   UNK N   1      34.822  14.719  10.938  0.00  0.00     0.054 C 
ENDROOT
BRANCH   1   6
HETATM    6  C   UNK N   1      33.693  16.340   7.861  0.00  0.00     0.315 C 
BRANCH   6   7
HETATM    7  C   UNK N   1      32.237  16.710   7.682  0.00  0.00     0.015 A 
HETATM    8  C   UNK N   1      31.581  17.075   6.523  0.00  0.00     0.073 A 
HETATM    9  N   UNK N   1      32.047  17.223   5.258  0.00  0.00    -0.350 N 
HETATM   10  C   UNK N   1      30.281  17.271   6.833  0.00  0.00     0.103 A 
HETATM   11  C   UNK N   1      31.169  17.569   4.271  0.00  0.00     0.182 A 
ATOM     12  HN  UNK N   1      33.034  17.079   5.047  1.00  0.00     0.166 HD
HETATM   13  N   UNK N   1      29.844  17.764   4.561  0.00  0.00    -0.337 N 
HETATM   14  C   UNK N   1      29.378  17.624   5.838  0.00  0.00     0.129 A 
ATOM     15  HN  UNK N   1      29.197  18.018   3.815  1.00  0.00     0.168 HD
HETATM   16  N   UNK N   1      30.061  17.064   8.146  0.00  0.00    -0.360 N 
HETATM   17  C   UNK N   1      31.265  16.716   8.680  0.00  0.00     0.099 A 
HETATM   18  H   UNK N   1      29.204  17.148   8.623  0.00  0.00     0.165 HD
BRANCH  14  19
HETATM   19  N   UNK N   1      28.014  17.822   6.125  0.00  0.00    -0.384 N 
HETATM   20  H   UNK N   1      27.546  18.622   5.794  0.00  0.00     0.157 HD
HETATM   21  H   UNK N   1      27.525  17.156   6.660  0.00  0.00     0.157 HD
ENDBRANCH  14  19
ENDBRANCH   6   7
ENDBRANCH   1   6
BRANCH   3  22
HETATM   22  O   UNK N   1      36.831  16.108  11.210  0.00  0.00    -0.393 OA
HETATM   23  H   UNK N   1      37.691  16.167  10.763  0.00  0.00     0.210 HD
ENDBRANCH   3  22
BRANCH   5  24
HETATM   24  C   UNK N   1      35.641  13.551  11.486  0.00  0.00     0.083 C 
BRANCH  24  25
HETATM   25  S   UNK N   1      35.037  12.894  13.075  0.00  0.00    -0.164 SA
BRANCH  25  26
HETATM   26  C   UNK N   1      36.628  13.290  13.852  0.00  0.00     0.112 C 
BRANCH  26  27
HETATM   27  C   UNK N   1      36.443  13.818  15.230  0.00  0.00    -0.049 A 
HETATM   28  C   UNK N   1      37.181  14.931  15.641  0.00  0.00     0.008 A 
HETATM   29  C   UNK N   1      37.000  15.457  16.923  0.00  0.00     0.001 A 
HETATM   30  C   UNK N   1      36.084  14.865  17.798  0.00  0.00     0.000 A 
HETATM   31  C   UNK N   1      35.345  13.751  17.389  0.00  0.00     0.001 A 
HETATM   32  C   UNK N   1      35.517  13.231  16.105  0.00  0.00     0.008 A 
ENDBRANCH  26  27
ENDBRANCH  25  26
ENDBRANCH  24  25
ENDBRANCH   5  24
TORSDOF 8
ENDMDL
MODEL 3
REMARK VINA RESULT:      -7.0      2.257      4.048
REMARK  8 active torsions:
REMARK  status: ('A' for Active; 'I' for Inactive)
REMARK    1  A    between atoms: N_1  and  C_2 
REMARK    2  A    between atoms: C_12  and  C_13 
REMARK    3  A    between atoms: C_13  and  N_14 
REMARK    4  A    between atoms: C_16  and  O_17 
REMARK    5  A    between atoms: C_19  and  C_20 
REMARK    6  A    between atoms: C_20  and  S_21 
REMARK    7  A    between atoms: S_21  and  C_22 
REMARK    8  A    between atoms: C_22  and  C_23 
ROOT
HETATM    1  N   UNK N   1      35.769  13.981  11.556  0.00  0.00     0.095 N 
HETATM    2  C   UNK N   1      36.056  15.020  12.530  0.00  0.00     0.304 C 
HETATM    3  C   UNK N   1      36.139  14.298  13.855  0.00  0.00     0.152 C 
HETATM    4  C   UNK N   1      36.703  12.943  11.952  0.00  0.00     0.280 C 
HETATM    5  C   UNK N   1      36.418  12.845  13.440  0.00  0.00     0.054 C 
ENDROOT
BRANCH   1   6
HETATM    6  C   UNK N   1      35.954  14.473  10.199  0.00  0.00     0.315 C 
BRANCH   6   7
HETATM    7  C   UNK N   1      34.617  14.833   9.590  0.00  0.00     0.015 A 
HETATM    8  C   UNK N   1      34.228  16.028   9.019  0.00  0.00     0.073 A 
HETATM    9  N   UNK N   1      34.909  17.192   8.865  0.00  0.00    -0.350 N 
HETATM   10  C   UNK N   1      32.964  15.875   8.570  0.00  0.00     0.103 A 
HETATM   11  C   UNK N   1      34.295  18.232   8.227  0.00  0.00     0.182 A 
ATOM     12  HN  UNK N   1      35.860  17.290   9.219  1.00  0.00     0.166 HD
HETATM   13  N   UNK N   1      33.015  18.096   7.756  0.00  0.00    -0.337 N 
HETATM   14  C   UNK N   1      32.328  16.926   7.921  0.00  0.00     0.129 A 
ATOM     15  HN  UNK N   1      32.569  18.879   7.278  1.00  0.00     0.168 HD
HETATM   16  N   UNK N   1      32.503  14.638   8.835  0.00  0.00    -0.360 N 
HETATM   17  C   UNK N   1      33.519  13.985   9.466  0.00  0.00     0.099 A 
HETATM   18  H   UNK N   1      31.613  14.278   8.619  0.00  0.00     0.165 HD
BRANCH  14  19
HETATM   19  N   UNK N   1      31.015  16.796   7.428  0.00  0.00    -0.384 N 
HETATM   20  H   UNK N   1      30.377  17.540   7.508  0.00  0.00     0.157 HD
HETATM   21  H   UNK N   1      30.734  15.954   7.002  0.00  0.00     0.157 HD
ENDBRANCH  14  19
ENDBRANCH   6   7
ENDBRANCH   1   6
BRANCH   3  22
HETATM   22  O   UNK N   1      37.157  14.872  14.616  0.00  0.00    -0.393 OA
HETATM   23  H   UNK N   1      38.113  14.990  14.735  0.00  0.00     0.210 HD
ENDBRANCH   3  22
BRANCH   5  24
HETATM   24  C   UNK N   1      37.416  12.068  14.296  0.00  0.00     0.083 C 
BRANCH  24  25
HETATM   25  S   UNK N   1      36.773  10.495  14.955  0.00  0.00    -0.164 SA
BRANCH  25  26
HETATM   26  C   UNK N   1      35.243  11.326  15.465  0.00  0.00     0.112 C 
BRANCH  26  27
HETATM   27  C   UNK N   1      35.302  11.743  16.891  0.00  0.00    -0.049 A 
HETATM   28  C   UNK N   1      35.089  13.085  17.220  0.00  0.00     0.008 A 
HETATM   29  C   UNK N   1      35.115  13.490  18.558  0.00  0.00     0.001 A 
HETATM   30  C   UNK N   1      35.359  12.554  19.567  0.00  0.00     0.000 A 
HETATM   31  C   UNK N   1      35.573  11.212  19.240  0.00  0.00     0.001 A 
HETATM   32  C   UNK N   1      35.538  10.804  17.905  0.00  0.00     0.008 A 
ENDBRANCH  26  27
ENDBRANCH  25  26
ENDBRANCH  24  25
ENDBRANCH   5  24
TORSDOF 8
ENDMDL
MODEL 4
REMARK VINA RESULT:      -6.9      6.228     12.076
REMARK  8 active torsions:
REMARK  status: ('A' for Active; 'I' for Inactive)
REMARK    1  A    between atoms: N_1  and  C_2 
REMARK    2  A    between atoms: C_12  and  C_13 
REMARK    3  A    between atoms: C_13  and  N_14 
REMARK    4  A    between atoms: C_16  and  O_17 
REMARK    5  A    between atoms: C_19  and  C_20 
REMARK    6  A    between atoms: C_20  and  S_21 
REMARK    7  A    between atoms: S_21  and  C_22 
REMARK    8  A    between atoms: C_22  and  C_23 
ROOT
HETATM    1  N   UNK N   1      28.483  18.512   6.430  0.00  0.00     0.095 N 
HETATM    2  C   UNK N   1      27.896  19.290   7.508  0.00  0.00     0.304 C 
HETATM    3  C   UNK N   1      27.337  20.524   6.837  0.00  0.00     0.152 C 
HETATM    4  C   UNK N   1      27.448  18.587   5.417  0.00  0.00     0.280 C 
HETATM    5  C   UNK N   1      27.190  20.083   5.371  0.00  0.00     0.054 C 
ENDROOT
BRANCH   1   6
HETATM    6  C   UNK N   1      28.797  17.161   6.874  0.00  0.00     0.315 C 
BRANCH   6   7
HETATM    7  C   UNK N   1      30.159  17.133   7.530  0.00  0.00     0.015 A 
HETATM    8  C   UNK N   1      31.401  17.204   6.933  0.00  0.00     0.073 A 
HETATM    9  N   UNK N   1      31.743  17.295   5.623  0.00  0.00    -0.350 N 
HETATM   10  C   UNK N   1      32.329  17.188   7.914  0.00  0.00     0.103 A 
HETATM   11  C   UNK N   1      33.066  17.383   5.294  0.00  0.00     0.182 A 
ATOM     12  HN  UNK N   1      31.027  17.296   4.897  1.00  0.00     0.166 HD
HETATM   13  N   UNK N   1      34.024  17.377   6.274  0.00  0.00    -0.337 N 
HETATM   14  C   UNK N   1      33.678  17.276   7.592  0.00  0.00     0.129 A 
ATOM     15  HN  UNK N   1      35.008  17.447   6.016  1.00  0.00     0.168 HD
HETATM   16  N   UNK N   1      31.750  17.094   9.126  0.00  0.00    -0.360 N 
HETATM   17  C   UNK N   1      30.406  17.060   8.900  0.00  0.00     0.099 A 
HETATM   18  H   UNK N   1      32.204  17.057   9.998  0.00  0.00     0.165 HD
BRANCH  14  19
HETATM   19  N   UNK N   1      34.671  17.275   8.591  0.00  0.00    -0.384 N 
HETATM   20  H   UNK N   1      35.386  17.951   8.584  0.00  0.00     0.157 HD
HETATM   21  H   UNK N   1      34.649  16.593   9.301  0.00  0.00     0.157 HD
ENDBRANCH  14  19
ENDBRANCH   6   7
ENDBRANCH   1   6
BRANCH   3  22
HETATM   22  O   UNK N   1      26.130  20.860   7.448  0.00  0.00    -0.393 OA
HETATM   23  H   UNK N   1      25.407  21.504   7.518  0.00  0.00     0.210 HD
ENDBRANCH   3  22
BRANCH   5  24
HETATM   24  C   UNK N   1      25.938  20.558   4.637  0.00  0.00     0.083 C 
BRANCH  24  25
HETATM   25  S   UNK N   1      25.232  19.331   3.488  0.00  0.00    -0.164 SA
BRANCH  25  26
HETATM   26  C   UNK N   1      23.961  20.523   2.984  0.00  0.00     0.112 C 
BRANCH  26  27
HETATM   27  C   UNK N   1      22.600  19.927   3.052  0.00  0.00    -0.049 A 
HETATM   28  C   UNK N   1      21.561  20.509   2.321  0.00  0.00     0.008 A 
HETATM   29  C   UNK N   1      20.282  19.946   2.353  0.00  0.00     0.001 A 
HETATM   30  C   UNK N   1      20.040  18.803   3.121  0.00  0.00     0.000 A 
HETATM   31  C   UNK N   1      21.078  18.219   3.853  0.00  0.00     0.001 A 
HETATM   32  C   UNK N   1      22.360  18.775   3.815  0.00  0.00     0.008 A 
ENDBRANCH  26  27
ENDBRANCH  25  26
ENDBRANCH  24  25
ENDBRANCH   5  24
TORSDOF 8
ENDMDL
MODEL 5
REMARK VINA RESULT:      -6.8      2.123      3.257
REMARK  8 active torsions:
REMARK  status: ('A' for Active; 'I' for Inactive)
REMARK    1  A    between atoms: N_1  and  C_2 
REMARK    2  A    between atoms: C_12  and  C_13 
REMARK    3  A    between atoms: C_13  and  N_14 
REMARK    4  A    between atoms: C_16  and  O_17 
REMARK    5  A    between atoms: C_19  and  C_20 
REMARK    6  A    between atoms: C_20  and  S_21 
REMARK    7  A    between atoms: S_21  and  C_22 
REMARK    8  A    between atoms: C_22  and  C_23 
ROOT
HETATM    1  N   UNK N   1      31.575  16.868   8.365  0.00  0.00     0.095 N 
HETATM    2  C   UNK N   1      32.344  17.825   7.587  0.00  0.00     0.304 C 
HETATM    3  C   UNK N   1      33.698  17.871   8.258  0.00  0.00     0.152 C 
HETATM    4  C   UNK N   1      32.530  15.788   8.527  0.00  0.00     0.280 C 
HETATM    5  C   UNK N   1      33.745  16.545   9.033  0.00  0.00     0.054 C 
ENDROOT
BRANCH   1   6
HETATM    6  C   UNK N   1      30.353  16.493   7.668  0.00  0.00     0.315 C 
BRANCH   6   7
HETATM    7  C   UNK N   1      29.314  17.583   7.819  0.00  0.00     0.015 A 
HETATM    8  C   UNK N   1      28.743  18.366   6.835  0.00  0.00     0.073 A 
HETATM    9  N   UNK N   1      28.961  18.394   5.497  0.00  0.00    -0.350 N 
HETATM   10  C   UNK N   1      27.836  19.171   7.429  0.00  0.00     0.103 A 
HETATM   11  C   UNK N   1      28.230  19.256   4.730  0.00  0.00     0.182 A 
ATOM     12  HN  UNK N   1      29.658  17.784   5.070  1.00  0.00     0.166 HD
HETATM   13  N   UNK N   1      27.298  20.076   5.310  0.00  0.00    -0.337 N 
HETATM   14  C   UNK N   1      27.087  20.053   6.660  0.00  0.00     0.129 A 
ATOM     15  HN  UNK N   1      26.755  20.713   4.727  1.00  0.00     0.168 HD
HETATM   16  N   UNK N   1      27.798  18.960   8.758  0.00  0.00    -0.360 N 
HETATM   17  C   UNK N   1      28.710  17.978   9.010  0.00  0.00     0.099 A 
HETATM   18  H   UNK N   1      27.229  19.422   9.415  0.00  0.00     0.165 HD
BRANCH  14  19
HETATM   19  N   UNK N   1      26.122  20.897   7.245  0.00  0.00    -0.384 N 
HETATM   20  H   UNK N   1      25.421  21.310   6.692  0.00  0.00     0.157 HD
HETATM   21  H   UNK N   1      26.152  21.076   8.212  0.00  0.00     0.157 HD
ENDBRANCH  14  19
ENDBRANCH   6   7
ENDBRANCH   1   6
BRANCH   3  22
HETATM   22  O   UNK N   1      34.681  17.987   7.277  0.00  0.00    -0.393 OA
HETATM   23  H   UNK N   1      35.065  17.618   6.465  0.00  0.00     0.210 HD
ENDBRANCH   3  22
BRANCH   5  24
HETATM   24  C   UNK N   1      35.081  15.804   9.040  0.00  0.00     0.083 C 
BRANCH  24  25
HETATM   25  S   UNK N   1      35.067  14.243   9.980  0.00  0.00    -0.164 SA
BRANCH  25  26
HETATM   26  C   UNK N   1      35.377  15.156  11.517  0.00  0.00     0.112 C 
BRANCH  26  27
HETATM   27  C   UNK N   1      35.607  14.233  12.660  0.00  0.00    -0.049 A 
HETATM   28  C   UNK N   1      36.402  14.654  13.729  0.00  0.00     0.008 A 
HETATM   29  C   UNK N   1      36.607  13.809  14.824  0.00  0.00     0.001 A 
HETATM   30  C   UNK N   1      36.021  12.539  14.847  0.00  0.00     0.000 A 
HETATM   31  C   UNK N   1      35.227  12.116  13.777  0.00  0.00     0.001 A 
HETATM   32  C   UNK N   1      35.013  12.963  12.687  0.00  0.00     0.008 A 
ENDBRANCH  26  27
ENDBRANCH  25  26
ENDBRANCH  24  25
ENDBRANCH   5  24
TORSDOF 8
ENDMDL
MODEL 6
REMARK VINA RESULT:      -6.7      6.386      9.963
REMARK  8 active torsions:
REMARK  status: ('A' for Active; 'I' for Inactive)
REMARK    1  A    between atoms: N_1  and  C_2 
REMARK    2  A    between atoms: C_12  and  C_13 
REMARK    3  A    between atoms: C_13  and  N_14 
REMARK    4  A    between atoms: C_16  and  O_17 
REMARK    5  A    between atoms: C_19  and  C_20 
REMARK    6  A    between atoms: C_20  and  S_21 
REMARK    7  A    between atoms: S_21  and  C_22 
REMARK    8  A    between atoms: C_22  and  C_23 
ROOT
HETATM    1  N   UNK N   1      25.416  19.663   4.969  0.00  0.00     0.095 N 
HETATM    2  C   UNK N   1      25.961  20.926   5.439  0.00  0.00     0.304 C 
HETATM    3  C   UNK N   1      26.938  20.545   6.529  0.00  0.00     0.152 C 
HETATM    4  C   UNK N   1      26.614  18.852   4.854  0.00  0.00     0.280 C 
HETATM    5  C   UNK N   1      27.250  19.073   6.214  0.00  0.00     0.054 C 
ENDROOT
BRANCH   1   6
HETATM    6  C   UNK N   1      24.686  19.843   3.722  0.00  0.00     0.315 C 
BRANCH   6   7
HETATM    7  C   UNK N   1      23.388  19.068   3.764  0.00  0.00     0.015 A 
HETATM    8  C   UNK N   1      22.182  19.381   3.170  0.00  0.00     0.073 A 
HETATM    9  N   UNK N   1      21.824  20.454   2.420  0.00  0.00    -0.350 N 
HETATM   10  C   UNK N   1      21.319  18.379   3.441  0.00  0.00     0.103 A 
HETATM   11  C   UNK N   1      20.555  20.508   1.917  0.00  0.00     0.182 A 
ATOM     12  HN  UNK N   1      22.488  21.204   2.234  1.00  0.00     0.166 HD
HETATM   13  N   UNK N   1      19.665  19.498   2.172  0.00  0.00    -0.337 N 
HETATM   14  C   UNK N   1      20.025  18.424   2.936  0.00  0.00     0.129 A 
ATOM     15  HN  UNK N   1      18.722  19.549   1.789  1.00  0.00     0.168 HD
HETATM   16  N   UNK N   1      21.903  17.430   4.198  0.00  0.00    -0.360 N 
HETATM   17  C   UNK N   1      23.184  17.847   4.403  0.00  0.00     0.099 A 
HETATM   18  H   UNK N   1      21.488  16.604   4.536  0.00  0.00     0.165 HD
BRANCH  14  19
HETATM   19  N   UNK N   1      19.104  17.388   3.188  0.00  0.00    -0.384 N 
HETATM   20  H   UNK N   1      18.256  17.577   3.650  0.00  0.00     0.157 HD
HETATM   21  H   UNK N   1      19.311  16.470   2.902  0.00  0.00     0.157 HD
ENDBRANCH  14  19
ENDBRANCH   6   7
ENDBRANCH   1   6
BRANCH   3  22
HETATM   22  O   UNK N   1      28.047  21.386   6.451  0.00  0.00    -0.393 OA
HETATM   23  H   UNK N   1      28.370  22.298   6.360  0.00  0.00     0.210 HD
ENDBRANCH   3  22
BRANCH   5  24
HETATM   24  C   UNK N   1      28.701  18.629   6.392  0.00  0.00     0.083 C 
BRANCH  24  25
HETATM   25  S   UNK N   1      29.085  17.973   8.049  0.00  0.00    -0.164 SA
BRANCH  25  26
HETATM   26  C   UNK N   1      30.132  16.690   7.305  0.00  0.00     0.112 C 
BRANCH  26  27
HETATM   27  C   UNK N   1      31.553  17.124   7.235  0.00  0.00    -0.049 A 
HETATM   28  C   UNK N   1      32.161  17.660   8.373  0.00  0.00     0.008 A 
HETATM   29  C   UNK N   1      33.503  18.048   8.332  0.00  0.00     0.001 A 
HETATM   30  C   UNK N   1      34.237  17.905   7.151  0.00  0.00     0.000 A 
HETATM   31  C   UNK N   1      33.630  17.369   6.011  0.00  0.00     0.001 A 
HETATM   32  C   UNK N   1      32.291  16.972   6.053  0.00  0.00     0.008 A 
ENDBRANCH  26  27
ENDBRANCH  25  26
ENDBRANCH  24  25
ENDBRANCH   5  24
TORSDOF 8
ENDMDL
MODEL 7
REMARK VINA RESULT:      -6.6      2.074      3.534
REMARK  8 active torsions:
REMARK  status: ('A' for Active; 'I' for Inactive)
REMARK    1  A    between atoms: N_1  and  C_2 
REMARK    2  A    between atoms: C_12  and  C_13 
REMARK    3  A    between atoms: C_13  and  N_14 
REMARK    4  A    between atoms: C_16  and  O_17 
REMARK    5  A    between atoms: C_19  and  C_20 
REMARK    6  A    between atoms: C_20  and  S_21 
REMARK    7  A    between atoms: S_21  and  C_22 
REMARK    8  A    between atoms: C_22  and  C_23 
ROOT
HETATM    1  N   UNK N   1      33.899  15.142   9.911  0.00  0.00     0.095 N 
HETATM    2  C   UNK N   1      35.141  15.790   9.524  0.00  0.00     0.304 C 
HETATM    3  C   UNK N   1      35.799  16.178  10.829  0.00  0.00     0.152 C 
HETATM    4  C   UNK N   1      34.344  14.271  10.983  0.00  0.00     0.280 C 
HETATM    5  C   UNK N   1      35.125  15.245  11.847  0.00  0.00     0.054 C 
ENDROOT
BRANCH   1   6
HETATM    6  C   UNK N   1      33.298  14.450   8.780  0.00  0.00     0.315 C 
BRANCH   6   7
HETATM    7  C   UNK N   1      32.698  15.451   7.818  0.00  0.00     0.015 A 
HETATM    8  C   UNK N   1      32.983  15.633   6.480  0.00  0.00     0.073 A 
HETATM    9  N   UNK N   1      33.872  14.997   5.676  0.00  0.00    -0.350 N 
HETATM   10  C   UNK N   1      32.172  16.608   6.017  0.00  0.00     0.103 A 
HETATM   11  C   UNK N   1      33.936  15.351   4.359  0.00  0.00     0.182 A 
ATOM     12  HN  UNK N   1      34.481  14.269   6.048  1.00  0.00     0.166 HD
HETATM   13  N   UNK N   1      33.118  16.333   3.866  0.00  0.00    -0.337 N 
HETATM   14  C   UNK N   1      32.229  16.979   4.679  0.00  0.00     0.129 A 
ATOM     15  HN  UNK N   1      33.172  16.587   2.880  1.00  0.00     0.168 HD
HETATM   16  N   UNK N   1      31.380  17.084   6.997  0.00  0.00    -0.360 N 
HETATM   17  C   UNK N   1      31.697  16.374   8.116  0.00  0.00     0.099 A 
HETATM   18  H   UNK N   1      30.708  17.800   6.921  0.00  0.00     0.165 HD
BRANCH  14  19
HETATM   19  N   UNK N   1      31.389  17.983   4.161  0.00  0.00    -0.384 N 
HETATM   20  H   UNK N   1      31.264  18.829   4.648  0.00  0.00     0.157 HD
HETATM   21  H   UNK N   1      30.923  17.838   3.306  0.00  0.00     0.157 HD
ENDBRANCH  14  19
ENDBRANCH   6   7
ENDBRANCH   1   6
BRANCH   3  22
HETATM   22  O   UNK N   1      37.175  15.985  10.712  0.00  0.00    -0.393 OA
HETATM   23  H   UNK N   1      38.057  16.390  10.745  0.00  0.00     0.210 HD
ENDBRANCH   3  22
BRANCH   5  24
HETATM   24  C   UNK N   1      36.022  14.655  12.934  0.00  0.00     0.083 C 
BRANCH  24  25
HETATM   25  S   UNK N   1      35.596  12.950  13.414  0.00  0.00    -0.164 SA
BRANCH  25  26
HETATM   26  C   UNK N   1      35.544  13.446  15.159  0.00  0.00     0.112 C 
BRANCH  26  27
HETATM   27  C   UNK N   1      35.314  12.277  16.049  0.00  0.00    -0.049 A 
HETATM   28  C   UNK N   1      35.042  11.029  15.481  0.00  0.00     0.008 A 
HETATM   29  C   UNK N   1      34.850   9.914  16.302  0.00  0.00     0.001 A 
HETATM   30  C   UNK N   1      34.924  10.048  17.692  0.00  0.00     0.000 A 
HETATM   31  C   UNK N   1      35.195  11.295  18.261  0.00  0.00     0.001 A 
HETATM   32  C   UNK N   1      35.397  12.408  17.442  0.00  0.00     0.008 A 
ENDBRANCH  26  27
ENDBRANCH  25  26
ENDBRANCH  24  25
ENDBRANCH   5  24
TORSDOF 8
ENDMDL
MODEL 8
REMARK VINA RESULT:      -6.5      3.948      9.072
REMARK  8 active torsions:
REMARK  status: ('A' for Active; 'I' for Inactive)
REMARK    1  A    between atoms: N_1  and  C_2 
REMARK    2  A    between atoms: C_12  and  C_13 
REMARK    3  A    between atoms: C_13  and  N_14 
REMARK    4  A    between atoms: C_16  and  O_17 
REMARK    5  A    between atoms: C_19  and  C_20 
REMARK    6  A    between atoms: C_20  and  S_21 
REMARK    7  A    between atoms: S_21  and  C_22 
REMARK    8  A    between atoms: C_22  and  C_23 
ROOT
HETATM    1  N   UNK N   1      35.416  13.308  11.682  0.00  0.00     0.095 N 
HETATM    2  C   UNK N   1      35.782  12.717  10.406  0.00  0.00     0.304 C 
HETATM    3  C   UNK N   1      34.598  12.981   9.502  0.00  0.00     0.152 C 
HETATM    4  C   UNK N   1      34.875  14.589  11.267  0.00  0.00     0.280 C 
HETATM    5  C   UNK N   1      33.893  14.158  10.193  0.00  0.00     0.054 C 
ENDROOT
BRANCH   1   6
HETATM    6  C   UNK N   1      36.570  13.396  12.565  0.00  0.00     0.315 C 
BRANCH   6   7
HETATM    7  C   UNK N   1      36.127  13.314  14.009  0.00  0.00     0.015 A 
HETATM    8  C   UNK N   1      36.485  14.128  15.064  0.00  0.00     0.073 A 
HETATM    9  N   UNK N   1      37.329  15.189  15.108  0.00  0.00    -0.350 N 
HETATM   10  C   UNK N   1      35.810  13.705  16.155  0.00  0.00     0.103 A 
HETATM   11  C   UNK N   1      37.487  15.853  16.292  0.00  0.00     0.182 A 
ATOM     12  HN  UNK N   1      37.836  15.487  14.275  1.00  0.00     0.166 HD
HETATM   13  N   UNK N   1      36.807  15.447  17.409  0.00  0.00    -0.337 N 
HETATM   14  C   UNK N   1      35.965  14.371  17.364  0.00  0.00     0.129 A 
ATOM     15  HN  UNK N   1      36.930  15.952  18.286  1.00  0.00     0.168 HD
HETATM   16  N   UNK N   1      35.038  12.642  15.863  0.00  0.00    -0.360 N 
HETATM   17  C   UNK N   1      35.226  12.391  14.537  0.00  0.00     0.099 A 
HETATM   18  H   UNK N   1      34.456  12.145  16.482  0.00  0.00     0.165 HD
BRANCH  14  19
HETATM   19  N   UNK N   1      35.266  13.965  18.518  0.00  0.00    -0.384 N 
HETATM   20  H   UNK N   1      34.503  13.347  18.447  0.00  0.00     0.157 HD
HETATM   21  H   UNK N   1      35.542  14.302  19.400  0.00  0.00     0.157 HD
ENDBRANCH  14  19
ENDBRANCH   6   7
ENDBRANCH   1   6
BRANCH   3  22
HETATM   22  O   UNK N   1      35.068  13.276   8.223  0.00  0.00    -0.393 OA
HETATM   23  H   UNK N   1      34.930  13.184   7.266  0.00  0.00     0.210 HD
ENDBRANCH   3  22
BRANCH   5  24
HETATM   24  C   UNK N   1      33.327  15.247   9.281  0.00  0.00     0.083 C 
BRANCH  24  25
HETATM   25  S   UNK N   1      34.428  16.682   9.056  0.00  0.00    -0.164 SA
BRANCH  25  26
HETATM   26  C   UNK N   1      33.007  17.709   8.591  0.00  0.00     0.112 C 
BRANCH  26  27
HETATM   27  C   UNK N   1      32.619  17.487   7.172  0.00  0.00    -0.049 A 
HETATM   28  C   UNK N   1      33.601  17.544   6.178  0.00  0.00     0.008 A 
HETATM   29  C   UNK N   1      33.259  17.312   4.843  0.00  0.00     0.001 A 
HETATM   30  C   UNK N   1      31.934  17.028   4.500  0.00  0.00     0.000 A 
HETATM   31  C   UNK N   1      30.951  16.970   5.492  0.00  0.00     0.001 A 
HETATM   32  C   UNK N   1      31.292  17.192   6.828  0.00  0.00     0.008 A 
ENDBRANCH  26  27
ENDBRANCH  25  26
ENDBRANCH  24  25
ENDBRANCH   5  24
TORSDOF 8
ENDMDL
MODEL 9
REMARK VINA RESULT:      -6.4      2.715      3.815
REMARK  8 active torsions:
REMARK  status: ('A' for Active; 'I' for Inactive)
REMARK    1  A    between atoms: N_1  and  C_2 
REMARK    2  A    between atoms: C_12  and  C_13 
REMARK    3  A    between atoms: C_13  and  N_14 
REMARK    4  A    between atoms: C_16  and  O_17 
REMARK    5  A    between atoms: C_19  and  C_20 
REMARK    6  A    between atoms: C_20  and  S_21 
REMARK    7  A    between atoms: S_21  and  C_22 
REMARK    8  A    between atoms: C_22  and  C_23 
ROOT
HETATM    1  N   UNK N   1      35.073  13.862  10.340  0.00  0.00     0.095 N 
HETATM    2  C   UNK N   1      35.954  14.725  11.109  0.00  0.00     0.304 C 
HETATM    3  C   UNK N   1      35.695  14.356  12.553  0.00  0.00     0.152 C 
HETATM    4  C   UNK N   1      35.282  12.580  10.986  0.00  0.00     0.280 C 
HETATM    5  C   UNK N   1      35.081  12.951  12.445  0.00  0.00     0.054 C 
ENDROOT
BRANCH   1   6
HETATM    6  C   UNK N   1      35.422  13.890   8.927  0.00  0.00     0.315 C 
BRANCH   6   7
HETATM    7  C   UNK N   1      34.197  14.197   8.095  0.00  0.00     0.015 A 
HETATM    8  C   UNK N   1      33.847  15.387   7.489  0.00  0.00     0.073 A 
HETATM    9  N   UNK N   1      34.475  16.590   7.486  0.00  0.00    -0.350 N 
HETATM   10  C   UNK N   1      32.694  15.182   6.817  0.00  0.00     0.103 A 
HETATM   11  C   UNK N   1      33.926  17.615   6.770  0.00  0.00     0.182 A 
ATOM     12  HN  UNK N   1      35.340  16.727   8.007  1.00  0.00     0.166 HD
HETATM   13  N   UNK N   1      32.761  17.427   6.074  0.00  0.00    -0.337 N 
HETATM   14  C   UNK N   1      32.125  16.217   6.087  0.00  0.00     0.129 A 
ATOM     15  HN  UNK N   1      32.362  18.199   5.541  1.00  0.00     0.168 HD
HETATM   16  N   UNK N   1      32.266  13.914   6.969  0.00  0.00    -0.360 N 
HETATM   17  C   UNK N   1      33.189  13.296   7.758  0.00  0.00     0.099 A 
HETATM   18  H   UNK N   1      31.451  13.514   6.588  0.00  0.00     0.165 HD
BRANCH  14  19
HETATM   19  N   UNK N   1      30.930  16.033   5.364  0.00  0.00    -0.384 N 
HETATM   20  H   UNK N   1      30.529  16.781   4.865  0.00  0.00     0.157 HD
HETATM   21  H   UNK N   1      30.494  15.151   5.358  0.00  0.00     0.157 HD
ENDBRANCH  14  19
ENDBRANCH   6   7
ENDBRANCH   1   6
BRANCH   3  22
HETATM   22  O   UNK N   1      36.903  14.392  13.248  0.00  0.00    -0.393 OA
HETATM   23  H   UNK N   1      37.744  13.946  13.438  0.00  0.00     0.210 HD
ENDBRANCH   3  22
BRANCH   5  24
HETATM   24  C   UNK N   1      35.518  11.931  13.495  0.00  0.00     0.083 C 
BRANCH  24  25
HETATM   25  S   UNK N   1      34.169  11.335  14.566  0.00  0.00    -0.164 SA
BRANCH  25  26
HETATM   26  C   UNK N   1      35.384  10.688  15.748  0.00  0.00     0.112 C 
BRANCH  26  27
HETATM   27  C   UNK N   1      35.331  11.425  17.039  0.00  0.00    -0.049 A 
HETATM   28  C   UNK N   1      35.467  10.718  18.237  0.00  0.00     0.008 A 
HETATM   29  C   UNK N   1      35.446  11.398  19.458  0.00  0.00     0.001 A 
HETATM   30  C   UNK N   1      35.283  12.786  19.482  0.00  0.00     0.000 A 
HETATM   31  C   UNK N   1      35.146  13.496  18.285  0.00  0.00     0.001 A 
HETATM   32  C   UNK N   1      35.177  12.818  17.064  0.00  0.00     0.008 A 
ENDBRANCH  26  27
ENDBRANCH  25  26
ENDBRANCH  24  25
ENDBRANCH   5  24
TORSDOF 8
ENDMDL
