MODEL 1
REMARK VINA RESULT:      -4.5      0.000      0.000
REMARK  10 active torsions:
REMARK  status: ('A' for Active; 'I' for Inactive)
REMARK    1  A    between atoms: C_2  and  C_3 
REMARK    2  A    between atoms: C_3  and  C_4 
REMARK    3  A    between atoms: C_4  and  C_5 
REMARK    4  A    between atoms: C_5  and  C_6 
REMARK    5  A    between atoms: C_6  and  C_7 
REMARK    6  A    between atoms: C_7  and  C_8 
REMARK    7  A    between atoms: C_8  and  C_9 
REMARK    8  A    between atoms: C_9  and  C_10 
REMARK    9  A    between atoms: C_10  and  O_11 
REMARK   10  A    between atoms: O_11  and  C_12 
ROOT
HETATM    1  C   UNK N   1      25.434  20.488   2.578  0.00  0.00     0.000 C 
ENDROOT
BRANCH   1   2
HETATM    2  C   UNK N   1      25.973  19.433   3.517  0.00  0.00     0.000 C 
BRANCH   2   3
HETATM    3  C   UNK N   1      27.408  19.771   3.838  0.00  0.00     0.000 C 
BRANCH   3   4
HETATM    4  C   UNK N   1      27.900  18.924   4.988  0.00  0.00     0.000 C 
BRANCH   4   5
HETATM    5  C   UNK N   1      27.463  19.587   6.275  0.00  0.00    -0.000 C 
BRANCH   5   6
HETATM    6  C   UNK N   1      27.565  21.089   6.149  0.00  0.00    -0.005 C 
HETATM    7  C   UNK N   1      26.315  21.714   6.729  0.00  0.00     0.005 C 
ENDBRANCH   5   6
ENDBRANCH   4   5
ENDBRANCH   3   4
ENDBRANCH   2   3
ENDBRANCH   1   2
BRANCH   1   8
HETATM    8  C   UNK N   1      24.033  20.858   2.999  0.00  0.00     0.002 C 
BRANCH   8   9
HETATM    9  C   UNK N   1      23.284  19.613   3.414  0.00  0.00     0.027 C 
BRANCH   9  10
HETATM   10  C   UNK N   1      21.823  19.797   3.070  0.00  0.00     0.178 C 
BRANCH  10  11
HETATM   11  O   UNK N   1      21.677  20.862   2.224  0.00  0.00    -0.328 OA
BRANCH  11  12
HETATM   12  C   UNK N   1      20.758  20.809   1.242  0.00  0.00     0.398 C 
HETATM   13  O   UNK N   1      21.106  20.638   0.088  0.00  0.00    -0.276 OA
ENDBRANCH  11  12
ENDBRANCH  10  11
ENDBRANCH   9  10
ENDBRANCH   8   9
ENDBRANCH   1   8
TORSDOF 10
ENDMDL
MODEL 2
REMARK VINA RESULT:      -4.3      6.783      9.476
REMARK  10 active torsions:
REMARK  status: ('A' for Active; 'I' for Inactive)
REMARK    1  A    between atoms: C_2  and  C_3 
REMARK    2  A    between atoms: C_3  and  C_4 
REMARK    3  A    between atoms: C_4  and  C_5 
REMARK    4  A    between atoms: C_5  and  C_6 
REMARK    5  A    between atoms: C_6  and  C_7 
REMARK    6  A    between atoms: C_7  and  C_8 
REMARK    7  A    between atoms: C_8  and  C_9 
REMARK    8  A    between atoms: C_9  and  C_10 
REMARK    9  A    between atoms: C_10  and  O_11 
REMARK   10  A    between atoms: O_11  and  C_12 
ROOT
HETATM    1  C   UNK N   1      30.413  16.182   6.345  0.00  0.00     0.000 C 
ENDROOT
BRANCH   1   2
HETATM    2  C   UNK N   1      29.681  17.490   6.540  0.00  0.00     0.000 C 
BRANCH   2   3
HETATM    3  C   UNK N   1      28.206  17.244   6.332  0.00  0.00     0.000 C 
BRANCH   3   4
HETATM    4  C   UNK N   1      27.509  18.533   5.962  0.00  0.00     0.000 C 
BRANCH   4   5
HETATM    5  C   UNK N   1      27.867  19.571   7.002  0.00  0.00    -0.000 C 
BRANCH   5   6
HETATM    6  C   UNK N   1      27.599  20.959   6.467  0.00  0.00    -0.005 C 
HETATM    7  C   UNK N   1      26.451  20.891   5.484  0.00  0.00     0.005 C 
ENDBRANCH   5   6
ENDBRANCH   4   5
ENDBRANCH   3   4
ENDBRANCH   2   3
ENDBRANCH   1   2
BRANCH   1   8
HETATM    8  C   UNK N   1      31.598  16.134   7.278  0.00  0.00     0.002 C 
BRANCH   8   9
HETATM    9  C   UNK N   1      32.305  17.469   7.267  0.00  0.00     0.027 C 
BRANCH   9  10
HETATM   10  C   UNK N   1      33.502  17.369   6.350  0.00  0.00     0.178 C 
BRANCH  10  11
HETATM   11  O   UNK N   1      34.528  18.128   6.842  0.00  0.00    -0.328 OA
BRANCH  11  12
HETATM   12  C   UNK N   1      34.582  18.398   8.160  0.00  0.00     0.398 C 
HETATM   13  O   UNK N   1      35.298  19.292   8.571  0.00  0.00    -0.276 OA
ENDBRANCH  11  12
ENDBRANCH  10  11
ENDBRANCH   9  10
ENDBRANCH   8   9
ENDBRANCH   1   8
TORSDOF 10
ENDMDL
MODEL 3
REMARK VINA RESULT:      -4.2      8.281      9.258
REMARK  10 active torsions:
REMARK  status: ('A' for Active; 'I' for Inactive)
REMARK    1  A    between atoms: C_2  and  C_3 
REMARK    2  A    between atoms: C_3  and  C_4 
REMARK    3  A    between atoms: C_4  and  C_5 
REMARK    4  A    between atoms: C_5  and  C_6 
REMARK    5  A    between atoms: C_6  and  C_7 
REMARK    6  A    between atoms: C_7  and  C_8 
REMARK    7  A    between atoms: C_8  and  C_9 
REMARK    8  A    between atoms: C_9  and  C_10 
REMARK    9  A    between atoms: C_10  and  O_11 
REMARK   10  A    between atoms: O_11  and  C_12 
ROOT
HETATM    1  C   UNK N   1      21.144  12.855   9.671  0.00  0.00     0.000 C 
ENDROOT
BRANCH   1   2
HETATM    2  C   UNK N   1      21.618  12.552  11.074  0.00  0.00     0.000 C 
BRANCH   2   3
HETATM    3  C   UNK N   1      22.764  11.573  10.987  0.00  0.00     0.000 C 
BRANCH   3   4
HETATM    4  C   UNK N   1      23.537  11.788   9.707  0.00  0.00     0.000 C 
BRANCH   4   5
HETATM    5  C   UNK N   1      24.756  12.621  10.032  0.00  0.00    -0.000 C 
BRANCH   5   6
HETATM    6  C   UNK N   1      24.998  13.639   8.942  0.00  0.00    -0.005 C 
HETATM    7  C   UNK N   1      24.602  13.035   7.612  0.00  0.00     0.005 C 
ENDBRANCH   5   6
ENDBRANCH   4   5
ENDBRANCH   3   4
ENDBRANCH   2   3
ENDBRANCH   1   2
BRANCH   1   8
HETATM    8  C   UNK N   1      20.544  14.240   9.638  0.00  0.00     0.002 C 
BRANCH   8   9
HETATM    9  C   UNK N   1      21.257  15.074   8.600  0.00  0.00     0.027 C 
BRANCH   9  10
HETATM   10  C   UNK N   1      20.285  16.099   8.061  0.00  0.00     0.178 C 
BRANCH  10  11
HETATM   11  O   UNK N   1      20.564  17.327   8.593  0.00  0.00    -0.328 OA
BRANCH  11  12
HETATM   12  C   UNK N   1      19.564  18.080   9.090  0.00  0.00     0.398 C 
HETATM   13  O   UNK N   1      19.812  19.130   9.652  0.00  0.00    -0.276 OA
ENDBRANCH  11  12
ENDBRANCH  10  11
ENDBRANCH   9  10
ENDBRANCH   8   9
ENDBRANCH   1   8
TORSDOF 10
ENDMDL
MODEL 4
REMARK VINA RESULT:      -4.1      6.362      9.165
REMARK  10 active torsions:
REMARK  status: ('A' for Active; 'I' for Inactive)
REMARK    1  A    between atoms: C_2  and  C_3 
REMARK    2  A    between atoms: C_3  and  C_4 
REMARK    3  A    between atoms: C_4  and  C_5 
REMARK    4  A    between atoms: C_5  and  C_6 
REMARK    5  A    between atoms: C_6  and  C_7 
REMARK    6  A    between atoms: C_7  and  C_8 
REMARK    7  A    between atoms: C_8  and  C_9 
REMARK    8  A    between atoms: C_9  and  C_10 
REMARK    9  A    between atoms: C_10  and  O_11 
REMARK   10  A    between atoms: O_11  and  C_12 
ROOT
HETATM    1  C   UNK N   1      28.535  17.936   8.450  0.00  0.00     0.000 C 
ENDROOT
BRANCH   1   2
HETATM    2  C   UNK N   1      28.203  18.507   7.091  0.00  0.00     0.000 C 
BRANCH   2   3
HETATM    3  C   UNK N   1      27.634  19.892   7.284  0.00  0.00     0.000 C 
BRANCH   3   4
HETATM    4  C   UNK N   1      27.667  20.655   5.980  0.00  0.00     0.000 C 
BRANCH   4   5
HETATM    5  C   UNK N   1      27.828  19.655   4.858  0.00  0.00    -0.000 C 
BRANCH   5   6
HETATM    6  C   UNK N   1      27.079  20.121   3.631  0.00  0.00    -0.005 C 
HETATM    7  C   UNK N   1      25.596  19.918   3.858  0.00  0.00     0.005 C 
ENDBRANCH   5   6
ENDBRANCH   4   5
ENDBRANCH   3   4
ENDBRANCH   2   3
ENDBRANCH   1   2
BRANCH   1   8
HETATM    8  C   UNK N   1      29.911  18.400   8.861  0.00  0.00     0.002 C 
BRANCH   8   9
HETATM    9  C   UNK N   1      30.939  17.846   7.902  0.00  0.00     0.027 C 
BRANCH   9  10
HETATM   10  C   UNK N   1      32.284  17.842   8.592  0.00  0.00     0.178 C 
BRANCH  10  11
HETATM   11  O   UNK N   1      33.243  18.317   7.740  0.00  0.00    -0.328 OA
BRANCH  11  12
HETATM   12  C   UNK N   1      34.544  18.177   8.058  0.00  0.00     0.398 C 
HETATM   13  O   UNK N   1      35.178  19.130   8.469  0.00  0.00    -0.276 OA
ENDBRANCH  11  12
ENDBRANCH  10  11
ENDBRANCH   9  10
ENDBRANCH   8   9
ENDBRANCH   1   8
TORSDOF 10
ENDMDL
MODEL 5
REMARK VINA RESULT:      -4.1      1.364      2.067
REMARK  10 active torsions:
REMARK  status: ('A' for Active; 'I' for Inactive)
REMARK    1  A    between atoms: C_2  and  C_3 
REMARK    2  A    between atoms: C_3  and  C_4 
REMARK    3  A    between atoms: C_4  and  C_5 
REMARK    4  A    between atoms: C_5  and  C_6 
REMARK    5  A    between atoms: C_6  and  C_7 
REMARK    6  A    between atoms: C_7  and  C_8 
REMARK    7  A    between atoms: C_8  and  C_9 
REMARK    8  A    between atoms: C_9  and  C_10 
REMARK    9  A    between atoms: C_10  and  O_11 
REMARK   10  A    between atoms: O_11  and  C_12 
ROOT
HETATM    1  C   UNK N   1      26.290  20.514   3.076  0.00  0.00     0.000 C 
ENDROOT
BRANCH   1   2
HETATM    2  C   UNK N   1      26.601  19.931   4.435  0.00  0.00     0.000 C 
BRANCH   2   3
HETATM    3  C   UNK N   1      27.048  21.052   5.342  0.00  0.00     0.000 C 
BRANCH   3   4
HETATM    4  C   UNK N   1      27.194  20.550   6.760  0.00  0.00     0.000 C 
BRANCH   4   5
HETATM    5  C   UNK N   1      27.840  19.184   6.707  0.00  0.00    -0.000 C 
BRANCH   5   6
HETATM    6  C   UNK N   1      28.305  18.773   8.085  0.00  0.00    -0.005 C 
HETATM    7  C   UNK N   1      29.510  17.869   7.945  0.00  0.00     0.005 C 
ENDBRANCH   5   6
ENDBRANCH   4   5
ENDBRANCH   3   4
ENDBRANCH   2   3
ENDBRANCH   1   2
BRANCH   1   8
HETATM    8  C   UNK N   1      24.794  20.545   2.879  0.00  0.00     0.002 C 
BRANCH   8   9
HETATM    9  C   UNK N   1      24.151  19.470   3.725  0.00  0.00     0.027 C 
BRANCH   9  10
HETATM   10  C   UNK N   1      22.666  19.467   3.446  0.00  0.00     0.178 C 
BRANCH  10  11
HETATM   11  O   UNK N   1      22.271  20.707   3.026  0.00  0.00    -0.328 OA
BRANCH  11  12
HETATM   12  C   UNK N   1      21.106  20.846   2.365  0.00  0.00     0.398 C 
HETATM   13  O   UNK N   1      21.099  20.916   1.150  0.00  0.00    -0.276 OA
ENDBRANCH  11  12
ENDBRANCH  10  11
ENDBRANCH   9  10
ENDBRANCH   8   9
ENDBRANCH   1   8
TORSDOF 10
ENDMDL
MODEL 6
REMARK VINA RESULT:      -3.9      8.079     10.086
REMARK  10 active torsions:
REMARK  status: ('A' for Active; 'I' for Inactive)
REMARK    1  A    between atoms: C_2  and  C_3 
REMARK    2  A    between atoms: C_3  and  C_4 
REMARK    3  A    between atoms: C_4  and  C_5 
REMARK    4  A    between atoms: C_5  and  C_6 
REMARK    5  A    between atoms: C_6  and  C_7 
REMARK    6  A    between atoms: C_7  and  C_8 
REMARK    7  A    between atoms: C_8  and  C_9 
REMARK    8  A    between atoms: C_9  and  C_10 
REMARK    9  A    between atoms: C_10  and  O_11 
REMARK   10  A    between atoms: O_11  and  C_12 
ROOT
HETATM    1  C   UNK N   1      29.710  17.330   7.180  0.00  0.00     0.000 C 
ENDROOT
BRANCH   1   2
HETATM    2  C   UNK N   1      29.025  16.804   5.940  0.00  0.00     0.000 C 
BRANCH   2   3
HETATM    3  C   UNK N   1      29.511  17.602   4.755  0.00  0.00     0.000 C 
BRANCH   3   4
HETATM    4  C   UNK N   1      29.831  16.681   3.601  0.00  0.00     0.000 C 
BRANCH   4   5
HETATM    5  C   UNK N   1      31.249  16.188   3.777  0.00  0.00    -0.000 C 
BRANCH   5   6
HETATM    6  C   UNK N   1      32.229  17.232   3.292  0.00  0.00    -0.005 C 
HETATM    7  C   UNK N   1      33.154  17.600   4.432  0.00  0.00     0.005 C 
ENDBRANCH   5   6
ENDBRANCH   4   5
ENDBRANCH   3   4
ENDBRANCH   2   3
ENDBRANCH   1   2
BRANCH   1   8
HETATM    8  C   UNK N   1      30.980  16.548   7.415  0.00  0.00     0.002 C 
BRANCH   8   9
HETATM    9  C   UNK N   1      32.056  17.476   7.930  0.00  0.00     0.027 C 
BRANCH   9  10
HETATM   10  C   UNK N   1      33.008  16.674   8.788  0.00  0.00     0.178 C 
BRANCH  10  11
HETATM   11  O   UNK N   1      34.236  17.277   8.805  0.00  0.00    -0.328 OA
BRANCH  11  12
HETATM   12  C   UNK N   1      34.408  18.452   8.171  0.00  0.00     0.398 C 
HETATM   13  O   UNK N   1      35.318  19.192   8.495  0.00  0.00    -0.276 OA
ENDBRANCH  11  12
ENDBRANCH  10  11
ENDBRANCH   9  10
ENDBRANCH   8   9
ENDBRANCH   1   8
TORSDOF 10
ENDMDL
MODEL 7
REMARK VINA RESULT:      -3.9      9.401     11.846
REMARK  10 active torsions:
REMARK  status: ('A' for Active; 'I' for Inactive)
REMARK    1  A    between atoms: C_2  and  C_3 
REMARK    2  A    between atoms: C_3  and  C_4 
REMARK    3  A    between atoms: C_4  and  C_5 
REMARK    4  A    between atoms: C_5  and  C_6 
REMARK    5  A    between atoms: C_6  and  C_7 
REMARK    6  A    between atoms: C_7  and  C_8 
REMARK    7  A    between atoms: C_8  and  C_9 
REMARK    8  A    between atoms: C_9  and  C_10 
REMARK    9  A    between atoms: C_10  and  O_11 
REMARK   10  A    between atoms: O_11  and  C_12 
ROOT
HETATM    1  C   UNK N   1      32.964  16.473   6.801  0.00  0.00     0.000 C 
ENDROOT
BRANCH   1   2
HETATM    2  C   UNK N   1      31.598  17.068   6.546  0.00  0.00     0.000 C 
BRANCH   2   3
HETATM    3  C   UNK N   1      31.131  16.620   5.182  0.00  0.00     0.000 C 
BRANCH   3   4
HETATM    4  C   UNK N   1      31.464  17.668   4.146  0.00  0.00     0.000 C 
BRANCH   4   5
HETATM    5  C   UNK N   1      32.476  17.076   3.192  0.00  0.00    -0.000 C 
BRANCH   5   6
HETATM    6  C   UNK N   1      32.371  15.568   3.189  0.00  0.00    -0.005 C 
HETATM    7  C   UNK N   1      33.759  14.981   3.058  0.00  0.00     0.005 C 
ENDBRANCH   5   6
ENDBRANCH   4   5
ENDBRANCH   3   4
ENDBRANCH   2   3
ENDBRANCH   1   2
BRANCH   1   8
HETATM    8  C   UNK N   1      34.003  17.567   6.728  0.00  0.00     0.002 C 
BRANCH   8   9
HETATM    9  C   UNK N   1      34.170  18.195   8.092  0.00  0.00     0.027 C 
BRANCH   9  10
HETATM   10  C   UNK N   1      34.242  17.090   9.122  0.00  0.00     0.178 C 
BRANCH  10  11
HETATM   11  O   UNK N   1      35.053  17.471  10.155  0.00  0.00    -0.328 OA
BRANCH  11  12
HETATM   12  C   UNK N   1      35.605  16.533  10.948  0.00  0.00     0.398 C 
HETATM   13  O   UNK N   1      36.741  16.149  10.740  0.00  0.00    -0.276 OA
ENDBRANCH  11  12
ENDBRANCH  10  11
ENDBRANCH   9  10
ENDBRANCH   8   9
ENDBRANCH   1   8
TORSDOF 10
ENDMDL
MODEL 8
REMARK VINA RESULT:      -3.8     16.359     18.835
REMARK  10 active torsions:
REMARK  status: ('A' for Active; 'I' for Inactive)
REMARK    1  A    between atoms: C_2  and  C_3 
REMARK    2  A    between atoms: C_3  and  C_4 
REMARK    3  A    between atoms: C_4  and  C_5 
REMARK    4  A    between atoms: C_5  and  C_6 
REMARK    5  A    between atoms: C_6  and  C_7 
REMARK    6  A    between atoms: C_7  and  C_8 
REMARK    7  A    between atoms: C_8  and  C_9 
REMARK    8  A    between atoms: C_9  and  C_10 
REMARK    9  A    between atoms: C_10  and  O_11 
REMARK   10  A    between atoms: O_11  and  C_12 
ROOT
HETATM    1  C   UNK N   1      36.078   9.928  15.965  0.00  0.00     0.000 C 
ENDROOT
BRANCH   1   2
HETATM    2  C   UNK N   1      36.407  10.020  17.437  0.00  0.00     0.000 C 
BRANCH   2   3
HETATM    3  C   UNK N   1      35.222  10.625  18.151  0.00  0.00     0.000 C 
BRANCH   3   4
HETATM    4  C   UNK N   1      35.625  11.086  19.532  0.00  0.00     0.000 C 
BRANCH   4   5
HETATM    5  C   UNK N   1      35.351  12.570  19.626  0.00  0.00    -0.000 C 
BRANCH   5   6
HETATM    6  C   UNK N   1      35.037  13.131  18.258  0.00  0.00    -0.005 C 
HETATM    7  C   UNK N   1      35.512  14.566  18.197  0.00  0.00     0.005 C 
ENDBRANCH   5   6
ENDBRANCH   4   5
ENDBRANCH   3   4
ENDBRANCH   2   3
ENDBRANCH   1   2
BRANCH   1   8
HETATM    8  C   UNK N   1      34.599  10.160  15.771  0.00  0.00     0.002 C 
BRANCH   8   9
HETATM    9  C   UNK N   1      34.374  10.941  14.497  0.00  0.00     0.027 C 
BRANCH   9  10
HETATM   10  C   UNK N   1      34.731  12.388  14.754  0.00  0.00     0.178 C 
BRANCH  10  11
HETATM   11  O   UNK N   1      34.719  13.084  13.577  0.00  0.00    -0.328 OA
BRANCH  11  12
HETATM   12  C   UNK N   1      35.829  13.733  13.176  0.00  0.00     0.398 C 
HETATM   13  O   UNK N   1      36.796  13.105  12.789  0.00  0.00    -0.276 OA
ENDBRANCH  11  12
ENDBRANCH  10  11
ENDBRANCH   9  10
ENDBRANCH   8   9
ENDBRANCH   1   8
TORSDOF 10
ENDMDL
MODEL 9
REMARK VINA RESULT:      -3.8     13.914     16.668
REMARK  10 active torsions:
REMARK  status: ('A' for Active; 'I' for Inactive)
REMARK    1  A    between atoms: C_2  and  C_3 
REMARK    2  A    between atoms: C_3  and  C_4 
REMARK    3  A    between atoms: C_4  and  C_5 
REMARK    4  A    between atoms: C_5  and  C_6 
REMARK    5  A    between atoms: C_6  and  C_7 
REMARK    6  A    between atoms: C_7  and  C_8 
REMARK    7  A    between atoms: C_8  and  C_9 
REMARK    8  A    between atoms: C_9  and  C_10 
REMARK    9  A    between atoms: C_10  and  O_11 
REMARK   10  A    between atoms: O_11  and  C_12 
ROOT
HETATM    1  C   UNK N   1      35.677  13.584  14.385  0.00  0.00     0.000 C 
ENDROOT
BRANCH   1   2
HETATM    2  C   UNK N   1      36.492  12.939  15.482  0.00  0.00     0.000 C 
BRANCH   2   3
HETATM    3  C   UNK N   1      35.542  12.373  16.510  0.00  0.00     0.000 C 
BRANCH   3   4
HETATM    4  C   UNK N   1      35.657  10.867  16.552  0.00  0.00     0.000 C 
BRANCH   4   5
HETATM    5  C   UNK N   1      34.456  10.288  15.840  0.00  0.00    -0.000 C 
BRANCH   5   6
HETATM    6  C   UNK N   1      34.842   9.832  14.452  0.00  0.00    -0.005 C 
HETATM    7  C   UNK N   1      33.904  10.469  13.449  0.00  0.00     0.005 C 
ENDBRANCH   5   6
ENDBRANCH   4   5
ENDBRANCH   3   4
ENDBRANCH   2   3
ENDBRANCH   1   2
BRANCH   1   8
HETATM    8  C   UNK N   1      36.530  13.717  13.146  0.00  0.00     0.002 C 
BRANCH   8   9
HETATM    9  C   UNK N   1      36.115  14.950  12.378  0.00  0.00     0.027 C 
BRANCH   9  10
HETATM   10  C   UNK N   1      36.341  14.694  10.905  0.00  0.00     0.178 C 
BRANCH  10  11
HETATM   11  O   UNK N   1      35.530  15.508  10.164  0.00  0.00    -0.328 OA
BRANCH  11  12
HETATM   12  C   UNK N   1      35.291  16.767  10.581  0.00  0.00     0.398 C 
HETATM   13  O   UNK N   1      35.334  17.690   9.789  0.00  0.00    -0.276 OA
ENDBRANCH  11  12
ENDBRANCH  10  11
ENDBRANCH   9  10
ENDBRANCH   8   9
ENDBRANCH   1   8
TORSDOF 10
ENDMDL
