REMARK  12 active torsions:
REMARK  status: ('A' for Active; 'I' for Inactive)
REMARK    1  A    between atoms: C_1  and  C_5 
REMARK    2  A    between atoms: C_1  and  P_33 
REMARK    3  A    between atoms: O_2  and  P_33 
REMARK    4  A    between atoms: O_3  and  P_33 
REMARK    5  A    between atoms: C_8  and  C_11 
REMARK    6  A    between atoms: C_11  and  C_12 
REMARK    7  A    between atoms: C_12  and  C_13 
REMARK    8  A    between atoms: C_12  and  N_16 
REMARK       I    between atoms: C_13  and  N_15 
REMARK       I    between atoms: N_16  and  C_17 
REMARK    9  A    between atoms: C_17  and  C_18 
REMARK   10  A    between atoms: C_18  and  N_20 
REMARK   11  A    between atoms: C_18  and  C_21 
REMARK       I    between atoms: N_20  and  C_28 
REMARK   12  A    between atoms: C_21  and  C_22 
ROOT
HETATM    1  C   UNK N   1      -0.281   0.690   0.989  0.00  0.00     0.180 C 
ENDROOT
BRANCH   1   2
HETATM    2  C   UNK N   1      -1.140   0.022  -0.098  0.00  0.00     0.073 C 
BRANCH   2   3
HETATM    3  C   UNK N   1      -2.545   0.517  -0.225  0.00  0.00    -0.056 A 
HETATM    4  C   UNK N   1      -2.798   1.858  -0.530  0.00  0.00     0.008 A 
HETATM    5  C   UNK N   1      -4.103   2.299  -0.730  0.00  0.00     0.014 A 
HETATM    6  C   UNK N   1      -5.174   1.400  -0.653  0.00  0.00     0.025 A 
HETATM    7  C   UNK N   1      -4.921   0.052  -0.354  0.00  0.00     0.014 A 
HETATM    8  C   UNK N   1      -3.609  -0.386  -0.136  0.00  0.00     0.008 A 
BRANCH   6   9
HETATM    9  C   UNK N   1      -6.566   1.885  -0.949  0.00  0.00     0.364 C 
HETATM   10  F   UNK N   1      -7.465   0.833  -0.968  0.00  0.00    -0.187 F 
HETATM   11  F   UNK N   1      -6.570   2.491  -2.193  0.00  0.00    -0.187 F 
BRANCH   9  12
HETATM   12  P   UNK N   1      -7.133   3.113   0.334  0.00  0.00     0.315 P 
HETATM   13  O   UNK N   1      -6.137   4.295   0.472  0.00  0.00    -0.649 OA
BRANCH  12  14
HETATM   14  O   UNK N   1      -8.648   3.876  -0.029  0.00  0.00    -0.325 OA
HETATM   15  H   UNK N   1      -8.703   4.822  -0.232  0.00  0.00     0.220 HD
ENDBRANCH  12  14
BRANCH  12  16
HETATM   16  O   UNK N   1      -7.268   2.472   1.942  0.00  0.00    -0.325 OA
HETATM   17  H   UNK N   1      -7.616   2.358   2.840  0.00  0.00     0.220 HD
ENDBRANCH  12  16
ENDBRANCH   9  12
ENDBRANCH   6   9
ENDBRANCH   2   3
ENDBRANCH   1   2
BRANCH   1  18
HETATM   18  C   UNK N   1      -0.136   2.184   0.796  0.00  0.00     0.238 C 
HETATM   19  O   UNK N   1      -0.527   2.947   1.665  0.00  0.00    -0.271 OA
HETATM   20  N   UNK N   1       0.393   2.687  -0.337  0.00  0.00    -0.368 N 
HETATM   21  H   UNK N   1       0.905   2.536  -1.164  0.00  0.00     0.159 HD
HETATM   22  H   UNK N   1       0.162   3.644  -0.337  0.00  0.00     0.159 HD
ENDBRANCH   1  18
BRANCH   1  23
HETATM   23  N   UNK N   1       1.019   0.044   1.039  0.00  0.00    -0.346 N 
HETATM   24  C   UNK N   1       1.862  -0.103  -0.019  0.00  0.00     0.241 C 
HETATM   25  O   UNK N   1       1.549   0.305  -1.132  0.00  0.00    -0.271 OA
HETATM   26  H   UNK N   1       1.313  -0.316   1.907  0.00  0.00     0.163 HD
BRANCH  24  27
HETATM   27  C   UNK N   1       3.143  -0.879   0.159  0.00  0.00     0.180 C 
BRANCH  27  28
HETATM   28  N   UNK N   1       4.374  -0.151  -0.139  0.00  0.00    -0.348 N 
HETATM   29  C   UNK N   1       4.585   1.173  -0.396  0.00  0.00     0.214 C 
HETATM   30  O   UNK N   1       5.718   1.549  -0.641  0.00  0.00    -0.274 OA
HETATM   31  C   UNK N   1       3.503   2.200  -0.351  0.00  0.00     0.117 C 
HETATM   32  H   UNK N   1       5.186  -0.708  -0.157  0.00  0.00     0.163 HD
ENDBRANCH  27  28
BRANCH  27  33
HETATM   33  C   UNK N   1       3.111  -2.145  -0.712  0.00  0.00     0.073 C 
BRANCH  33  34
HETATM   34  C   UNK N   1       1.979  -3.073  -0.372  0.00  0.00    -0.056 A 
HETATM   35  C   UNK N   1       2.243  -4.271   0.299  0.00  0.00     0.007 A 
HETATM   36  C   UNK N   1       1.193  -5.135   0.632  0.00  0.00     0.001 A 
HETATM   37  C   UNK N   1      -0.122  -4.804   0.292  0.00  0.00     0.000 A 
HETATM   38  C   UNK N   1      -0.389  -3.614  -0.389  0.00  0.00     0.001 A 
HETATM   39  C   UNK N   1       0.660  -2.753  -0.723  0.00  0.00     0.007 A 
ENDBRANCH  33  34
ENDBRANCH  27  33
ENDBRANCH  24  27
ENDBRANCH   1  23
TORSDOF 12
