MODEL 1
REMARK VINA RESULT:      -8.1      0.000      0.000
REMARK  12 active torsions:
REMARK  status: ('A' for Active; 'I' for Inactive)
REMARK    1  A    between atoms: C_1  and  C_5 
REMARK    2  A    between atoms: C_1  and  P_33 
REMARK    3  A    between atoms: O_2  and  P_33 
REMARK    4  A    between atoms: O_3  and  P_33 
REMARK    5  A    between atoms: C_8  and  C_11 
REMARK    6  A    between atoms: C_11  and  C_12 
REMARK    7  A    between atoms: C_12  and  C_13 
REMARK    8  A    between atoms: C_12  and  N_16 
REMARK       I    between atoms: C_13  and  N_15 
REMARK       I    between atoms: N_16  and  C_17 
REMARK    9  A    between atoms: C_17  and  C_18 
REMARK   10  A    between atoms: C_18  and  N_20 
REMARK   11  A    between atoms: C_18  and  C_21 
REMARK       I    between atoms: N_20  and  C_28 
REMARK   12  A    between atoms: C_21  and  C_22 
ROOT
HETATM    1  C   UNK N   1      32.291  16.716   4.594  0.00  0.00     0.180 C 
ENDROOT
BRANCH   1   2
HETATM    2  C   UNK N   1      33.365  17.637   5.198  0.00  0.00     0.073 C 
BRANCH   2   3
HETATM    3  C   UNK N   1      34.011  17.158   6.458  0.00  0.00    -0.056 A 
HETATM    4  C   UNK N   1      34.044  17.975   7.592  0.00  0.00     0.008 A 
HETATM    5  C   UNK N   1      34.572  17.497   8.788  0.00  0.00     0.014 A 
HETATM    6  C   UNK N   1      35.053  16.184   8.875  0.00  0.00     0.025 A 
HETATM    7  C   UNK N   1      35.014  15.360   7.740  0.00  0.00     0.014 A 
HETATM    8  C   UNK N   1      34.498  15.849   6.533  0.00  0.00     0.008 A 
BRANCH   6   9
HETATM    9  C   UNK N   1      35.546  15.667  10.198  0.00  0.00     0.364 C 
HETATM   10  F   UNK N   1      35.738  16.702  11.096  0.00  0.00    -0.187 F 
HETATM   11  F   UNK N   1      36.756  15.025  10.000  0.00  0.00    -0.187 F 
BRANCH   9  12
HETATM   12  P   UNK N   1      34.330  14.467  10.942  0.00  0.00     0.315 P 
HETATM   13  O   UNK N   1      34.678  14.144  12.420  0.00  0.00    -0.649 OA
BRANCH  12  14
HETATM   14  O   UNK N   1      32.699  15.054  11.011  0.00  0.00    -0.325 OA
HETATM   15  H   UNK N   1      31.992  14.650  10.485  0.00  0.00     0.220 HD
ENDBRANCH  12  14
BRANCH  12  16
HETATM   16  O   UNK N   1      34.271  12.916  10.163  0.00  0.00    -0.325 OA
HETATM   17  H   UNK N   1      34.238  11.950  10.080  0.00  0.00     0.220 HD
ENDBRANCH  12  16
ENDBRANCH   9  12
ENDBRANCH   6   9
ENDBRANCH   2   3
ENDBRANCH   1   2
BRANCH   1  18
HETATM   18  C   UNK N   1      32.433  16.540   3.098  0.00  0.00     0.238 C 
HETATM   19  O   UNK N   1      33.324  15.833   2.654  0.00  0.00    -0.271 OA
HETATM   20  N   UNK N   1      31.608  17.178   2.245  0.00  0.00    -0.368 N 
HETATM   21  H   UNK N   1      30.773  17.680   2.101  0.00  0.00     0.159 HD
HETATM   22  H   UNK N   1      32.035  17.111   1.360  0.00  0.00     0.159 HD
ENDBRANCH   1  18
BRANCH   1  23
HETATM   23  N   UNK N   1      30.974  17.226   4.934  0.00  0.00    -0.346 N 
HETATM   24  C   UNK N   1      30.245  16.850   6.020  0.00  0.00     0.241 C 
HETATM   25  O   UNK N   1      30.671  16.006   6.801  0.00  0.00    -0.271 OA
HETATM   26  H   UNK N   1      30.577  17.895   4.331  0.00  0.00     0.163 HD
BRANCH  24  27
HETATM   27  C   UNK N   1      28.850  17.395   6.198  0.00  0.00     0.180 C 
BRANCH  27  28
HETATM   28  N   UNK N   1      28.160  16.989   7.420  0.00  0.00    -0.348 N 
HETATM   29  C   UNK N   1      28.242  17.476   8.693  0.00  0.00     0.214 C 
HETATM   30  O   UNK N   1      27.572  16.952   9.565  0.00  0.00    -0.274 OA
HETATM   31  C   UNK N   1      29.082  18.651   9.068  0.00  0.00     0.117 C 
HETATM   32  H   UNK N   1      27.531  16.239   7.307  0.00  0.00     0.163 HD
ENDBRANCH  27  28
BRANCH  27  33
HETATM   33  C   UNK N   1      27.977  16.994   4.998  0.00  0.00     0.073 C 
BRANCH  33  34
HETATM   34  C   UNK N   1      27.189  18.139   4.427  0.00  0.00    -0.056 A 
HETATM   35  C   UNK N   1      25.925  17.904   3.877  0.00  0.00     0.007 A 
HETATM   36  C   UNK N   1      25.178  18.967   3.355  0.00  0.00     0.001 A 
HETATM   37  C   UNK N   1      25.695  20.266   3.380  0.00  0.00     0.000 A 
HETATM   38  C   UNK N   1      26.962  20.504   3.918  0.00  0.00     0.001 A 
HETATM   39  C   UNK N   1      27.708  19.442   4.436  0.00  0.00     0.007 A 
ENDBRANCH  33  34
ENDBRANCH  27  33
ENDBRANCH  24  27
ENDBRANCH   1  23
TORSDOF 12
ENDMDL
MODEL 2
REMARK VINA RESULT:      -7.8      6.555     10.921
REMARK  12 active torsions:
REMARK  status: ('A' for Active; 'I' for Inactive)
REMARK    1  A    between atoms: C_1  and  C_5 
REMARK    2  A    between atoms: C_1  and  P_33 
REMARK    3  A    between atoms: O_2  and  P_33 
REMARK    4  A    between atoms: O_3  and  P_33 
REMARK    5  A    between atoms: C_8  and  C_11 
REMARK    6  A    between atoms: C_11  and  C_12 
REMARK    7  A    between atoms: C_12  and  C_13 
REMARK    8  A    between atoms: C_12  and  N_16 
REMARK       I    between atoms: C_13  and  N_15 
REMARK       I    between atoms: N_16  and  C_17 
REMARK    9  A    between atoms: C_17  and  C_18 
REMARK   10  A    between atoms: C_18  and  N_20 
REMARK   11  A    between atoms: C_18  and  C_21 
REMARK       I    between atoms: N_20  and  C_28 
REMARK   12  A    between atoms: C_21  and  C_22 
ROOT
HETATM    1  C   UNK N   1      27.102  18.960   5.325  0.00  0.00     0.180 C 
ENDROOT
BRANCH   1   2
HETATM    2  C   UNK N   1      26.630  19.124   3.871  0.00  0.00     0.073 C 
BRANCH   2   3
HETATM    3  C   UNK N   1      25.184  19.456   3.680  0.00  0.00    -0.056 A 
HETATM    4  C   UNK N   1      24.803  20.486   2.815  0.00  0.00     0.008 A 
HETATM    5  C   UNK N   1      23.455  20.739   2.574  0.00  0.00     0.014 A 
HETATM    6  C   UNK N   1      22.468  19.949   3.176  0.00  0.00     0.025 A 
HETATM    7  C   UNK N   1      22.850  18.909   4.039  0.00  0.00     0.014 A 
HETATM    8  C   UNK N   1      24.205  18.668   4.293  0.00  0.00     0.008 A 
BRANCH   6   9
HETATM    9  C   UNK N   1      21.023  20.192   2.840  0.00  0.00     0.364 C 
HETATM   10  F   UNK N   1      20.891  21.238   1.943  0.00  0.00    -0.187 F 
HETATM   11  F   UNK N   1      20.346  20.519   4.002  0.00  0.00    -0.187 F 
BRANCH   9  12
HETATM   12  P   UNK N   1      20.247  18.675   2.084  0.00  0.00     0.315 P 
HETATM   13  O   UNK N   1      20.911  17.374   2.608  0.00  0.00    -0.649 OA
BRANCH  12  14
HETATM   14  O   UNK N   1      18.565  18.472   2.457  0.00  0.00    -0.325 OA
HETATM   15  H   UNK N   1      18.261  17.784   3.067  0.00  0.00     0.220 HD
ENDBRANCH  12  14
BRANCH  12  16
HETATM   16  O   UNK N   1      20.394  18.569   0.357  0.00  0.00    -0.325 OA
HETATM   17  H   UNK N   1      20.132  18.395  -0.560  0.00  0.00     0.220 HD
ENDBRANCH  12  16
ENDBRANCH   9  12
ENDBRANCH   6   9
ENDBRANCH   2   3
ENDBRANCH   1   2
BRANCH   1  18
HETATM   18  C   UNK N   1      27.064  20.253   6.111  0.00  0.00     0.238 C 
HETATM   19  O   UNK N   1      27.319  21.308   5.552  0.00  0.00    -0.271 OA
HETATM   20  N   UNK N   1      26.780  20.254   7.428  0.00  0.00    -0.368 N 
HETATM   21  H   UNK N   1      26.427  19.774   8.212  0.00  0.00     0.159 HD
HETATM   22  H   UNK N   1      27.050  21.141   7.758  0.00  0.00     0.159 HD
ENDBRANCH   1  18
BRANCH   1  23
HETATM   23  N   UNK N   1      28.436  18.385   5.336  0.00  0.00    -0.346 N 
HETATM   24  C   UNK N   1      28.957  17.633   6.343  0.00  0.00     0.241 C 
HETATM   25  O   UNK N   1      28.305  17.402   7.355  0.00  0.00    -0.271 OA
HETATM   26  H   UNK N   1      29.008  18.553   4.552  0.00  0.00     0.163 HD
BRANCH  24  27
HETATM   27  C   UNK N   1      30.392  17.178   6.259  0.00  0.00     0.180 C 
BRANCH  27  28
HETATM   28  N   UNK N   1      30.722  16.321   5.122  0.00  0.00    -0.348 N 
HETATM   29  C   UNK N   1      31.671  16.459   4.151  0.00  0.00     0.214 C 
HETATM   30  O   UNK N   1      31.745  15.610   3.280  0.00  0.00    -0.274 OA
HETATM   31  C   UNK N   1      32.659  17.577   4.121  0.00  0.00     0.117 C 
HETATM   32  H   UNK N   1      30.168  15.511   5.045  0.00  0.00     0.163 HD
ENDBRANCH  27  28
BRANCH  27  33
HETATM   33  C   UNK N   1      30.780  16.436   7.548  0.00  0.00     0.073 C 
BRANCH  33  34
HETATM   34  C   UNK N   1      32.155  16.783   8.044  0.00  0.00    -0.056 A 
HETATM   35  C   UNK N   1      32.847  15.881   8.857  0.00  0.00     0.007 A 
HETATM   36  C   UNK N   1      34.134  16.190   9.313  0.00  0.00     0.001 A 
HETATM   37  C   UNK N   1      34.730  17.404   8.959  0.00  0.00     0.000 A 
HETATM   38  C   UNK N   1      34.038  18.314   8.156  0.00  0.00     0.001 A 
HETATM   39  C   UNK N   1      32.752  18.005   7.704  0.00  0.00     0.007 A 
ENDBRANCH  33  34
ENDBRANCH  27  33
ENDBRANCH  24  27
ENDBRANCH   1  23
TORSDOF 12
ENDMDL
MODEL 3
REMARK VINA RESULT:      -7.7      3.651      5.437
REMARK  12 active torsions:
REMARK  status: ('A' for Active; 'I' for Inactive)
REMARK    1  A    between atoms: C_1  and  C_5 
REMARK    2  A    between atoms: C_1  and  P_33 
REMARK    3  A    between atoms: O_2  and  P_33 
REMARK    4  A    between atoms: O_3  and  P_33 
REMARK    5  A    between atoms: C_8  and  C_11 
REMARK    6  A    between atoms: C_11  and  C_12 
REMARK    7  A    between atoms: C_12  and  C_13 
REMARK    8  A    between atoms: C_12  and  N_16 
REMARK       I    between atoms: C_13  and  N_15 
REMARK       I    between atoms: N_16  and  C_17 
REMARK    9  A    between atoms: C_17  and  C_18 
REMARK   10  A    between atoms: C_18  and  N_20 
REMARK   11  A    between atoms: C_18  and  C_21 
REMARK       I    between atoms: N_20  and  C_28 
REMARK   12  A    between atoms: C_21  and  C_22 
ROOT
HETATM    1  C   UNK N   1      27.554  17.975   5.881  0.00  0.00     0.180 C 
ENDROOT
BRANCH   1   2
HETATM    2  C   UNK N   1      28.034  17.592   7.291  0.00  0.00     0.073 C 
BRANCH   2   3
HETATM    3  C   UNK N   1      29.515  17.564   7.498  0.00  0.00    -0.056 A 
HETATM    4  C   UNK N   1      30.353  16.985   6.541  0.00  0.00     0.008 A 
HETATM    5  C   UNK N   1      31.735  17.034   6.695  0.00  0.00     0.014 A 
HETATM    6  C   UNK N   1      32.302  17.686   7.797  0.00  0.00     0.025 A 
HETATM    7  C   UNK N   1      31.462  18.275   8.755  0.00  0.00     0.014 A 
HETATM    8  C   UNK N   1      30.072  18.209   8.607  0.00  0.00     0.008 A 
BRANCH   6   9
HETATM    9  C   UNK N   1      33.798  17.792   7.901  0.00  0.00     0.364 C 
HETATM   10  F   UNK N   1      34.182  19.075   8.252  0.00  0.00    -0.187 F 
HETATM   11  F   UNK N   1      34.352  17.488   6.669  0.00  0.00    -0.187 F 
BRANCH   9  12
HETATM   12  P   UNK N   1      34.465  16.613   9.182  0.00  0.00     0.315 P 
HETATM   13  O   UNK N   1      35.305  15.481   8.533  0.00  0.00    -0.649 OA
BRANCH  12  14
HETATM   14  O   UNK N   1      35.547  17.340  10.326  0.00  0.00    -0.325 OA
HETATM   15  H   UNK N   1      35.846  16.863  11.115  0.00  0.00     0.220 HD
ENDBRANCH  12  14
BRANCH  12  16
HETATM   16  O   UNK N   1      33.251  15.778  10.101  0.00  0.00    -0.325 OA
HETATM   17  H   UNK N   1      32.678  15.049  10.382  0.00  0.00     0.220 HD
ENDBRANCH  12  16
ENDBRANCH   9  12
ENDBRANCH   6   9
ENDBRANCH   2   3
ENDBRANCH   1   2
BRANCH   1  18
HETATM   18  C   UNK N   1      27.757  19.441   5.563  0.00  0.00     0.238 C 
HETATM   19  O   UNK N   1      27.523  20.283   6.416  0.00  0.00    -0.271 OA
HETATM   20  N   UNK N   1      28.165  19.833   4.340  0.00  0.00    -0.368 N 
HETATM   21  H   UNK N   1      28.558  19.595   3.470  0.00  0.00     0.159 HD
HETATM   22  H   UNK N   1      27.990  20.801   4.299  0.00  0.00     0.159 HD
ENDBRANCH   1  18
BRANCH   1  23
HETATM   23  N   UNK N   1      26.159  17.599   5.730  0.00  0.00    -0.346 N 
HETATM   24  C   UNK N   1      25.542  17.339   4.546  0.00  0.00     0.241 C 
HETATM   25  O   UNK N   1      26.153  17.429   3.487  0.00  0.00    -0.271 OA
HETATM   26  H   UNK N   1      25.617  17.527   6.549  0.00  0.00     0.163 HD
BRANCH  24  27
HETATM   27  C   UNK N   1      24.061  17.050   4.532  0.00  0.00     0.180 C 
BRANCH  27  28
HETATM   28  N   UNK N   1      23.293  17.612   5.639  0.00  0.00    -0.348 N 
HETATM   29  C   UNK N   1      22.021  18.107   5.680  0.00  0.00     0.214 C 
HETATM   30  O   UNK N   1      21.598  18.548   6.734  0.00  0.00    -0.274 OA
HETATM   31  C   UNK N   1      21.100  18.099   4.506  0.00  0.00     0.117 C 
HETATM   32  H   UNK N   1      23.772  17.638   6.500  0.00  0.00     0.163 HD
ENDBRANCH  27  28
BRANCH  27  33
HETATM   33  C   UNK N   1      23.827  15.531   4.507  0.00  0.00     0.073 C 
BRANCH  33  34
HETATM   34  C   UNK N   1      23.598  14.986   3.125  0.00  0.00    -0.056 A 
HETATM   35  C   UNK N   1      24.636  14.329   2.458  0.00  0.00     0.007 A 
HETATM   36  C   UNK N   1      24.427  13.806   1.177  0.00  0.00     0.001 A 
HETATM   37  C   UNK N   1      23.180  13.942   0.559  0.00  0.00     0.000 A 
HETATM   38  C   UNK N   1      22.144  14.609   1.216  0.00  0.00     0.001 A 
HETATM   39  C   UNK N   1      22.354  15.132   2.495  0.00  0.00     0.007 A 
ENDBRANCH  33  34
ENDBRANCH  27  33
ENDBRANCH  24  27
ENDBRANCH   1  23
TORSDOF 12
ENDMDL
MODEL 4
REMARK VINA RESULT:      -7.7     10.850     13.380
REMARK  12 active torsions:
REMARK  status: ('A' for Active; 'I' for Inactive)
REMARK    1  A    between atoms: C_1  and  C_5 
REMARK    2  A    between atoms: C_1  and  P_33 
REMARK    3  A    between atoms: O_2  and  P_33 
REMARK    4  A    between atoms: O_3  and  P_33 
REMARK    5  A    between atoms: C_8  and  C_11 
REMARK    6  A    between atoms: C_11  and  C_12 
REMARK    7  A    between atoms: C_12  and  C_13 
REMARK    8  A    between atoms: C_12  and  N_16 
REMARK       I    between atoms: C_13  and  N_15 
REMARK       I    between atoms: N_16  and  C_17 
REMARK    9  A    between atoms: C_17  and  C_18 
REMARK   10  A    between atoms: C_18  and  N_20 
REMARK   11  A    between atoms: C_18  and  C_21 
REMARK       I    between atoms: N_20  and  C_28 
REMARK   12  A    between atoms: C_21  and  C_22 
ROOT
HETATM    1  C   UNK N   1      20.552  13.201   4.159  0.00  0.00     0.180 C 
ENDROOT
BRANCH   1   2
HETATM    2  C   UNK N   1      21.217  13.920   2.974  0.00  0.00     0.073 C 
BRANCH   2   3
HETATM    3  C   UNK N   1      21.002  15.398   2.894  0.00  0.00    -0.056 A 
HETATM    4  C   UNK N   1      20.068  15.930   2.000  0.00  0.00     0.008 A 
HETATM    5  C   UNK N   1      19.809  17.298   1.986  0.00  0.00     0.014 A 
HETATM    6  C   UNK N   1      20.463  18.152   2.883  0.00  0.00     0.025 A 
HETATM    7  C   UNK N   1      21.395  17.618   3.786  0.00  0.00     0.014 A 
HETATM    8  C   UNK N   1      21.667  16.244   3.787  0.00  0.00     0.008 A 
BRANCH   6   9
HETATM    9  C   UNK N   1      20.109  19.613   2.900  0.00  0.00     0.364 C 
HETATM   10  F   UNK N   1      20.504  20.206   4.086  0.00  0.00    -0.187 F 
HETATM   11  F   UNK N   1      18.736  19.739   2.779  0.00  0.00    -0.187 F 
BRANCH   9  12
HETATM   12  P   UNK N   1      20.935  20.517   1.494  0.00  0.00     0.315 P 
HETATM   13  O   UNK N   1      22.480  20.492   1.628  0.00  0.00    -0.649 OA
BRANCH  12  14
HETATM   14  O   UNK N   1      20.635  19.829  -0.070  0.00  0.00    -0.325 OA
HETATM   15  H   UNK N   1      20.675  20.366  -0.876  0.00  0.00     0.220 HD
ENDBRANCH  12  14
BRANCH  12  16
HETATM   16  O   UNK N   1      20.538  22.203   1.383  0.00  0.00    -0.325 OA
HETATM   17  H   UNK N   1      20.367  23.063   0.968  0.00  0.00     0.220 HD
ENDBRANCH  12  16
ENDBRANCH   9  12
ENDBRANCH   6   9
ENDBRANCH   2   3
ENDBRANCH   1   2
BRANCH   1  18
HETATM   18  C   UNK N   1      19.044  13.148   4.051  0.00  0.00     0.238 C 
HETATM   19  O   UNK N   1      18.363  13.929   4.697  0.00  0.00    -0.271 OA
HETATM   20  N   UNK N   1      18.438  12.229   3.273  0.00  0.00    -0.368 N 
HETATM   21  H   UNK N   1      18.507  11.559   2.556  0.00  0.00     0.159 HD
HETATM   22  H   UNK N   1      17.493  12.228   3.549  0.00  0.00     0.159 HD
ENDBRANCH   1  18
BRANCH   1  23
HETATM   23  N   UNK N   1      20.962  13.838   5.399  0.00  0.00    -0.346 N 
HETATM   24  C   UNK N   1      21.046  13.218   6.608  0.00  0.00     0.241 C 
HETATM   25  O   UNK N   1      20.749  12.035   6.728  0.00  0.00    -0.271 OA
HETATM   26  H   UNK N   1      21.197  14.793   5.361  0.00  0.00     0.163 HD
BRANCH  24  27
HETATM   27  C   UNK N   1      21.398  14.028   7.830  0.00  0.00     0.180 C 
BRANCH  27  28
HETATM   28  N   UNK N   1      21.388  15.479   7.657  0.00  0.00    -0.348 N 
HETATM   29  C   UNK N   1      20.542  16.429   8.151  0.00  0.00     0.214 C 
HETATM   30  O   UNK N   1      20.727  17.594   7.846  0.00  0.00    -0.274 OA
HETATM   31  C   UNK N   1      19.420  16.121   9.086  0.00  0.00     0.117 C 
HETATM   32  H   UNK N   1      22.113  15.829   7.089  0.00  0.00     0.163 HD
ENDBRANCH  27  28
BRANCH  27  33
HETATM   33  C   UNK N   1      22.785  13.615   8.348  0.00  0.00     0.073 C 
BRANCH  33  34
HETATM   34  C   UNK N   1      22.747  12.973   9.706  0.00  0.00    -0.056 A 
HETATM   35  C   UNK N   1      23.939  12.572  10.316  0.00  0.00     0.007 A 
HETATM   36  C   UNK N   1      23.914  11.985  11.587  0.00  0.00     0.001 A 
HETATM   37  C   UNK N   1      22.697  11.797  12.249  0.00  0.00     0.000 A 
HETATM   38  C   UNK N   1      21.503  12.186  11.638  0.00  0.00     0.001 A 
HETATM   39  C   UNK N   1      21.528  12.769  10.368  0.00  0.00     0.007 A 
ENDBRANCH  33  34
ENDBRANCH  27  33
ENDBRANCH  24  27
ENDBRANCH   1  23
TORSDOF 12
ENDMDL
MODEL 5
REMARK VINA RESULT:      -7.5      3.635      5.255
REMARK  12 active torsions:
REMARK  status: ('A' for Active; 'I' for Inactive)
REMARK    1  A    between atoms: C_1  and  C_5 
REMARK    2  A    between atoms: C_1  and  P_33 
REMARK    3  A    between atoms: O_2  and  P_33 
REMARK    4  A    between atoms: O_3  and  P_33 
REMARK    5  A    between atoms: C_8  and  C_11 
REMARK    6  A    between atoms: C_11  and  C_12 
REMARK    7  A    between atoms: C_12  and  C_13 
REMARK    8  A    between atoms: C_12  and  N_16 
REMARK       I    between atoms: C_13  and  N_15 
REMARK       I    between atoms: N_16  and  C_17 
REMARK    9  A    between atoms: C_17  and  C_18 
REMARK   10  A    between atoms: C_18  and  N_20 
REMARK   11  A    between atoms: C_18  and  C_21 
REMARK       I    between atoms: N_20  and  C_28 
REMARK   12  A    between atoms: C_21  and  C_22 
ROOT
HETATM    1  C   UNK N   1      27.416  17.615   5.966  0.00  0.00     0.180 C 
ENDROOT
BRANCH   1   2
HETATM    2  C   UNK N   1      28.137  16.955   7.153  0.00  0.00     0.073 C 
BRANCH   2   3
HETATM    3  C   UNK N   1      29.597  17.250   7.284  0.00  0.00    -0.056 A 
HETATM    4  C   UNK N   1      30.084  17.925   8.408  0.00  0.00     0.008 A 
HETATM    5  C   UNK N   1      31.452  18.126   8.569  0.00  0.00     0.014 A 
HETATM    6  C   UNK N   1      32.356  17.633   7.621  0.00  0.00     0.025 A 
HETATM    7  C   UNK N   1      31.870  16.949   6.496  0.00  0.00     0.014 A 
HETATM    8  C   UNK N   1      30.492  16.763   6.327  0.00  0.00     0.008 A 
BRANCH   6   9
HETATM    9  C   UNK N   1      33.833  17.795   7.856  0.00  0.00     0.364 C 
HETATM   10  F   UNK N   1      34.130  19.078   8.281  0.00  0.00    -0.187 F 
HETATM   11  F   UNK N   1      34.500  17.558   6.668  0.00  0.00    -0.187 F 
BRANCH   9  12
HETATM   12  P   UNK N   1      34.439  16.597   9.150  0.00  0.00     0.315 P 
HETATM   13  O   UNK N   1      35.263  15.444   8.518  0.00  0.00    -0.649 OA
BRANCH  12  14
HETATM   14  O   UNK N   1      35.513  17.294  10.320  0.00  0.00    -0.325 OA
HETATM   15  H   UNK N   1      35.720  16.841  11.151  0.00  0.00     0.220 HD
ENDBRANCH  12  14
BRANCH  12  16
HETATM   16  O   UNK N   1      33.183  15.794  10.040  0.00  0.00    -0.325 OA
HETATM   17  H   UNK N   1      32.453  15.179  10.212  0.00  0.00     0.220 HD
ENDBRANCH  12  16
ENDBRANCH   9  12
ENDBRANCH   6   9
ENDBRANCH   2   3
ENDBRANCH   1   2
BRANCH   1  18
HETATM   18  C   UNK N   1      27.615  19.114   5.910  0.00  0.00     0.238 C 
HETATM   19  O   UNK N   1      28.230  19.609   4.978  0.00  0.00    -0.271 OA
HETATM   20  N   UNK N   1      27.148  19.912   6.891  0.00  0.00    -0.368 N 
HETATM   21  H   UNK N   1      26.563  20.024   7.675  0.00  0.00     0.159 HD
HETATM   22  H   UNK N   1      27.598  20.779   6.767  0.00  0.00     0.159 HD
ENDBRANCH   1  18
BRANCH   1  23
HETATM   23  N   UNK N   1      26.003  17.281   6.016  0.00  0.00    -0.346 N 
HETATM   24  C   UNK N   1      25.202  17.101   4.930  0.00  0.00     0.241 C 
HETATM   25  O   UNK N   1      25.644  17.236   3.795  0.00  0.00    -0.271 OA
HETATM   26  H   UNK N   1      25.593  17.176   6.905  0.00  0.00     0.163 HD
BRANCH  24  27
HETATM   27  C   UNK N   1      23.729  16.847   5.133  0.00  0.00     0.180 C 
BRANCH  27  28
HETATM   28  N   UNK N   1      23.391  15.745   6.031  0.00  0.00    -0.348 N 
HETATM   29  C   UNK N   1      22.344  15.589   6.892  0.00  0.00     0.214 C 
HETATM   30  O   UNK N   1      22.285  14.573   7.563  0.00  0.00    -0.274 OA
HETATM   31  C   UNK N   1      21.237  16.581   7.028  0.00  0.00     0.117 C 
HETATM   32  H   UNK N   1      24.024  14.991   6.010  0.00  0.00     0.163 HD
ENDBRANCH  27  28
BRANCH  27  33
HETATM   33  C   UNK N   1      23.054  16.586   3.777  0.00  0.00     0.073 C 
BRANCH  33  34
HETATM   34  C   UNK N   1      21.927  17.535   3.481  0.00  0.00    -0.056 A 
HETATM   35  C   UNK N   1      22.076  18.897   3.762  0.00  0.00     0.007 A 
HETATM   36  C   UNK N   1      21.037  19.790   3.476  0.00  0.00     0.001 A 
HETATM   37  C   UNK N   1      19.846  19.323   2.912  0.00  0.00     0.000 A 
HETATM   38  C   UNK N   1      19.688  17.962   2.641  0.00  0.00     0.001 A 
HETATM   39  C   UNK N   1      20.725  17.071   2.929  0.00  0.00     0.007 A 
ENDBRANCH  33  34
ENDBRANCH  27  33
ENDBRANCH  24  27
ENDBRANCH   1  23
TORSDOF 12
ENDMDL
MODEL 6
REMARK VINA RESULT:      -7.5      4.765      9.822
REMARK  12 active torsions:
REMARK  status: ('A' for Active; 'I' for Inactive)
REMARK    1  A    between atoms: C_1  and  C_5 
REMARK    2  A    between atoms: C_1  and  P_33 
REMARK    3  A    between atoms: O_2  and  P_33 
REMARK    4  A    between atoms: O_3  and  P_33 
REMARK    5  A    between atoms: C_8  and  C_11 
REMARK    6  A    between atoms: C_11  and  C_12 
REMARK    7  A    between atoms: C_12  and  C_13 
REMARK    8  A    between atoms: C_12  and  N_16 
REMARK       I    between atoms: C_13  and  N_15 
REMARK       I    between atoms: N_16  and  C_17 
REMARK    9  A    between atoms: C_17  and  C_18 
REMARK   10  A    between atoms: C_18  and  N_20 
REMARK   11  A    between atoms: C_18  and  C_21 
REMARK       I    between atoms: N_20  and  C_28 
REMARK   12  A    between atoms: C_21  and  C_22 
ROOT
HETATM    1  C   UNK N   1      33.349  16.911   8.811  0.00  0.00     0.180 C 
ENDROOT
BRANCH   1   2
HETATM    2  C   UNK N   1      31.992  16.219   8.600  0.00  0.00     0.073 C 
BRANCH   2   3
HETATM    3  C   UNK N   1      30.948  17.017   7.888  0.00  0.00    -0.056 A 
HETATM    4  C   UNK N   1      30.698  16.804   6.528  0.00  0.00     0.008 A 
HETATM    5  C   UNK N   1      29.670  17.488   5.886  0.00  0.00     0.014 A 
HETATM    6  C   UNK N   1      28.859  18.378   6.600  0.00  0.00     0.025 A 
HETATM    7  C   UNK N   1      29.103  18.589   7.966  0.00  0.00     0.014 A 
HETATM    8  C   UNK N   1      30.149  17.912   8.606  0.00  0.00     0.008 A 
BRANCH   6   9
HETATM    9  C   UNK N   1      27.707  19.047   5.902  0.00  0.00     0.364 C 
HETATM   10  F   UNK N   1      28.130  19.700   4.758  0.00  0.00    -0.187 F 
HETATM   11  F   UNK N   1      27.147  19.977   6.760  0.00  0.00    -0.187 F 
BRANCH   9  12
HETATM   12  P   UNK N   1      26.407  17.802   5.415  0.00  0.00     0.315 P 
HETATM   13  O   UNK N   1      26.698  17.190   4.018  0.00  0.00    -0.649 OA
BRANCH  12  14
HETATM   14  O   UNK N   1      26.307  16.426   6.467  0.00  0.00    -0.325 OA
HETATM   15  H   UNK N   1      26.631  16.462   7.379  0.00  0.00     0.220 HD
ENDBRANCH  12  14
BRANCH  12  16
HETATM   16  O   UNK N   1      24.801  18.446   5.278  0.00  0.00    -0.325 OA
HETATM   17  H   UNK N   1      23.908  18.706   5.553  0.00  0.00     0.220 HD
ENDBRANCH  12  16
ENDBRANCH   9  12
ENDBRANCH   6   9
ENDBRANCH   2   3
ENDBRANCH   1   2
BRANCH   1  18
HETATM   18  C   UNK N   1      34.108  17.135   7.521  0.00  0.00     0.238 C 
HETATM   19  O   UNK N   1      34.507  18.254   7.240  0.00  0.00    -0.271 OA
HETATM   20  N   UNK N   1      34.325  16.120   6.661  0.00  0.00    -0.368 N 
HETATM   21  H   UNK N   1      34.332  15.150   6.491  0.00  0.00     0.159 HD
HETATM   22  H   UNK N   1      34.605  16.541   5.817  0.00  0.00     0.159 HD
ENDBRANCH   1  18
BRANCH   1  23
HETATM   23  N   UNK N   1      34.141  16.140   9.753  0.00  0.00    -0.346 N 
HETATM   24  C   UNK N   1      35.224  16.606  10.432  0.00  0.00     0.241 C 
HETATM   25  O   UNK N   1      35.623  17.753  10.265  0.00  0.00    -0.271 OA
HETATM   26  H   UNK N   1      33.873  15.206   9.913  0.00  0.00     0.163 HD
BRANCH  24  27
HETATM   27  C   UNK N   1      36.008  15.663  11.310  0.00  0.00     0.180 C 
BRANCH  27  28
HETATM   28  N   UNK N   1      37.251  15.149  10.740  0.00  0.00    -0.348 N 
HETATM   29  C   UNK N   1      37.467  14.298   9.695  0.00  0.00     0.214 C 
HETATM   30  O   UNK N   1      38.612  13.994   9.413  0.00  0.00    -0.274 OA
HETATM   31  C   UNK N   1      36.369  13.749   8.845  0.00  0.00     0.117 C 
HETATM   32  H   UNK N   1      38.070  15.471  11.184  0.00  0.00     0.163 HD
ENDBRANCH  27  28
BRANCH  27  33
HETATM   33  C   UNK N   1      35.129  14.465  11.703  0.00  0.00     0.073 C 
BRANCH  33  34
HETATM   34  C   UNK N   1      35.509  13.857  13.024  0.00  0.00    -0.056 A 
HETATM   35  C   UNK N   1      34.995  12.607  13.385  0.00  0.00     0.007 A 
HETATM   36  C   UNK N   1      35.354  12.027  14.607  0.00  0.00     0.001 A 
HETATM   37  C   UNK N   1      36.225  12.697  15.472  0.00  0.00     0.000 A 
HETATM   38  C   UNK N   1      36.730  13.951  15.122  0.00  0.00     0.001 A 
HETATM   39  C   UNK N   1      36.370  14.530  13.902  0.00  0.00     0.007 A 
ENDBRANCH  33  34
ENDBRANCH  27  33
ENDBRANCH  24  27
ENDBRANCH   1  23
TORSDOF 12
ENDMDL
MODEL 7
REMARK VINA RESULT:      -7.4      2.523      3.577
REMARK  12 active torsions:
REMARK  status: ('A' for Active; 'I' for Inactive)
REMARK    1  A    between atoms: C_1  and  C_5 
REMARK    2  A    between atoms: C_1  and  P_33 
REMARK    3  A    between atoms: O_2  and  P_33 
REMARK    4  A    between atoms: O_3  and  P_33 
REMARK    5  A    between atoms: C_8  and  C_11 
REMARK    6  A    between atoms: C_11  and  C_12 
REMARK    7  A    between atoms: C_12  and  C_13 
REMARK    8  A    between atoms: C_12  and  N_16 
REMARK       I    between atoms: C_13  and  N_15 
REMARK       I    between atoms: N_16  and  C_17 
REMARK    9  A    between atoms: C_17  and  C_18 
REMARK   10  A    between atoms: C_18  and  N_20 
REMARK   11  A    between atoms: C_18  and  C_21 
REMARK       I    between atoms: N_20  and  C_28 
REMARK   12  A    between atoms: C_21  and  C_22 
ROOT
HETATM    1  C   UNK N   1      32.840  16.143   4.475  0.00  0.00     0.180 C 
ENDROOT
BRANCH   1   2
HETATM    2  C   UNK N   1      33.708  17.164   5.230  0.00  0.00     0.073 C 
BRANCH   2   3
HETATM    3  C   UNK N   1      34.106  16.790   6.621  0.00  0.00    -0.056 A 
HETATM    4  C   UNK N   1      34.149  17.759   7.629  0.00  0.00     0.008 A 
HETATM    5  C   UNK N   1      34.439  17.395   8.941  0.00  0.00     0.014 A 
HETATM    6  C   UNK N   1      34.665  16.053   9.271  0.00  0.00     0.025 A 
HETATM    7  C   UNK N   1      34.615  15.079   8.262  0.00  0.00     0.014 A 
HETATM    8  C   UNK N   1      34.341  15.449   6.939  0.00  0.00     0.008 A 
BRANCH   6   9
HETATM    9  C   UNK N   1      34.899  15.677  10.707  0.00  0.00     0.364 C 
HETATM   10  F   UNK N   1      33.795  15.032  11.238  0.00  0.00    -0.187 F 
HETATM   11  F   UNK N   1      35.130  16.829  11.437  0.00  0.00    -0.187 F 
BRANCH   9  12
HETATM   12  P   UNK N   1      36.370  14.542  10.870  0.00  0.00     0.315 P 
HETATM   13  O   UNK N   1      36.066  13.130  10.304  0.00  0.00    -0.649 OA
BRANCH  12  14
HETATM   14  O   UNK N   1      37.771  15.060   9.987  0.00  0.00    -0.325 OA
HETATM   15  H   UNK N   1      38.132  14.535   9.257  0.00  0.00     0.220 HD
ENDBRANCH  12  14
BRANCH  12  16
HETATM   16  O   UNK N   1      36.886  14.252  12.502  0.00  0.00    -0.325 OA
HETATM   17  H   UNK N   1      37.495  14.086  13.238  0.00  0.00     0.220 HD
ENDBRANCH  12  16
ENDBRANCH   9  12
ENDBRANCH   6   9
ENDBRANCH   2   3
ENDBRANCH   1   2
BRANCH   1  18
HETATM   18  C   UNK N   1      32.896  16.311   2.972  0.00  0.00     0.238 C 
HETATM   19  O   UNK N   1      33.743  15.712   2.328  0.00  0.00    -0.271 OA
HETATM   20  N   UNK N   1      32.042  17.138   2.336  0.00  0.00    -0.368 N 
HETATM   21  H   UNK N   1      31.215  17.670   2.359  0.00  0.00     0.159 HD
HETATM   22  H   UNK N   1      32.419  17.268   1.436  0.00  0.00     0.159 HD
ENDBRANCH   1  18
BRANCH   1  23
HETATM   23  N   UNK N   1      31.472  16.227   4.956  0.00  0.00    -0.346 N 
HETATM   24  C   UNK N   1      30.674  15.161   5.238  0.00  0.00     0.241 C 
HETATM   25  O   UNK N   1      31.078  14.015   5.077  0.00  0.00    -0.271 OA
HETATM   26  H   UNK N   1      31.092  17.125   5.089  0.00  0.00     0.163 HD
BRANCH  24  27
HETATM   27  C   UNK N   1      29.240  15.398   5.642  0.00  0.00     0.180 C 
BRANCH  27  28
HETATM   28  N   UNK N   1      28.227  14.859   4.738  0.00  0.00    -0.348 N 
HETATM   29  C   UNK N   1      26.946  14.454   4.977  0.00  0.00     0.214 C 
HETATM   30  O   UNK N   1      26.288  14.014   4.050  0.00  0.00    -0.274 OA
HETATM   31  C   UNK N   1      26.287  14.560   6.312  0.00  0.00     0.117 C 
HETATM   32  H   UNK N   1      28.517  14.776   3.800  0.00  0.00     0.163 HD
ENDBRANCH  27  28
BRANCH  27  33
HETATM   33  C   UNK N   1      28.986  16.905   5.805  0.00  0.00     0.073 C 
BRANCH  33  34
HETATM   34  C   UNK N   1      29.150  17.387   7.219  0.00  0.00    -0.056 A 
HETATM   35  C   UNK N   1      30.399  17.839   7.656  0.00  0.00     0.007 A 
HETATM   36  C   UNK N   1      30.558  18.303   8.967  0.00  0.00     0.001 A 
HETATM   37  C   UNK N   1      29.469  18.313   9.844  0.00  0.00     0.000 A 
HETATM   38  C   UNK N   1      28.223  17.852   9.415  0.00  0.00     0.001 A 
HETATM   39  C   UNK N   1      28.066  17.387   8.106  0.00  0.00     0.007 A 
ENDBRANCH  33  34
ENDBRANCH  27  33
ENDBRANCH  24  27
ENDBRANCH   1  23
TORSDOF 12
ENDMDL
MODEL 8
REMARK VINA RESULT:      -7.4      2.732      5.123
REMARK  12 active torsions:
REMARK  status: ('A' for Active; 'I' for Inactive)
REMARK    1  A    between atoms: C_1  and  C_5 
REMARK    2  A    between atoms: C_1  and  P_33 
REMARK    3  A    between atoms: O_2  and  P_33 
REMARK    4  A    between atoms: O_3  and  P_33 
REMARK    5  A    between atoms: C_8  and  C_11 
REMARK    6  A    between atoms: C_11  and  C_12 
REMARK    7  A    between atoms: C_12  and  C_13 
REMARK    8  A    between atoms: C_12  and  N_16 
REMARK       I    between atoms: C_13  and  N_15 
REMARK       I    between atoms: N_16  and  C_17 
REMARK    9  A    between atoms: C_17  and  C_18 
REMARK   10  A    between atoms: C_18  and  N_20 
REMARK   11  A    between atoms: C_18  and  C_21 
REMARK       I    between atoms: N_20  and  C_28 
REMARK   12  A    between atoms: C_21  and  C_22 
ROOT
HETATM    1  C   UNK N   1      29.421  18.315   8.751  0.00  0.00     0.180 C 
ENDROOT
BRANCH   1   2
HETATM    2  C   UNK N   1      30.903  18.515   9.109  0.00  0.00     0.073 C 
BRANCH   2   3
HETATM    3  C   UNK N   1      31.872  17.589   8.447  0.00  0.00    -0.056 A 
HETATM    4  C   UNK N   1      31.562  16.235   8.288  0.00  0.00     0.008 A 
HETATM    5  C   UNK N   1      32.428  15.392   7.598  0.00  0.00     0.014 A 
HETATM    6  C   UNK N   1      33.607  15.895   7.034  0.00  0.00     0.025 A 
HETATM    7  C   UNK N   1      33.916  17.256   7.186  0.00  0.00     0.014 A 
HETATM    8  C   UNK N   1      33.052  18.099   7.895  0.00  0.00     0.008 A 
BRANCH   6   9
HETATM    9  C   UNK N   1      34.487  14.981   6.228  0.00  0.00     0.364 C 
HETATM   10  F   UNK N   1      35.197  15.689   5.274  0.00  0.00    -0.187 F 
HETATM   11  F   UNK N   1      33.690  14.050   5.585  0.00  0.00    -0.187 F 
BRANCH   9  12
HETATM   12  P   UNK N   1      35.708  14.092   7.322  0.00  0.00     0.315 P 
HETATM   13  O   UNK N   1      37.133  14.096   6.707  0.00  0.00    -0.649 OA
BRANCH  12  14
HETATM   14  O   UNK N   1      35.919  14.812   8.886  0.00  0.00    -0.325 OA
HETATM   15  H   UNK N   1      36.186  15.738   8.986  0.00  0.00     0.220 HD
ENDBRANCH  12  14
BRANCH  12  16
HETATM   16  O   UNK N   1      35.356  12.413   7.586  0.00  0.00    -0.325 OA
HETATM   17  H   UNK N   1      34.822  11.613   7.712  0.00  0.00     0.220 HD
ENDBRANCH  12  16
ENDBRANCH   9  12
ENDBRANCH   6   9
ENDBRANCH   2   3
ENDBRANCH   1   2
BRANCH   1  18
HETATM   18  C   UNK N   1      28.709  17.357   9.682  0.00  0.00     0.238 C 
HETATM   19  O   UNK N   1      27.551  17.043   9.458  0.00  0.00    -0.271 OA
HETATM   20  N   UNK N   1      29.328  16.868  10.775  0.00  0.00    -0.368 N 
HETATM   21  H   UNK N   1      30.165  16.718  11.270  0.00  0.00     0.159 HD
HETATM   22  H   UNK N   1      28.615  16.484  11.335  0.00  0.00     0.159 HD
ENDBRANCH   1  18
BRANCH   1  23
HETATM   23  N   UNK N   1      29.315  17.872   7.371  0.00  0.00    -0.346 N 
HETATM   24  C   UNK N   1      28.565  18.477   6.410  0.00  0.00     0.241 C 
HETATM   25  O   UNK N   1      27.889  19.466   6.671  0.00  0.00    -0.271 OA
HETATM   26  H   UNK N   1      29.826  17.072   7.112  0.00  0.00     0.163 HD
BRANCH  24  27
HETATM   27  C   UNK N   1      28.476  17.852   5.040  0.00  0.00     0.180 C 
BRANCH  27  28
HETATM   28  N   UNK N   1      27.128  17.691   4.501  0.00  0.00    -0.348 N 
HETATM   29  C   UNK N   1      26.323  18.572   3.838  0.00  0.00     0.214 C 
HETATM   30  O   UNK N   1      25.212  18.208   3.498  0.00  0.00    -0.274 OA
HETATM   31  C   UNK N   1      26.750  19.954   3.469  0.00  0.00     0.117 C 
HETATM   32  H   UNK N   1      26.736  16.798   4.637  0.00  0.00     0.163 HD
ENDBRANCH  27  28
BRANCH  27  33
HETATM   33  C   UNK N   1      29.157  16.474   5.050  0.00  0.00     0.073 C 
BRANCH  33  34
HETATM   34  C   UNK N   1      30.502  16.469   4.379  0.00  0.00    -0.056 A 
HETATM   35  C   UNK N   1      30.926  15.331   3.686  0.00  0.00     0.007 A 
HETATM   36  C   UNK N   1      32.171  15.323   3.046  0.00  0.00     0.001 A 
HETATM   37  C   UNK N   1      32.995  16.451   3.100  0.00  0.00     0.000 A 
HETATM   38  C   UNK N   1      32.580  17.586   3.801  0.00  0.00     0.001 A 
HETATM   39  C   UNK N   1      31.338  17.593   4.442  0.00  0.00     0.007 A 
ENDBRANCH  33  34
ENDBRANCH  27  33
ENDBRANCH  24  27
ENDBRANCH   1  23
TORSDOF 12
ENDMDL
MODEL 9
REMARK VINA RESULT:      -7.3     12.578     14.933
REMARK  12 active torsions:
REMARK  status: ('A' for Active; 'I' for Inactive)
REMARK    1  A    between atoms: C_1  and  C_5 
REMARK    2  A    between atoms: C_1  and  P_33 
REMARK    3  A    between atoms: O_2  and  P_33 
REMARK    4  A    between atoms: O_3  and  P_33 
REMARK    5  A    between atoms: C_8  and  C_11 
REMARK    6  A    between atoms: C_11  and  C_12 
REMARK    7  A    between atoms: C_12  and  C_13 
REMARK    8  A    between atoms: C_12  and  N_16 
REMARK       I    between atoms: C_13  and  N_15 
REMARK       I    between atoms: N_16  and  C_17 
REMARK    9  A    between atoms: C_17  and  C_18 
REMARK   10  A    between atoms: C_18  and  N_20 
REMARK   11  A    between atoms: C_18  and  C_21 
REMARK       I    between atoms: N_20  and  C_28 
REMARK   12  A    between atoms: C_21  and  C_22 
ROOT
HETATM    1  C   UNK N   1      28.064  26.056  -4.514  0.00  0.00     0.180 C 
ENDROOT
BRANCH   1   2
HETATM    2  C   UNK N   1      29.391  25.921  -3.748  0.00  0.00     0.073 C 
BRANCH   2   3
HETATM    3  C   UNK N   1      30.162  24.661  -3.981  0.00  0.00    -0.056 A 
HETATM    4  C   UNK N   1      29.735  23.456  -3.414  0.00  0.00     0.008 A 
HETATM    5  C   UNK N   1      30.405  22.270  -3.699  0.00  0.00     0.014 A 
HETATM    6  C   UNK N   1      31.497  22.266  -4.575  0.00  0.00     0.025 A 
HETATM    7  C   UNK N   1      31.922  23.474  -5.150  0.00  0.00     0.014 A 
HETATM    8  C   UNK N   1      31.258  24.669  -4.849  0.00  0.00     0.008 A 
BRANCH   6   9
HETATM    9  C   UNK N   1      32.155  20.961  -4.927  0.00  0.00     0.364 C 
HETATM   10  F   UNK N   1      32.766  21.031  -6.167  0.00  0.00    -0.187 F 
HETATM   11  F   UNK N   1      31.188  19.972  -4.967  0.00  0.00    -0.187 F 
BRANCH   9  12
HETATM   12  P   UNK N   1      33.449  20.503  -3.665  0.00  0.00     0.315 P 
HETATM   13  O   UNK N   1      34.816  21.165  -3.983  0.00  0.00    -0.649 OA
BRANCH  12  14
HETATM   14  O   UNK N   1      33.089  21.028  -2.051  0.00  0.00    -0.325 OA
HETATM   15  H   UNK N   1      32.335  21.607  -1.863  0.00  0.00     0.220 HD
ENDBRANCH  12  14
BRANCH  12  16
HETATM   16  O   UNK N   1      33.803  18.806  -3.572  0.00  0.00    -0.325 OA
HETATM   17  H   UNK N   1      34.283  17.976  -3.720  0.00  0.00     0.220 HD
ENDBRANCH  12  16
ENDBRANCH   9  12
ENDBRANCH   6   9
ENDBRANCH   2   3
ENDBRANCH   1   2
BRANCH   1  18
HETATM   18  C   UNK N   1      26.883  26.335  -3.609  0.00  0.00     0.238 C 
HETATM   19  O   UNK N   1      26.437  25.443  -2.905  0.00  0.00    -0.271 OA
HETATM   20  N   UNK N   1      26.297  27.548  -3.592  0.00  0.00    -0.368 N 
HETATM   21  H   UNK N   1      26.336  28.504  -3.825  0.00  0.00     0.159 HD
HETATM   22  H   UNK N   1      25.434  27.421  -3.135  0.00  0.00     0.159 HD
ENDBRANCH   1  18
BRANCH   1  23
HETATM   23  N   UNK N   1      27.841  24.858  -5.305  0.00  0.00    -0.346 N 
HETATM   24  C   UNK N   1      27.596  24.838  -6.643  0.00  0.00     0.241 C 
HETATM   25  O   UNK N   1      27.528  25.880  -7.284  0.00  0.00    -0.271 OA
HETATM   26  H   UNK N   1      27.870  23.993  -4.835  0.00  0.00     0.163 HD
BRANCH  24  27
HETATM   27  C   UNK N   1      27.291  23.524  -7.318  0.00  0.00     0.180 C 
BRANCH  27  28
HETATM   28  N   UNK N   1      25.875  23.185  -7.439  0.00  0.00    -0.348 N 
HETATM   29  C   UNK N   1      25.231  22.347  -8.303  0.00  0.00     0.214 C 
HETATM   30  O   UNK N   1      24.020  22.240  -8.222  0.00  0.00    -0.274 OA
HETATM   31  C   UNK N   1      25.939  21.517  -9.322  0.00  0.00     0.117 C 
HETATM   32  H   UNK N   1      25.288  23.635  -6.788  0.00  0.00     0.163 HD
ENDBRANCH  27  28
BRANCH  27  33
HETATM   33  C   UNK N   1      27.997  22.379  -6.574  0.00  0.00     0.073 C 
BRANCH  33  34
HETATM   34  C   UNK N   1      29.081  21.723  -7.382  0.00  0.00    -0.056 A 
HETATM   35  C   UNK N   1      29.152  20.328  -7.442  0.00  0.00     0.007 A 
HETATM   36  C   UNK N   1      30.150  19.708  -8.204  0.00  0.00     0.001 A 
HETATM   37  C   UNK N   1      31.080  20.482  -8.905  0.00  0.00     0.000 A 
HETATM   38  C   UNK N   1      31.019  21.876  -8.838  0.00  0.00     0.001 A 
HETATM   39  C   UNK N   1      30.024  22.494  -8.075  0.00  0.00     0.007 A 
ENDBRANCH  33  34
ENDBRANCH  27  33
ENDBRANCH  24  27
ENDBRANCH   1  23
TORSDOF 12
ENDMDL
