MODEL 1
REMARK VINA RESULT:      -7.1      0.000      0.000
REMARK  7 active torsions:
REMARK  status: ('A' for Active; 'I' for Inactive)
REMARK    1  A    between atoms: P_1  and  O_3 
REMARK    2  A    between atoms: P_1  and  O_4 
REMARK    3  A    between atoms: P_1  and  O_5 
REMARK    4  A    between atoms: O_5  and  C_6 
REMARK    5  A    between atoms: C_7  and  C_6 
REMARK    6  A    between atoms: C_9  and  O_10 
REMARK    7  A    between atoms: C_12  and  C_21 
ROOT
HETATM    1  C   UNK N   1      35.220  15.225  10.572  0.00  0.00     0.175 C 
HETATM    2  O   UNK N   1      35.246  15.382  11.972  0.00  0.00    -0.371 OA
HETATM    3  C   UNK N   1      36.558  14.645  10.156  0.00  0.00     0.152 C 
HETATM    4  C   UNK N   1      36.796  13.711  11.290  0.00  0.00     0.071 C 
HETATM    5  C   UNK N   1      36.315  14.584  12.448  0.00  0.00     0.160 C 
ENDROOT
BRANCH   5   6
HETATM    6  C   UNK N   1      35.891  13.795  13.667  0.00  0.00     0.010 A 
HETATM    7  C   UNK N   1      36.416  14.123  14.931  0.00  0.00     0.128 A 
HETATM    8  C   UNK N   1      36.036  13.394  16.061  0.00  0.00     0.085 A 
HETATM    9  F   UNK N   1      37.287  15.154  15.070  0.00  0.00    -0.205 F 
HETATM   10  C   UNK N   1      35.142  12.328  15.946  0.00  0.00     0.125 A 
HETATM   11  C   UNK N   1      34.620  11.988  14.692  0.00  0.00    -0.023 A 
HETATM   12  F   UNK N   1      34.790  11.628  17.053  0.00  0.00    -0.205 F 
HETATM   13  C   UNK N   1      33.678  10.844  14.549  0.00  0.00     0.051 C 
HETATM   14  C   UNK N   1      34.989  12.722  13.561  0.00  0.00     0.022 A 
ENDBRANCH   5   6
BRANCH   1  15
HETATM   15  C   UNK N   1      34.929  16.556   9.882  0.00  0.00     0.215 C 
BRANCH  15  16
HETATM   16  O   UNK N   1      34.570  16.351   8.544  0.00  0.00    -0.294 OA
BRANCH  16  17
HETATM   17  P   UNK N   1      34.198  17.924   7.898  0.00  0.00     0.390 P 
HETATM   18  O   UNK N   1      32.766  18.308   8.358  0.00  0.00    -0.632 OA
BRANCH  17  19
HETATM   19  O   UNK N   1      34.227  17.952   6.162  0.00  0.00    -0.307 OA
HETATM   20  H   UNK N   1      34.404  18.780   5.689  0.00  0.00     0.222 HD
ENDBRANCH  17  19
BRANCH  17  21
HETATM   21  O   UNK N   1      35.266  19.125   8.553  0.00  0.00    -0.307 OA
HETATM   22  H   UNK N   1      35.837  19.902   8.447  0.00  0.00     0.222 HD
ENDBRANCH  17  21
ENDBRANCH  16  17
ENDBRANCH  15  16
ENDBRANCH   1  15
BRANCH   3  23
HETATM   23  O   UNK N   1      36.485  13.984   8.929  0.00  0.00    -0.393 OA
HETATM   24  H   UNK N   1      35.739  13.728   8.365  0.00  0.00     0.210 HD
ENDBRANCH   3  23
TORSDOF 7
ENDMDL
MODEL 2
REMARK VINA RESULT:      -6.8      2.400      3.566
REMARK  7 active torsions:
REMARK  status: ('A' for Active; 'I' for Inactive)
REMARK    1  A    between atoms: P_1  and  O_3 
REMARK    2  A    between atoms: P_1  and  O_4 
REMARK    3  A    between atoms: P_1  and  O_5 
REMARK    4  A    between atoms: O_5  and  C_6 
REMARK    5  A    between atoms: C_7  and  C_6 
REMARK    6  A    between atoms: C_9  and  O_10 
REMARK    7  A    between atoms: C_12  and  C_21 
ROOT
HETATM    1  C   UNK N   1      35.451  12.887  13.039  0.00  0.00     0.175 C 
HETATM    2  O   UNK N   1      34.802  13.149  14.263  0.00  0.00    -0.371 OA
HETATM    3  C   UNK N   1      36.880  13.377  13.171  0.00  0.00     0.152 C 
HETATM    4  C   UNK N   1      37.154  12.993  14.581  0.00  0.00     0.071 C 
HETATM    5  C   UNK N   1      35.821  13.382  15.218  0.00  0.00     0.160 C 
ENDROOT
BRANCH   5   6
HETATM    6  C   UNK N   1      35.525  12.643  16.505  0.00  0.00     0.010 A 
HETATM    7  C   UNK N   1      35.428  13.356  17.715  0.00  0.00     0.128 A 
HETATM    8  C   UNK N   1      35.163  12.681  18.910  0.00  0.00     0.085 A 
HETATM    9  F   UNK N   1      35.581  14.704  17.737  0.00  0.00    -0.205 F 
HETATM   10  C   UNK N   1      35.004  11.294  18.916  0.00  0.00     0.125 A 
HETATM   11  C   UNK N   1      35.105  10.574  17.719  0.00  0.00    -0.023 A 
HETATM   12  F   UNK N   1      34.754  10.655  20.087  0.00  0.00    -0.205 F 
HETATM   13  C   UNK N   1      34.953   9.093  17.711  0.00  0.00     0.051 C 
HETATM   14  C   UNK N   1      35.359  11.248  16.521  0.00  0.00     0.022 A 
ENDBRANCH   5   6
BRANCH   1  15
HETATM   15  C   UNK N   1      34.715  13.556  11.880  0.00  0.00     0.215 C 
BRANCH  15  16
HETATM   16  O   UNK N   1      34.644  14.941  12.074  0.00  0.00    -0.294 OA
BRANCH  16  17
HETATM   17  P   UNK N   1      35.343  15.663  10.653  0.00  0.00     0.390 P 
HETATM   18  O   UNK N   1      35.240  14.638   9.491  0.00  0.00    -0.632 OA
BRANCH  17  19
HETATM   19  O   UNK N   1      37.021  16.059  10.867  0.00  0.00    -0.307 OA
HETATM   20  H   UNK N   1      37.703  15.382  10.741  0.00  0.00     0.222 HD
ENDBRANCH  17  19
BRANCH  17  21
HETATM   21  O   UNK N   1      34.436  17.059  10.164  0.00  0.00    -0.307 OA
HETATM   22  H   UNK N   1      33.920  17.852  10.374  0.00  0.00     0.222 HD
ENDBRANCH  17  21
ENDBRANCH  16  17
ENDBRANCH  15  16
ENDBRANCH   1  15
BRANCH   3  23
HETATM   23  O   UNK N   1      37.738  12.742  12.271  0.00  0.00    -0.393 OA
HETATM   24  H   UNK N   1      37.577  12.205  11.478  0.00  0.00     0.210 HD
ENDBRANCH   3  23
TORSDOF 7
ENDMDL
MODEL 3
REMARK VINA RESULT:      -6.8      1.491      2.252
REMARK  7 active torsions:
REMARK  status: ('A' for Active; 'I' for Inactive)
REMARK    1  A    between atoms: P_1  and  O_3 
REMARK    2  A    between atoms: P_1  and  O_4 
REMARK    3  A    between atoms: P_1  and  O_5 
REMARK    4  A    between atoms: O_5  and  C_6 
REMARK    5  A    between atoms: C_7  and  C_6 
REMARK    6  A    between atoms: C_9  and  O_10 
REMARK    7  A    between atoms: C_12  and  C_21 
ROOT
HETATM    1  C   UNK N   1      34.873  14.636  10.459  0.00  0.00     0.175 C 
HETATM    2  O   UNK N   1      34.501  14.580  11.818  0.00  0.00    -0.371 OA
HETATM    3  C   UNK N   1      36.388  14.601  10.402  0.00  0.00     0.152 C 
HETATM    4  C   UNK N   1      36.663  13.638  11.503  0.00  0.00     0.071 C 
HETATM    5  C   UNK N   1      35.636  14.119  12.528  0.00  0.00     0.160 C 
ENDROOT
BRANCH   5   6
HETATM    6  C   UNK N   1      35.242  13.059  13.534  0.00  0.00     0.010 A 
HETATM    7  C   UNK N   1      34.691  11.843  13.090  0.00  0.00     0.128 A 
HETATM    8  C   UNK N   1      34.317  10.862  14.014  0.00  0.00     0.085 A 
HETATM    9  F   UNK N   1      34.526  11.602  11.766  0.00  0.00    -0.205 F 
HETATM   10  C   UNK N   1      34.475  11.085  15.382  0.00  0.00     0.125 A 
HETATM   11  C   UNK N   1      35.015  12.295  15.835  0.00  0.00    -0.023 A 
HETATM   12  F   UNK N   1      34.100  10.124  16.264  0.00  0.00    -0.205 F 
HETATM   13  C   UNK N   1      35.176  12.555  17.292  0.00  0.00     0.051 C 
HETATM   14  C   UNK N   1      35.401  13.273  14.914  0.00  0.00     0.022 A 
ENDBRANCH   5   6
BRANCH   1  15
HETATM   15  C   UNK N   1      34.299  15.884   9.791  0.00  0.00     0.215 C 
BRANCH  15  16
HETATM   16  O   UNK N   1      35.280  16.533   9.031  0.00  0.00    -0.294 OA
BRANCH  16  17
HETATM   17  P   UNK N   1      34.489  17.890   8.281  0.00  0.00     0.390 P 
HETATM   18  O   UNK N   1      34.476  17.654   6.747  0.00  0.00    -0.632 OA
BRANCH  17  19
HETATM   19  O   UNK N   1      35.314  19.389   8.583  0.00  0.00    -0.307 OA
HETATM   20  H   UNK N   1      36.284  19.423   8.577  0.00  0.00     0.222 HD
ENDBRANCH  17  19
BRANCH  17  21
HETATM   21  O   UNK N   1      32.831  17.987   8.781  0.00  0.00    -0.307 OA
HETATM   22  H   UNK N   1      31.971  18.437   8.790  0.00  0.00     0.222 HD
ENDBRANCH  17  21
ENDBRANCH  16  17
ENDBRANCH  15  16
ENDBRANCH   1  15
BRANCH   3  23
HETATM   23  O   UNK N   1      36.856  14.146   9.169  0.00  0.00    -0.393 OA
HETATM   24  H   UNK N   1      37.750  14.006   8.817  0.00  0.00     0.210 HD
ENDBRANCH   3  23
TORSDOF 7
ENDMDL
MODEL 4
REMARK VINA RESULT:      -6.7     10.959     13.399
REMARK  7 active torsions:
REMARK  status: ('A' for Active; 'I' for Inactive)
REMARK    1  A    between atoms: P_1  and  O_3 
REMARK    2  A    between atoms: P_1  and  O_4 
REMARK    3  A    between atoms: P_1  and  O_5 
REMARK    4  A    between atoms: O_5  and  C_6 
REMARK    5  A    between atoms: C_7  and  C_6 
REMARK    6  A    between atoms: C_9  and  O_10 
REMARK    7  A    between atoms: C_12  and  C_21 
ROOT
HETATM    1  C   UNK N   1      24.632  19.348   3.643  0.00  0.00     0.175 C 
HETATM    2  O   UNK N   1      25.096  19.148   4.958  0.00  0.00    -0.371 OA
HETATM    3  C   UNK N   1      25.316  20.589   3.105  0.00  0.00     0.152 C 
HETATM    4  C   UNK N   1      26.668  20.417   3.702  0.00  0.00     0.071 C 
HETATM    5  C   UNK N   1      26.274  19.923   5.093  0.00  0.00     0.160 C 
ENDROOT
BRANCH   5   6
HETATM    6  C   UNK N   1      27.360  19.129   5.785  0.00  0.00     0.010 A 
HETATM    7  C   UNK N   1      27.681  19.405   7.128  0.00  0.00     0.128 A 
HETATM    8  C   UNK N   1      28.689  18.682   7.772  0.00  0.00     0.085 A 
HETATM    9  F   UNK N   1      27.014  20.366   7.814  0.00  0.00    -0.205 F 
HETATM   10  C   UNK N   1      29.392  17.689   7.088  0.00  0.00     0.125 A 
HETATM   11  C   UNK N   1      29.086  17.412   5.750  0.00  0.00    -0.023 A 
HETATM   12  F   UNK N   1      30.372  17.002   7.728  0.00  0.00    -0.205 F 
HETATM   13  C   UNK N   1      29.837  16.367   5.002  0.00  0.00     0.051 C 
HETATM   14  C   UNK N   1      28.071  18.125   5.106  0.00  0.00     0.022 A 
ENDBRANCH   5   6
BRANCH   1  15
HETATM   15  C   UNK N   1      23.110  19.469   3.617  0.00  0.00     0.215 C 
BRANCH  15  16
HETATM   16  O   UNK N   1      22.722  20.704   3.081  0.00  0.00    -0.294 OA
BRANCH  16  17
HETATM   17  P   UNK N   1      21.068  20.511   2.575  0.00  0.00     0.390 P 
HETATM   18  O   UNK N   1      20.154  20.775   3.801  0.00  0.00    -0.632 OA
BRANCH  17  19
HETATM   19  O   UNK N   1      20.734  18.907   1.996  0.00  0.00    -0.307 OA
HETATM   20  H   UNK N   1      19.855  18.516   2.120  0.00  0.00     0.222 HD
ENDBRANCH  17  19
BRANCH  17  21
HETATM   21  O   UNK N   1      20.649  21.698   1.381  0.00  0.00    -0.307 OA
HETATM   22  H   UNK N   1      20.892  22.298   0.659  0.00  0.00     0.222 HD
ENDBRANCH  17  21
ENDBRANCH  16  17
ENDBRANCH  15  16
ENDBRANCH   1  15
BRANCH   3  23
HETATM   23  O   UNK N   1      25.349  20.607   1.709  0.00  0.00    -0.393 OA
HETATM   24  H   UNK N   1      24.837  21.098   1.047  0.00  0.00     0.210 HD
ENDBRANCH   3  23
TORSDOF 7
ENDMDL
MODEL 5
REMARK VINA RESULT:      -6.7     10.927     13.347
REMARK  7 active torsions:
REMARK  status: ('A' for Active; 'I' for Inactive)
REMARK    1  A    between atoms: P_1  and  O_3 
REMARK    2  A    between atoms: P_1  and  O_4 
REMARK    3  A    between atoms: P_1  and  O_5 
REMARK    4  A    between atoms: O_5  and  C_6 
REMARK    5  A    between atoms: C_7  and  C_6 
REMARK    6  A    between atoms: C_9  and  O_10 
REMARK    7  A    between atoms: C_12  and  C_21 
ROOT
HETATM    1  C   UNK N   1      24.736  19.345   3.687  0.00  0.00     0.175 C 
HETATM    2  O   UNK N   1      25.182  18.990   4.977  0.00  0.00    -0.371 OA
HETATM    3  C   UNK N   1      25.400  20.659   3.325  0.00  0.00     0.152 C 
HETATM    4  C   UNK N   1      26.745  20.440   3.923  0.00  0.00     0.071 C 
HETATM    5  C   UNK N   1      26.338  19.766   5.232  0.00  0.00     0.160 C 
ENDROOT
BRANCH   5   6
HETATM    6  C   UNK N   1      27.430  18.913   5.841  0.00  0.00     0.010 A 
HETATM    7  C   UNK N   1      28.012  17.878   5.085  0.00  0.00     0.128 A 
HETATM    8  C   UNK N   1      29.015  17.079   5.642  0.00  0.00     0.085 A 
HETATM    9  F   UNK N   1      27.615  17.647   3.809  0.00  0.00    -0.205 F 
HETATM   10  C   UNK N   1      29.441  17.294   6.954  0.00  0.00     0.125 A 
HETATM   11  C   UNK N   1      28.863  18.317   7.717  0.00  0.00    -0.023 A 
HETATM   12  F   UNK N   1      30.411  16.505   7.480  0.00  0.00    -0.205 F 
HETATM   13  C   UNK N   1      29.294  18.549   9.123  0.00  0.00     0.051 C 
HETATM   14  C   UNK N   1      27.867  19.124   7.159  0.00  0.00     0.022 A 
ENDBRANCH   5   6
BRANCH   1  15
HETATM   15  C   UNK N   1      23.212  19.437   3.646  0.00  0.00     0.215 C 
BRANCH  15  16
HETATM   16  O   UNK N   1      22.806  20.653   3.082  0.00  0.00    -0.294 OA
BRANCH  16  17
HETATM   17  P   UNK N   1      21.142  20.438   2.621  0.00  0.00     0.390 P 
HETATM   18  O   UNK N   1      20.258  20.692   3.871  0.00  0.00    -0.632 OA
BRANCH  17  19
HETATM   19  O   UNK N   1      20.813  18.830   2.053  0.00  0.00    -0.307 OA
HETATM   20  H   UNK N   1      20.123  18.294   2.473  0.00  0.00     0.222 HD
ENDBRANCH  17  19
BRANCH  17  21
HETATM   21  O   UNK N   1      20.676  21.618   1.437  0.00  0.00    -0.307 OA
HETATM   22  H   UNK N   1      20.898  22.313   0.798  0.00  0.00     0.222 HD
ENDBRANCH  17  21
ENDBRANCH  16  17
ENDBRANCH  15  16
ENDBRANCH   1  15
BRANCH   3  23
HETATM   23  O   UNK N   1      25.458  20.854   1.944  0.00  0.00    -0.393 OA
HETATM   24  H   UNK N   1      26.137  21.233   1.362  0.00  0.00     0.210 HD
ENDBRANCH   3  23
TORSDOF 7
ENDMDL
MODEL 6
REMARK VINA RESULT:      -6.6      7.947     10.498
REMARK  7 active torsions:
REMARK  status: ('A' for Active; 'I' for Inactive)
REMARK    1  A    between atoms: P_1  and  O_3 
REMARK    2  A    between atoms: P_1  and  O_4 
REMARK    3  A    between atoms: P_1  and  O_5 
REMARK    4  A    between atoms: O_5  and  C_6 
REMARK    5  A    between atoms: C_7  and  C_6 
REMARK    6  A    between atoms: C_9  and  O_10 
REMARK    7  A    between atoms: C_12  and  C_21 
ROOT
HETATM    1  C   UNK N   1      30.361  17.117   8.412  0.00  0.00     0.175 C 
HETATM    2  O   UNK N   1      30.025  17.925   7.308  0.00  0.00    -0.371 OA
HETATM    3  C   UNK N   1      29.688  17.715   9.632  0.00  0.00     0.152 C 
HETATM    4  C   UNK N   1      28.398  18.144   9.029  0.00  0.00     0.071 C 
HETATM    5  C   UNK N   1      28.908  18.701   7.700  0.00  0.00     0.160 C 
ENDROOT
BRANCH   5   6
HETATM    6  C   UNK N   1      27.861  18.720   6.608  0.00  0.00     0.010 A 
HETATM    7  C   UNK N   1      27.361  19.950   6.139  0.00  0.00     0.128 A 
HETATM    8  C   UNK N   1      26.387  19.976   5.136  0.00  0.00     0.085 A 
HETATM    9  F   UNK N   1      27.823  21.121   6.644  0.00  0.00    -0.205 F 
HETATM   10  C   UNK N   1      25.894  18.785   4.601  0.00  0.00     0.125 A 
HETATM   11  C   UNK N   1      26.378  17.557   5.066  0.00  0.00    -0.023 A 
HETATM   12  F   UNK N   1      24.944  18.831   3.633  0.00  0.00    -0.205 F 
HETATM   13  C   UNK N   1      25.851  16.277   4.517  0.00  0.00     0.051 C 
HETATM   14  C   UNK N   1      27.360  17.527   6.060  0.00  0.00     0.022 A 
ENDBRANCH   5   6
BRANCH   1  15
HETATM   15  C   UNK N   1      31.877  17.024   8.576  0.00  0.00     0.215 C 
BRANCH  15  16
HETATM   16  O   UNK N   1      32.474  18.274   8.373  0.00  0.00    -0.294 OA
BRANCH  16  17
HETATM   17  P   UNK N   1      34.131  17.954   7.948  0.00  0.00     0.390 P 
HETATM   18  O   UNK N   1      34.988  19.167   8.401  0.00  0.00    -0.632 OA
BRANCH  17  19
HETATM   19  O   UNK N   1      34.351  17.755   6.237  0.00  0.00    -0.307 OA
HETATM   20  H   UNK N   1      35.212  17.485   5.883  0.00  0.00     0.222 HD
ENDBRANCH  17  19
BRANCH  17  21
HETATM   21  O   UNK N   1      34.730  16.575   8.813  0.00  0.00    -0.307 OA
HETATM   22  H   UNK N   1      35.144  16.176   9.594  0.00  0.00     0.222 HD
ENDBRANCH  17  21
ENDBRANCH  16  17
ENDBRANCH  15  16
ENDBRANCH   1  15
BRANCH   3  23
HETATM   23  O   UNK N   1      29.513  16.775  10.649  0.00  0.00    -0.393 OA
HETATM   24  H   UNK N   1      29.771  15.843  10.733  0.00  0.00     0.210 HD
ENDBRANCH   3  23
TORSDOF 7
ENDMDL
MODEL 7
REMARK VINA RESULT:      -6.6      5.683      8.469
REMARK  7 active torsions:
REMARK  status: ('A' for Active; 'I' for Inactive)
REMARK    1  A    between atoms: P_1  and  O_3 
REMARK    2  A    between atoms: P_1  and  O_4 
REMARK    3  A    between atoms: P_1  and  O_5 
REMARK    4  A    between atoms: O_5  and  C_6 
REMARK    5  A    between atoms: C_7  and  C_6 
REMARK    6  A    between atoms: C_9  and  O_10 
REMARK    7  A    between atoms: C_12  and  C_21 
ROOT
HETATM    1  C   UNK N   1      33.651  16.144   9.427  0.00  0.00     0.175 C 
HETATM    2  O   UNK N   1      32.630  15.754   8.537  0.00  0.00    -0.371 OA
HETATM    3  C   UNK N   1      34.552  17.113   8.687  0.00  0.00     0.152 C 
HETATM    4  C   UNK N   1      33.533  17.861   7.902  0.00  0.00     0.071 C 
HETATM    5  C   UNK N   1      32.627  16.703   7.486  0.00  0.00     0.160 C 
ENDROOT
BRANCH   5   6
HETATM    6  C   UNK N   1      31.213  17.128   7.154  0.00  0.00     0.010 A 
HETATM    7  C   UNK N   1      30.810  17.227   5.809  0.00  0.00     0.128 A 
HETATM    8  C   UNK N   1      29.508  17.627   5.493  0.00  0.00     0.085 A 
HETATM    9  F   UNK N   1      31.672  16.928   4.805  0.00  0.00    -0.205 F 
HETATM   10  C   UNK N   1      28.602  17.942   6.507  0.00  0.00     0.125 A 
HETATM   11  C   UNK N   1      28.995  17.854   7.848  0.00  0.00    -0.023 A 
HETATM   12  F   UNK N   1      27.344  18.335   6.180  0.00  0.00    -0.205 F 
HETATM   13  C   UNK N   1      28.045  18.202   8.940  0.00  0.00     0.051 C 
HETATM   14  C   UNK N   1      30.292  17.444   8.167  0.00  0.00     0.022 A 
ENDBRANCH   5   6
BRANCH   1  15
HETATM   15  C   UNK N   1      34.414  14.926   9.945  0.00  0.00     0.215 C 
BRANCH  15  16
HETATM   16  O   UNK N   1      34.478  14.941  11.344  0.00  0.00    -0.294 OA
BRANCH  16  17
HETATM   17  P   UNK N   1      36.168  14.862  11.750  0.00  0.00     0.390 P 
HETATM   18  O   UNK N   1      36.705  13.473  11.312  0.00  0.00    -0.632 OA
BRANCH  17  19
HETATM   19  O   UNK N   1      36.449  15.030  13.456  0.00  0.00    -0.307 OA
HETATM   20  H   UNK N   1      36.537  15.910  13.853  0.00  0.00     0.222 HD
ENDBRANCH  17  19
BRANCH  17  21
HETATM   21  O   UNK N   1      37.070  16.045  10.857  0.00  0.00    -0.307 OA
HETATM   22  H   UNK N   1      37.200  16.597  10.070  0.00  0.00     0.222 HD
ENDBRANCH  17  21
ENDBRANCH  16  17
ENDBRANCH  15  16
ENDBRANCH   1  15
BRANCH   3  23
HETATM   23  O   UNK N   1      35.263  17.939   9.559  0.00  0.00    -0.393 OA
HETATM   24  H   UNK N   1      35.279  18.013  10.527  0.00  0.00     0.210 HD
ENDBRANCH   3  23
TORSDOF 7
ENDMDL
MODEL 8
REMARK VINA RESULT:      -6.5      7.829     10.568
REMARK  7 active torsions:
REMARK  status: ('A' for Active; 'I' for Inactive)
REMARK    1  A    between atoms: P_1  and  O_3 
REMARK    2  A    between atoms: P_1  and  O_4 
REMARK    3  A    between atoms: P_1  and  O_5 
REMARK    4  A    between atoms: O_5  and  C_6 
REMARK    5  A    between atoms: C_7  and  C_6 
REMARK    6  A    between atoms: C_9  and  O_10 
REMARK    7  A    between atoms: C_12  and  C_21 
ROOT
HETATM    1  C   UNK N   1      30.436  17.084   8.422  0.00  0.00     0.175 C 
HETATM    2  O   UNK N   1      30.138  17.743   7.212  0.00  0.00    -0.371 OA
HETATM    3  C   UNK N   1      29.673  17.795   9.523  0.00  0.00     0.152 C 
HETATM    4  C   UNK N   1      28.406  18.098   8.803  0.00  0.00     0.071 C 
HETATM    5  C   UNK N   1      28.974  18.514   7.447  0.00  0.00     0.160 C 
ENDROOT
BRANCH   5   6
HETATM    6  C   UNK N   1      27.993  18.362   6.306  0.00  0.00     0.010 A 
HETATM    7  C   UNK N   1      27.367  17.121   6.082  0.00  0.00     0.128 A 
HETATM    8  C   UNK N   1      26.466  16.969   5.024  0.00  0.00     0.085 A 
HETATM    9  F   UNK N   1      27.622  16.062   6.891  0.00  0.00    -0.205 F 
HETATM   10  C   UNK N   1      26.186  18.041   4.175  0.00  0.00     0.125 A 
HETATM   11  C   UNK N   1      26.809  19.278   4.385  0.00  0.00    -0.023 A 
HETATM   12  F   UNK N   1      25.314  17.873   3.150  0.00  0.00    -0.205 F 
HETATM   13  C   UNK N   1      26.535  20.428   3.480  0.00  0.00     0.051 C 
HETATM   14  C   UNK N   1      27.703  19.437   5.448  0.00  0.00     0.022 A 
ENDBRANCH   5   6
BRANCH   1  15
HETATM   15  C   UNK N   1      31.941  17.073   8.678  0.00  0.00     0.215 C 
BRANCH  15  16
HETATM   16  O   UNK N   1      32.522  18.279   8.266  0.00  0.00    -0.294 OA
BRANCH  16  17
HETATM   17  P   UNK N   1      34.189  17.918   7.921  0.00  0.00     0.390 P 
HETATM   18  O   UNK N   1      34.365  17.879   6.379  0.00  0.00    -0.632 OA
BRANCH  17  19
HETATM   19  O   UNK N   1      34.679  16.377   8.554  0.00  0.00    -0.307 OA
HETATM   20  H   UNK N   1      35.619  16.179   8.687  0.00  0.00     0.222 HD
ENDBRANCH  17  19
BRANCH  17  21
HETATM   21  O   UNK N   1      35.224  19.183   8.504  0.00  0.00    -0.307 OA
HETATM   22  H   UNK N   1      35.629  20.059   8.412  0.00  0.00     0.222 HD
ENDBRANCH  17  21
ENDBRANCH  16  17
ENDBRANCH  15  16
ENDBRANCH   1  15
BRANCH   3  23
HETATM   23  O   UNK N   1      29.469  16.974  10.634  0.00  0.00    -0.393 OA
HETATM   24  H   UNK N   1      28.816  16.991  11.352  0.00  0.00     0.210 HD
ENDBRANCH   3  23
TORSDOF 7
ENDMDL
MODEL 9
REMARK VINA RESULT:      -6.4     13.516     14.963
REMARK  7 active torsions:
REMARK  status: ('A' for Active; 'I' for Inactive)
REMARK    1  A    between atoms: P_1  and  O_3 
REMARK    2  A    between atoms: P_1  and  O_4 
REMARK    3  A    between atoms: P_1  and  O_5 
REMARK    4  A    between atoms: O_5  and  C_6 
REMARK    5  A    between atoms: C_7  and  C_6 
REMARK    6  A    between atoms: C_9  and  O_10 
REMARK    7  A    between atoms: C_12  and  C_21 
ROOT
HETATM    1  C   UNK N   1      21.512  16.407   6.006  0.00  0.00     0.175 C 
HETATM    2  O   UNK N   1      21.234  15.084   6.405  0.00  0.00    -0.371 OA
HETATM    3  C   UNK N   1      20.660  17.326   6.858  0.00  0.00     0.152 C 
HETATM    4  C   UNK N   1      20.733  16.610   8.160  0.00  0.00     0.071 C 
HETATM    5  C   UNK N   1      20.600  15.169   7.669  0.00  0.00     0.160 C 
ENDROOT
BRANCH   5   6
HETATM    6  C   UNK N   1      21.176  14.147   8.625  0.00  0.00     0.010 A 
HETATM    7  C   UNK N   1      20.451  13.776   9.773  0.00  0.00     0.128 A 
HETATM    8  C   UNK N   1      20.979  12.839  10.665  0.00  0.00     0.085 A 
HETATM    9  F   UNK N   1      19.231  14.313  10.023  0.00  0.00    -0.205 F 
HETATM   10  C   UNK N   1      22.233  12.272  10.433  0.00  0.00     0.125 A 
HETATM   11  C   UNK N   1      22.967  12.640   9.298  0.00  0.00    -0.023 A 
HETATM   12  F   UNK N   1      22.733  11.369  11.314  0.00  0.00    -0.205 F 
HETATM   13  C   UNK N   1      24.313  12.057   9.043  0.00  0.00     0.051 C 
HETATM   14  C   UNK N   1      22.436  13.568   8.397  0.00  0.00     0.022 A 
ENDBRANCH   5   6
BRANCH   1  15
HETATM   15  C   UNK N   1      21.245  16.591   4.513  0.00  0.00     0.215 C 
BRANCH  15  16
HETATM   16  O   UNK N   1      20.202  17.502   4.306  0.00  0.00    -0.294 OA
BRANCH  16  17
HETATM   17  P   UNK N   1      20.897  18.839   3.434  0.00  0.00     0.390 P 
HETATM   18  O   UNK N   1      20.543  20.146   4.192  0.00  0.00    -0.632 OA
BRANCH  17  19
HETATM   19  O   UNK N   1      20.272  18.973   1.819  0.00  0.00    -0.307 OA
HETATM   20  H   UNK N   1      20.542  19.710   1.250  0.00  0.00     0.222 HD
ENDBRANCH  17  19
BRANCH  17  21
HETATM   21  O   UNK N   1      22.628  18.729   3.419  0.00  0.00    -0.307 OA
HETATM   22  H   UNK N   1      23.506  19.142   3.434  0.00  0.00     0.222 HD
ENDBRANCH  17  21
ENDBRANCH  16  17
ENDBRANCH  15  16
ENDBRANCH   1  15
BRANCH   3  23
HETATM   23  O   UNK N   1      21.189  18.616   6.931  0.00  0.00    -0.393 OA
HETATM   24  H   UNK N   1      21.271  19.330   6.278  0.00  0.00     0.210 HD
ENDBRANCH   3  23
TORSDOF 7
ENDMDL
