MODEL 1
REMARK VINA RESULT:      -7.5      0.000      0.000
REMARK  6 active torsions:
REMARK  status: ('A' for Active; 'I' for Inactive)
REMARK    1  A    between atoms: C_2  and  C_3 
REMARK    2  A    between atoms: N_18  and  C_19 
REMARK    3  A    between atoms: N_18  and  C_26 
REMARK    4  A    between atoms: C_23  and  C_24 
REMARK    5  A    between atoms: C_25  and  C_26 
REMARK    6  A    between atoms: C_25  and  O_28 
ROOT
HETATM    1  C   UNK N   1      29.048  17.993   9.771  0.00  0.00     0.184 A 
HETATM    2  C   UNK N   1      28.161  16.466   5.694  0.00  0.00     0.100 A 
HETATM    3  N   UNK N   1      28.039  17.614   8.938  0.00  0.00    -0.332 N 
ATOM      4  HN  UNK N   1      27.069  17.636   9.251  1.00  0.00     0.168 HD
HETATM    5  C   UNK N   1      28.350  17.211   7.686  0.00  0.00     0.164 A 
HETATM    6  O   UNK N   1      27.496  16.810   6.780  0.00  0.00    -0.291 OA
HETATM    7  C   UNK N   1      29.637  17.167   7.215  0.00  0.00     0.073 A 
HETATM    8  C   UNK N   1      30.676  17.611   8.065  0.00  0.00     0.118 A 
HETATM    9  N   UNK N   1      30.343  17.995   9.333  0.00  0.00    -0.338 N 
ATOM     10  HN  UNK N   1      31.081  18.292   9.971  1.00  0.00     0.168 HD
HETATM   11  C   UNK N   1      29.540  16.668   5.911  0.00  0.00     0.027 A 
ENDROOT
BRANCH   8  12
HETATM   12  N   UNK N   1      32.028  17.734   7.659  0.00  0.00    -0.365 N 
HETATM   13  H   UNK N   1      32.241  17.701   6.698  0.00  0.00     0.161 HD
BRANCH  12  14
HETATM   14  C   UNK N   1      33.103  17.907   8.605  0.00  0.00     0.231 C 
BRANCH  14  15
HETATM   15  C   UNK N   1      34.362  18.338   7.919  0.00  0.00     0.158 C 
HETATM   16  O   UNK N   1      34.611  17.918   6.802  0.00  0.00    -0.649 OA
BRANCH  15  17
HETATM   17  O   UNK N   1      35.240  19.153   8.537  0.00  0.00    -0.775 OA
HETATM   18  H   UNK N   1      36.098  19.517   8.445  0.00  0.00     0.167 HD
ENDBRANCH  15  17
ENDBRANCH  14  15
ENDBRANCH  12  14
ENDBRANCH   8  12
BRANCH  11  19
HETATM   19  C   UNK N   1      30.632  16.364   4.956  0.00  0.00    -0.022 A 
HETATM   20  C   UNK N   1      31.121  15.054   4.834  0.00  0.00     0.012 A 
HETATM   21  C   UNK N   1      32.166  14.766   3.953  0.00  0.00     0.001 A 
HETATM   22  C   UNK N   1      32.741  15.788   3.197  0.00  0.00     0.000 A 
HETATM   23  C   UNK N   1      32.266  17.098   3.316  0.00  0.00     0.001 A 
HETATM   24  C   UNK N   1      31.212  17.385   4.190  0.00  0.00     0.012 A 
ENDBRANCH  11  19
BRANCH   2  25
HETATM   25  C   UNK N   1      27.476  15.866   4.520  0.00  0.00    -0.001 A 
HETATM   26  C   UNK N   1      27.421  14.470   4.398  0.00  0.00     0.014 A 
HETATM   27  C   UNK N   1      26.804  13.881   3.288  0.00  0.00     0.001 A 
HETATM   28  C   UNK N   1      26.254  14.682   2.285  0.00  0.00     0.000 A 
HETATM   29  C   UNK N   1      26.323  16.071   2.386  0.00  0.00     0.001 A 
HETATM   30  C   UNK N   1      26.934  16.655   3.498  0.00  0.00     0.014 A 
ENDBRANCH   2  25
TORSDOF 6
ENDMDL
MODEL 2
REMARK VINA RESULT:      -7.4      1.811      2.454
REMARK  6 active torsions:
REMARK  status: ('A' for Active; 'I' for Inactive)
REMARK    1  A    between atoms: C_2  and  C_3 
REMARK    2  A    between atoms: N_18  and  C_19 
REMARK    3  A    between atoms: N_18  and  C_26 
REMARK    4  A    between atoms: C_23  and  C_24 
REMARK    5  A    between atoms: C_25  and  C_26 
REMARK    6  A    between atoms: C_25  and  O_28 
ROOT
HETATM    1  C   UNK N   1      29.625  17.781  10.247  0.00  0.00     0.184 A 
HETATM    2  C   UNK N   1      28.101  18.561   6.147  0.00  0.00     0.100 A 
HETATM    3  N   UNK N   1      28.609  18.356   9.547  0.00  0.00    -0.332 N 
ATOM      4  HN  UNK N   1      27.834  18.809  10.030  1.00  0.00     0.168 HD
HETATM    5  C   UNK N   1      28.649  18.316   8.196  0.00  0.00     0.164 A 
HETATM    6  O   UNK N   1      27.745  18.814   7.392  0.00  0.00    -0.291 OA
HETATM    7  C   UNK N   1      29.668  17.723   7.498  0.00  0.00     0.073 A 
HETATM    8  C   UNK N   1      30.748  17.174   8.228  0.00  0.00     0.118 A 
HETATM    9  N   UNK N   1      30.678  17.206   9.591  0.00  0.00    -0.338 N 
ATOM     10  HN  UNK N   1      31.434  16.790  10.136  1.00  0.00     0.168 HD
HETATM   11  C   UNK N   1      29.325  17.860   6.148  0.00  0.00     0.027 A 
ENDROOT
BRANCH   8  12
HETATM   12  N   UNK N   1      31.918  16.647   7.627  0.00  0.00    -0.365 N 
HETATM   13  H   UNK N   1      31.841  16.181   6.762  0.00  0.00     0.161 HD
BRANCH  12  14
HETATM   14  C   UNK N   1      33.219  16.769   8.237  0.00  0.00     0.231 C 
BRANCH  14  15
HETATM   15  C   UNK N   1      34.034  17.830   7.565  0.00  0.00     0.158 C 
HETATM   16  O   UNK N   1      34.254  17.750   6.369  0.00  0.00    -0.649 OA
BRANCH  15  17
HETATM   17  O   UNK N   1      34.556  18.852   8.273  0.00  0.00    -0.775 OA
HETATM   18  H   UNK N   1      35.130  19.587   8.192  0.00  0.00     0.167 HD
ENDBRANCH  15  17
ENDBRANCH  14  15
ENDBRANCH  12  14
ENDBRANCH   8  12
BRANCH  11  19
HETATM   19  C   UNK N   1      30.045  17.351   4.957  0.00  0.00    -0.022 A 
HETATM   20  C   UNK N   1      29.498  16.311   4.190  0.00  0.00     0.012 A 
HETATM   21  C   UNK N   1      30.183  15.811   3.081  0.00  0.00     0.001 A 
HETATM   22  C   UNK N   1      31.429  16.338   2.736  0.00  0.00     0.000 A 
HETATM   23  C   UNK N   1      31.986  17.370   3.498  0.00  0.00     0.001 A 
HETATM   24  C   UNK N   1      31.295  17.878   4.602  0.00  0.00     0.012 A 
ENDBRANCH  11  19
BRANCH   2  25
HETATM   25  C   UNK N   1      27.222  18.908   5.001  0.00  0.00    -0.001 A 
HETATM   26  C   UNK N   1      27.379  20.148   4.367  0.00  0.00     0.014 A 
HETATM   27  C   UNK N   1      26.546  20.509   3.301  0.00  0.00     0.001 A 
HETATM   28  C   UNK N   1      25.538  19.640   2.874  0.00  0.00     0.000 A 
HETATM   29  C   UNK N   1      25.360  18.413   3.514  0.00  0.00     0.001 A 
HETATM   30  C   UNK N   1      26.197  18.054   4.571  0.00  0.00     0.014 A 
ENDBRANCH   2  25
TORSDOF 6
ENDMDL
MODEL 3
REMARK VINA RESULT:      -7.2      6.679     10.102
REMARK  6 active torsions:
REMARK  status: ('A' for Active; 'I' for Inactive)
REMARK    1  A    between atoms: C_2  and  C_3 
REMARK    2  A    between atoms: N_18  and  C_19 
REMARK    3  A    between atoms: N_18  and  C_26 
REMARK    4  A    between atoms: C_23  and  C_24 
REMARK    5  A    between atoms: C_25  and  C_26 
REMARK    6  A    between atoms: C_25  and  O_28 
ROOT
HETATM    1  C   UNK N   1      20.242  20.917   1.624  0.00  0.00     0.184 A 
HETATM    2  C   UNK N   1      23.976  19.794   3.755  0.00  0.00     0.100 A 
HETATM    3  N   UNK N   1      21.489  21.353   1.953  0.00  0.00    -0.332 N 
ATOM      4  HN  UNK N   1      21.819  22.269   1.649  1.00  0.00     0.168 HD
HETATM    5  C   UNK N   1      22.283  20.547   2.694  0.00  0.00     0.164 A 
HETATM    6  O   UNK N   1      23.503  20.822   3.078  0.00  0.00    -0.291 OA
HETATM    7  C   UNK N   1      21.888  19.310   3.131  0.00  0.00     0.073 A 
HETATM    8  C   UNK N   1      20.573  18.883   2.832  0.00  0.00     0.118 A 
HETATM    9  N   UNK N   1      19.795  19.703   2.065  0.00  0.00    -0.338 N 
ATOM     10  HN  UNK N   1      18.853  19.401   1.815  1.00  0.00     0.168 HD
HETATM   11  C   UNK N   1      22.988  18.788   3.821  0.00  0.00     0.027 A 
ENDROOT
BRANCH   8  12
HETATM   12  N   UNK N   1      20.001  17.686   3.329  0.00  0.00    -0.365 N 
HETATM   13  H   UNK N   1      19.432  17.727   4.132  0.00  0.00     0.161 HD
BRANCH  12  14
HETATM   14  C   UNK N   1      20.224  16.407   2.699  0.00  0.00     0.231 C 
BRANCH  14  15
HETATM   15  C   UNK N   1      19.980  16.482   1.224  0.00  0.00     0.158 C 
HETATM   16  O   UNK N   1      20.823  16.054   0.454  0.00  0.00    -0.649 OA
BRANCH  15  17
HETATM   17  O   UNK N   1      18.858  17.049   0.738  0.00  0.00    -0.775 OA
HETATM   18  H   UNK N   1      18.532  17.521  -0.004  0.00  0.00     0.167 HD
ENDBRANCH  15  17
ENDBRANCH  14  15
ENDBRANCH  12  14
ENDBRANCH   8  12
BRANCH  11  19
HETATM   19  C   UNK N   1      23.134  17.457   4.454  0.00  0.00    -0.022 A 
HETATM   20  C   UNK N   1      23.730  16.399   3.751  0.00  0.00     0.012 A 
HETATM   21  C   UNK N   1      23.848  15.136   4.334  0.00  0.00     0.001 A 
HETATM   22  C   UNK N   1      23.358  14.915   5.622  0.00  0.00     0.000 A 
HETATM   23  C   UNK N   1      22.756  15.960   6.329  0.00  0.00     0.001 A 
HETATM   24  C   UNK N   1      22.648  17.229   5.750  0.00  0.00     0.012 A 
ENDBRANCH  11  19
BRANCH   2  25
HETATM   25  C   UNK N   1      25.381  19.758   4.234  0.00  0.00    -0.001 A 
HETATM   26  C   UNK N   1      25.770  20.603   5.283  0.00  0.00     0.014 A 
HETATM   27  C   UNK N   1      27.094  20.607   5.735  0.00  0.00     0.001 A 
HETATM   28  C   UNK N   1      28.044  19.779   5.131  0.00  0.00     0.000 A 
HETATM   29  C   UNK N   1      27.672  18.951   4.072  0.00  0.00     0.001 A 
HETATM   30  C   UNK N   1      26.348  18.945   3.629  0.00  0.00     0.014 A 
ENDBRANCH   2  25
TORSDOF 6
ENDMDL
MODEL 4
REMARK VINA RESULT:      -6.8      2.057      3.516
REMARK  6 active torsions:
REMARK  status: ('A' for Active; 'I' for Inactive)
REMARK    1  A    between atoms: C_2  and  C_3 
REMARK    2  A    between atoms: N_18  and  C_19 
REMARK    3  A    between atoms: N_18  and  C_26 
REMARK    4  A    between atoms: C_23  and  C_24 
REMARK    5  A    between atoms: C_25  and  C_26 
REMARK    6  A    between atoms: C_25  and  O_28 
ROOT
HETATM    1  C   UNK N   1      32.627  14.002   6.364  0.00  0.00     0.184 A 
HETATM    2  C   UNK N   1      28.580  15.216   4.991  0.00  0.00     0.100 A 
HETATM    3  N   UNK N   1      31.504  13.557   5.736  0.00  0.00    -0.332 N 
ATOM      4  HN  UNK N   1      31.443  12.598   5.394  1.00  0.00     0.168 HD
HETATM    5  C   UNK N   1      30.469  14.412   5.577  0.00  0.00     0.164 A 
HETATM    6  O   UNK N   1      29.335  14.134   4.987  0.00  0.00    -0.291 OA
HETATM    7  C   UNK N   1      30.498  15.709   6.021  0.00  0.00     0.073 A 
HETATM    8  C   UNK N   1      31.645  16.151   6.719  0.00  0.00     0.118 A 
HETATM    9  N   UNK N   1      32.688  15.278   6.852  0.00  0.00    -0.338 N 
ATOM     10  HN  UNK N   1      33.536  15.587   7.328  1.00  0.00     0.168 HD
HETATM   11  C   UNK N   1      29.272  16.263   5.636  0.00  0.00     0.027 A 
ENDROOT
BRANCH   8  12
HETATM   12  N   UNK N   1      31.751  17.422   7.336  0.00  0.00    -0.365 N 
HETATM   13  H   UNK N   1      31.112  18.128   7.084  0.00  0.00     0.161 HD
BRANCH  12  14
HETATM   14  C   UNK N   1      32.761  17.718   8.323  0.00  0.00     0.231 C 
BRANCH  14  15
HETATM   15  C   UNK N   1      33.998  18.266   7.683  0.00  0.00     0.158 C 
HETATM   16  O   UNK N   1      34.272  17.950   6.538  0.00  0.00    -0.649 OA
BRANCH  15  17
HETATM   17  O   UNK N   1      34.829  19.076   8.370  0.00  0.00    -0.775 OA
HETATM   18  H   UNK N   1      34.979  19.421   9.228  0.00  0.00     0.167 HD
ENDBRANCH  15  17
ENDBRANCH  14  15
ENDBRANCH  12  14
ENDBRANCH   8  12
BRANCH  11  19
HETATM   19  C   UNK N   1      28.792  17.653   5.812  0.00  0.00    -0.022 A 
HETATM   20  C   UNK N   1      28.391  18.109   7.077  0.00  0.00     0.012 A 
HETATM   21  C   UNK N   1      27.915  19.411   7.245  0.00  0.00     0.001 A 
HETATM   22  C   UNK N   1      27.823  20.266   6.146  0.00  0.00     0.000 A 
HETATM   23  C   UNK N   1      28.214  19.820   4.879  0.00  0.00     0.001 A 
HETATM   24  C   UNK N   1      28.701  18.519   4.713  0.00  0.00     0.012 A 
ENDBRANCH  11  19
BRANCH   2  25
HETATM   25  C   UNK N   1      27.267  15.250   4.297  0.00  0.00    -0.001 A 
HETATM   26  C   UNK N   1      26.096  15.024   5.035  0.00  0.00     0.014 A 
HETATM   27  C   UNK N   1      24.849  15.025   4.399  0.00  0.00     0.001 A 
HETATM   28  C   UNK N   1      24.764  15.235   3.021  0.00  0.00     0.000 A 
HETATM   29  C   UNK N   1      25.925  15.439   2.275  0.00  0.00     0.001 A 
HETATM   30  C   UNK N   1      27.167  15.443   2.913  0.00  0.00     0.014 A 
ENDBRANCH   2  25
TORSDOF 6
ENDMDL
MODEL 5
REMARK VINA RESULT:      -6.8      2.375      6.177
REMARK  6 active torsions:
REMARK  status: ('A' for Active; 'I' for Inactive)
REMARK    1  A    between atoms: C_2  and  C_3 
REMARK    2  A    between atoms: N_18  and  C_19 
REMARK    3  A    between atoms: N_18  and  C_26 
REMARK    4  A    between atoms: C_23  and  C_24 
REMARK    5  A    between atoms: C_25  and  C_26 
REMARK    6  A    between atoms: C_25  and  O_28 
ROOT
HETATM    1  C   UNK N   1      26.920  19.113   6.265  0.00  0.00     0.184 A 
HETATM    2  C   UNK N   1      30.851  17.363   7.373  0.00  0.00     0.100 A 
HETATM    3  N   UNK N   1      27.775  18.910   7.305  0.00  0.00    -0.332 N 
ATOM      4  HN  UNK N   1      27.548  19.247   8.240  1.00  0.00     0.168 HD
HETATM    5  C   UNK N   1      28.933  18.251   7.073  0.00  0.00     0.164 A 
HETATM    6  O   UNK N   1      29.853  17.991   7.965  0.00  0.00    -0.291 OA
HETATM    7  C   UNK N   1      29.285  17.775   5.837  0.00  0.00     0.073 A 
HETATM    8  C   UNK N   1      28.370  17.941   4.771  0.00  0.00     0.118 A 
HETATM    9  N   UNK N   1      27.216  18.628   5.022  0.00  0.00    -0.338 N 
ATOM     10  HN  UNK N   1      26.556  18.782   4.259  1.00  0.00     0.168 HD
HETATM   11  C   UNK N   1      30.549  17.198   6.005  0.00  0.00     0.027 A 
ENDROOT
BRANCH   8  12
HETATM   12  N   UNK N   1      28.556  17.388   3.480  0.00  0.00    -0.365 N 
HETATM   13  H   UNK N   1      28.935  17.954   2.770  0.00  0.00     0.161 HD
BRANCH  12  14
HETATM   14  C   UNK N   1      28.211  16.022   3.171  0.00  0.00     0.231 C 
BRANCH  14  15
HETATM   15  C   UNK N   1      26.839  15.931   2.579  0.00  0.00     0.158 C 
HETATM   16  O   UNK N   1      26.650  15.220   1.607  0.00  0.00    -0.649 OA
BRANCH  15  17
HETATM   17  O   UNK N   1      25.820  16.655   3.085  0.00  0.00    -0.775 OA
HETATM   18  H   UNK N   1      24.933  16.901   2.910  0.00  0.00     0.167 HD
ENDBRANCH  15  17
ENDBRANCH  14  15
ENDBRANCH  12  14
ENDBRANCH   8  12
BRANCH  11  19
HETATM   19  C   UNK N   1      31.424  16.580   4.982  0.00  0.00    -0.022 A 
HETATM   20  C   UNK N   1      32.160  17.386   4.101  0.00  0.00     0.012 A 
HETATM   21  C   UNK N   1      32.968  16.809   3.119  0.00  0.00     0.001 A 
HETATM   22  C   UNK N   1      33.037  15.420   3.000  0.00  0.00     0.000 A 
HETATM   23  C   UNK N   1      32.302  14.608   3.869  0.00  0.00     0.001 A 
HETATM   24  C   UNK N   1      31.501  15.185   4.860  0.00  0.00     0.012 A 
ENDBRANCH  11  19
BRANCH   2  25
HETATM   25  C   UNK N   1      32.100  17.026   8.103  0.00  0.00    -0.001 A 
HETATM   26  C   UNK N   1      33.174  17.928   8.077  0.00  0.00     0.014 A 
HETATM   27  C   UNK N   1      34.371  17.622   8.735  0.00  0.00     0.001 A 
HETATM   28  C   UNK N   1      34.509  16.406   9.408  0.00  0.00     0.000 A 
HETATM   29  C   UNK N   1      33.455  15.493   9.421  0.00  0.00     0.001 A 
HETATM   30  C   UNK N   1      32.260  15.804   8.769  0.00  0.00     0.014 A 
ENDBRANCH   2  25
TORSDOF 6
ENDMDL
MODEL 6
REMARK VINA RESULT:      -6.8      2.201      4.561
REMARK  6 active torsions:
REMARK  status: ('A' for Active; 'I' for Inactive)
REMARK    1  A    between atoms: C_2  and  C_3 
REMARK    2  A    between atoms: N_18  and  C_19 
REMARK    3  A    between atoms: N_18  and  C_26 
REMARK    4  A    between atoms: C_23  and  C_24 
REMARK    5  A    between atoms: C_25  and  C_26 
REMARK    6  A    between atoms: C_25  and  O_28 
ROOT
HETATM    1  C   UNK N   1      33.595  15.548   4.051  0.00  0.00     0.184 A 
HETATM    2  C   UNK N   1      29.599  17.411   4.597  0.00  0.00     0.100 A 
HETATM    3  N   UNK N   1      32.504  16.015   3.384  0.00  0.00    -0.332 N 
ATOM      4  HN  UNK N   1      32.467  15.994   2.365  1.00  0.00     0.168 HD
HETATM    5  C   UNK N   1      31.469  16.508   4.101  0.00  0.00     0.164 A 
HETATM    6  O   UNK N   1      30.363  17.000   3.604  0.00  0.00    -0.291 OA
HETATM    7  C   UNK N   1      31.467  16.557   5.471  0.00  0.00     0.073 A 
HETATM    8  C   UNK N   1      32.579  16.022   6.161  0.00  0.00     0.118 A 
HETATM    9  N   UNK N   1      33.623  15.549   5.418  0.00  0.00    -0.338 N 
ATOM     10  HN  UNK N   1      34.447  15.184   5.897  1.00  0.00     0.168 HD
HETATM   11  C   UNK N   1      30.253  17.159   5.821  0.00  0.00     0.027 A 
ENDROOT
BRANCH   8  12
HETATM   12  N   UNK N   1      32.647  15.898   7.570  0.00  0.00    -0.365 N 
HETATM   13  H   UNK N   1      31.809  15.810   8.081  0.00  0.00     0.161 HD
BRANCH  12  14
HETATM   14  C   UNK N   1      33.900  15.896   8.284  0.00  0.00     0.231 C 
BRANCH  14  15
HETATM   15  C   UNK N   1      34.451  17.282   8.415  0.00  0.00     0.158 C 
HETATM   16  O   UNK N   1      34.686  17.733   9.523  0.00  0.00    -0.649 OA
BRANCH  15  17
HETATM   17  O   UNK N   1      34.655  18.049   7.325  0.00  0.00    -0.775 OA
HETATM   18  H   UNK N   1      34.833  18.932   7.069  0.00  0.00     0.167 HD
ENDBRANCH  15  17
ENDBRANCH  14  15
ENDBRANCH  12  14
ENDBRANCH   8  12
BRANCH  11  19
HETATM   19  C   UNK N   1      29.753  17.510   7.171  0.00  0.00    -0.022 A 
HETATM   20  C   UNK N   1      30.549  18.264   8.047  0.00  0.00     0.012 A 
HETATM   21  C   UNK N   1      30.093  18.577   9.329  0.00  0.00     0.001 A 
HETATM   22  C   UNK N   1      28.841  18.128   9.752  0.00  0.00     0.000 A 
HETATM   23  C   UNK N   1      28.043  17.370   8.889  0.00  0.00     0.001 A 
HETATM   24  C   UNK N   1      28.495  17.066   7.601  0.00  0.00     0.012 A 
ENDBRANCH  11  19
BRANCH   2  25
HETATM   25  C   UNK N   1      28.316  18.118   4.350  0.00  0.00    -0.001 A 
HETATM   26  C   UNK N   1      28.213  19.481   4.661  0.00  0.00     0.014 A 
HETATM   27  C   UNK N   1      27.007  20.164   4.461  0.00  0.00     0.001 A 
HETATM   28  C   UNK N   1      25.892  19.485   3.965  0.00  0.00     0.000 A 
HETATM   29  C   UNK N   1      25.978  18.124   3.673  0.00  0.00     0.001 A 
HETATM   30  C   UNK N   1      27.184  17.448   3.868  0.00  0.00     0.014 A 
ENDBRANCH   2  25
TORSDOF 6
ENDMDL
MODEL 7
REMARK VINA RESULT:      -6.8     10.100     13.055
REMARK  6 active torsions:
REMARK  status: ('A' for Active; 'I' for Inactive)
REMARK    1  A    between atoms: C_2  and  C_3 
REMARK    2  A    between atoms: N_18  and  C_19 
REMARK    3  A    between atoms: N_18  and  C_26 
REMARK    4  A    between atoms: C_23  and  C_24 
REMARK    5  A    between atoms: C_25  and  C_26 
REMARK    6  A    between atoms: C_25  and  O_28 
ROOT
HETATM    1  C   UNK N   1      37.348  16.207  16.196  0.00  0.00     0.184 A 
HETATM    2  C   UNK N   1      35.518  12.360  17.457  0.00  0.00     0.100 A 
HETATM    3  N   UNK N   1      36.856  15.527  17.268  0.00  0.00    -0.332 N 
ATOM      4  HN  UNK N   1      36.857  15.947  18.197  1.00  0.00     0.168 HD
HETATM    5  C   UNK N   1      36.364  14.282  17.076  0.00  0.00     0.164 A 
HETATM    6  O   UNK N   1      35.870  13.506  18.006  0.00  0.00    -0.291 OA
HETATM    7  C   UNK N   1      36.336  13.673  15.848  0.00  0.00     0.073 A 
HETATM    8  C   UNK N   1      36.798  14.403  14.729  0.00  0.00     0.118 A 
HETATM    9  N   UNK N   1      37.311  15.651  14.947  0.00  0.00    -0.338 N 
ATOM     10  HN  UNK N   1      37.675  16.182  14.156  1.00  0.00     0.168 HD
HETATM   11  C   UNK N   1      35.796  12.402  16.074  0.00  0.00     0.027 A 
ENDROOT
BRANCH   8  12
HETATM   12  N   UNK N   1      36.708  13.938  13.393  0.00  0.00    -0.365 N 
HETATM   13  H   UNK N   1      37.317  13.224  13.095  0.00  0.00     0.161 HD
BRANCH  12  14
HETATM   14  C   UNK N   1      35.753  14.475  12.455  0.00  0.00     0.231 C 
BRANCH  14  15
HETATM   15  C   UNK N   1      36.412  14.838  11.160  0.00  0.00     0.158 C 
HETATM   16  O   UNK N   1      36.500  14.002  10.277  0.00  0.00    -0.649 OA
BRANCH  15  17
HETATM   17  O   UNK N   1      36.939  16.064  10.975  0.00  0.00    -0.775 OA
HETATM   18  H   UNK N   1      37.464  16.558  10.376  0.00  0.00     0.167 HD
ENDBRANCH  15  17
ENDBRANCH  14  15
ENDBRANCH  12  14
ENDBRANCH   8  12
BRANCH  11  19
HETATM   19  C   UNK N   1      35.589  11.302  15.104  0.00  0.00    -0.022 A 
HETATM   20  C   UNK N   1      34.379  11.195  14.401  0.00  0.00     0.012 A 
HETATM   21  C   UNK N   1      34.169  10.147  13.504  0.00  0.00     0.001 A 
HETATM   22  C   UNK N   1      35.163   9.187  13.310  0.00  0.00     0.000 A 
HETATM   23  C   UNK N   1      36.371   9.280  14.010  0.00  0.00     0.001 A 
HETATM   24  C   UNK N   1      36.585  10.336  14.901  0.00  0.00     0.012 A 
ENDBRANCH  11  19
BRANCH   2  25
HETATM   25  C   UNK N   1      35.020  11.226  18.276  0.00  0.00    -0.001 A 
HETATM   26  C   UNK N   1      35.068  11.317  19.675  0.00  0.00     0.014 A 
HETATM   27  C   UNK N   1      34.629  10.252  20.469  0.00  0.00     0.001 A 
HETATM   28  C   UNK N   1      34.155   9.081  19.873  0.00  0.00     0.000 A 
HETATM   29  C   UNK N   1      34.123   8.972  18.482  0.00  0.00     0.001 A 
HETATM   30  C   UNK N   1      34.556  10.039  17.693  0.00  0.00     0.014 A 
ENDBRANCH   2  25
TORSDOF 6
ENDMDL
MODEL 8
REMARK VINA RESULT:      -6.8      6.934      9.876
REMARK  6 active torsions:
REMARK  status: ('A' for Active; 'I' for Inactive)
REMARK    1  A    between atoms: C_2  and  C_3 
REMARK    2  A    between atoms: N_18  and  C_19 
REMARK    3  A    between atoms: N_18  and  C_26 
REMARK    4  A    between atoms: C_23  and  C_24 
REMARK    5  A    between atoms: C_25  and  C_26 
REMARK    6  A    between atoms: C_25  and  O_28 
ROOT
HETATM    1  C   UNK N   1      19.209  19.017   2.622  0.00  0.00     0.184 A 
HETATM    2  C   UNK N   1      23.460  19.120   3.908  0.00  0.00     0.100 A 
HETATM    3  N   UNK N   1      20.269  19.844   2.834  0.00  0.00    -0.332 N 
ATOM      4  HN  UNK N   1      20.192  20.846   2.662  1.00  0.00     0.168 HD
HETATM    5  C   UNK N   1      21.429  19.309   3.279  0.00  0.00     0.164 A 
HETATM    6  O   UNK N   1      22.531  19.971   3.518  0.00  0.00    -0.291 OA
HETATM    7  C   UNK N   1      21.585  17.970   3.529  0.00  0.00     0.073 A 
HETATM    8  C   UNK N   1      20.465  17.123   3.359  0.00  0.00     0.118 A 
HETATM    9  N   UNK N   1      19.310  17.680   2.888  0.00  0.00    -0.338 N 
ATOM     10  HN  UNK N   1      18.499  17.080   2.732  1.00  0.00     0.168 HD
HETATM   11  C   UNK N   1      22.917  17.818   3.931  0.00  0.00     0.027 A 
ENDROOT
BRANCH   8  12
HETATM   12  N   UNK N   1      20.459  15.748   3.701  0.00  0.00    -0.365 N 
HETATM   13  H   UNK N   1      21.309  15.252   3.693  0.00  0.00     0.161 HD
BRANCH  12  14
HETATM   14  C   UNK N   1      19.248  15.050   4.061  0.00  0.00     0.231 C 
BRANCH  14  15
HETATM   15  C   UNK N   1      18.888  15.296   5.493  0.00  0.00     0.158 C 
HETATM   16  O   UNK N   1      19.626  14.891   6.375  0.00  0.00    -0.649 OA
BRANCH  15  17
HETATM   17  O   UNK N   1      17.742  15.926   5.817  0.00  0.00    -0.775 OA
HETATM   18  H   UNK N   1      16.811  15.840   5.757  0.00  0.00     0.167 HD
ENDBRANCH  15  17
ENDBRANCH  14  15
ENDBRANCH  12  14
ENDBRANCH   8  12
BRANCH  11  19
HETATM   19  C   UNK N   1      23.641  16.571   4.271  0.00  0.00    -0.022 A 
HETATM   20  C   UNK N   1      24.352  15.873   3.283  0.00  0.00     0.012 A 
HETATM   21  C   UNK N   1      25.016  14.685   3.592  0.00  0.00     0.001 A 
HETATM   22  C   UNK N   1      24.965  14.176   4.891  0.00  0.00     0.000 A 
HETATM   23  C   UNK N   1      24.254  14.860   5.882  0.00  0.00     0.001 A 
HETATM   24  C   UNK N   1      23.597  16.056   5.575  0.00  0.00     0.012 A 
ENDBRANCH  11  19
BRANCH   2  25
HETATM   25  C   UNK N   1      24.860  19.554   4.152  0.00  0.00    -0.001 A 
HETATM   26  C   UNK N   1      25.591  20.131   3.104  0.00  0.00     0.014 A 
HETATM   27  C   UNK N   1      26.920  20.525   3.301  0.00  0.00     0.001 A 
HETATM   28  C   UNK N   1      27.532  20.328   4.542  0.00  0.00     0.000 A 
HETATM   29  C   UNK N   1      26.820  19.735   5.583  0.00  0.00     0.001 A 
HETATM   30  C   UNK N   1      25.493  19.349   5.385  0.00  0.00     0.014 A 
ENDBRANCH   2  25
TORSDOF 6
ENDMDL
MODEL 9
REMARK VINA RESULT:      -6.6     12.081     14.038
REMARK  6 active torsions:
REMARK  status: ('A' for Active; 'I' for Inactive)
REMARK    1  A    between atoms: C_2  and  C_3 
REMARK    2  A    between atoms: N_18  and  C_19 
REMARK    3  A    between atoms: N_18  and  C_26 
REMARK    4  A    between atoms: C_23  and  C_24 
REMARK    5  A    between atoms: C_25  and  C_26 
REMARK    6  A    between atoms: C_25  and  O_28 
ROOT
HETATM    1  C   UNK N   1      29.318  19.162  -8.102  0.00  0.00     0.184 A 
HETATM    2  C   UNK N   1      27.654  23.044  -6.723  0.00  0.00     0.100 A 
HETATM    3  N   UNK N   1      28.231  19.977  -8.180  0.00  0.00    -0.332 N 
ATOM      4  HN  UNK N   1      27.423  19.717  -8.746  1.00  0.00     0.168 HD
HETATM    5  C   UNK N   1      28.243  21.141  -7.491  0.00  0.00     0.164 A 
HETATM    6  O   UNK N   1      27.281  22.027  -7.476  0.00  0.00    -0.291 OA
HETATM    7  C   UNK N   1      29.300  21.537  -6.714  0.00  0.00     0.073 A 
HETATM    8  C   UNK N   1      30.405  20.662  -6.593  0.00  0.00     0.118 A 
HETATM    9  N   UNK N   1      30.383  19.502  -7.314  0.00  0.00    -0.338 N 
ATOM     10  HN  UNK N   1      31.183  18.871  -7.262  1.00  0.00     0.168 HD
HETATM   11  C   UNK N   1      28.943  22.792  -6.208  0.00  0.00     0.027 A 
ENDROOT
BRANCH   8  12
HETATM   12  N   UNK N   1      31.502  20.894  -5.727  0.00  0.00    -0.365 N 
HETATM   13  H   UNK N   1      32.312  21.322  -6.088  0.00  0.00     0.161 HD
BRANCH  12  14
HETATM   14  C   UNK N   1      31.472  20.528  -4.332  0.00  0.00     0.231 C 
BRANCH  14  15
HETATM   15  C   UNK N   1      32.301  21.464  -3.509  0.00  0.00     0.158 C 
HETATM   16  O   UNK N   1      32.922  22.357  -4.058  0.00  0.00    -0.649 OA
BRANCH  15  17
HETATM   17  O   UNK N   1      32.397  21.307  -2.173  0.00  0.00    -0.775 OA
HETATM   18  H   UNK N   1      32.037  20.816  -1.461  0.00  0.00     0.167 HD
ENDBRANCH  15  17
ENDBRANCH  14  15
ENDBRANCH  12  14
ENDBRANCH   8  12
BRANCH  11  19
HETATM   19  C   UNK N   1      29.739  23.702  -5.353  0.00  0.00    -0.022 A 
HETATM   20  C   UNK N   1      29.516  23.750  -3.969  0.00  0.00     0.012 A 
HETATM   21  C   UNK N   1      30.247  24.624  -3.162  0.00  0.00     0.001 A 
HETATM   22  C   UNK N   1      31.200  25.468  -3.733  0.00  0.00     0.000 A 
HETATM   23  C   UNK N   1      31.426  25.433  -5.113  0.00  0.00     0.001 A 
HETATM   24  C   UNK N   1      30.702  24.550  -5.921  0.00  0.00     0.012 A 
ENDBRANCH  11  19
BRANCH   2  25
HETATM   25  C   UNK N   1      26.817  24.264  -6.595  0.00  0.00    -0.001 A 
HETATM   26  C   UNK N   1      26.825  25.213  -7.627  0.00  0.00     0.014 A 
HETATM   27  C   UNK N   1      26.066  26.384  -7.518  0.00  0.00     0.001 A 
HETATM   28  C   UNK N   1      25.306  26.623  -6.370  0.00  0.00     0.000 A 
HETATM   29  C   UNK N   1      25.309  25.695  -5.328  0.00  0.00     0.001 A 
HETATM   30  C   UNK N   1      26.063  24.526  -5.443  0.00  0.00     0.014 A 
ENDBRANCH   2  25
TORSDOF 6
ENDMDL
