REMARK  6 active torsions:
REMARK  status: ('A' for Active; 'I' for Inactive)
REMARK    1  A    between atoms: C_2  and  C_3 
REMARK    2  A    between atoms: N_18  and  C_19 
REMARK    3  A    between atoms: N_18  and  C_26 
REMARK    4  A    between atoms: C_23  and  C_24 
REMARK    5  A    between atoms: C_25  and  C_26 
REMARK    6  A    between atoms: C_25  and  O_27 
ROOT
HETATM    1  C   UNK N   1       3.677  -3.209  -0.380  0.00  0.00     0.184 A 
HETATM    2  C   UNK N   1      -0.597  -2.131   0.155  0.00  0.00     0.100 A 
HETATM    3  N   UNK N   1       2.434  -3.716  -0.172  0.00  0.00    -0.332 N 
ATOM      4  HN  UNK N   1       2.287  -4.723  -0.112  1.00  0.00     0.168 HD
HETATM    5  C   UNK N   1       1.397  -2.859  -0.048  0.00  0.00     0.164 A 
HETATM    6  O   UNK N   1       0.152  -3.212   0.124  0.00  0.00    -0.291 OA
HETATM    7  C   UNK N   1       1.534  -1.492  -0.112  0.00  0.00     0.073 A 
HETATM    8  C   UNK N   1       2.847  -0.962  -0.266  0.00  0.00     0.119 A 
HETATM    9  N   UNK N   1       3.871  -1.859  -0.421  0.00  0.00    -0.338 N 
ATOM     10  HN  UNK N   1       4.816  -1.504  -0.572  1.00  0.00     0.168 HD
HETATM   11  C   UNK N   1       0.226  -0.990   0.012  0.00  0.00     0.027 A 
ENDROOT
BRANCH   2  12
HETATM   12  C   UNK N   1      -2.079  -2.229   0.198  0.00  0.00    -0.001 A 
HETATM   13  C   UNK N   1      -2.675  -3.460   0.511  0.00  0.00     0.014 A 
HETATM   14  C   UNK N   1      -4.067  -3.595   0.509  0.00  0.00     0.001 A 
HETATM   15  C   UNK N   1      -4.876  -2.508   0.170  0.00  0.00     0.000 A 
HETATM   16  C   UNK N   1      -4.293  -1.286  -0.166  0.00  0.00     0.001 A 
HETATM   17  C   UNK N   1      -2.903  -1.151  -0.155  0.00  0.00     0.014 A 
ENDBRANCH   2  12
BRANCH  11  18
HETATM   18  C   UNK N   1      -0.253   0.410  -0.054  0.00  0.00    -0.022 A 
HETATM   19  C   UNK N   1      -1.210   0.872   0.864  0.00  0.00     0.012 A 
HETATM   20  C   UNK N   1      -1.695   2.178   0.790  0.00  0.00     0.001 A 
HETATM   21  C   UNK N   1      -1.236   3.034  -0.213  0.00  0.00     0.000 A 
HETATM   22  C   UNK N   1      -0.289   2.584  -1.137  0.00  0.00     0.001 A 
HETATM   23  C   UNK N   1       0.204   1.276  -1.057  0.00  0.00     0.012 A 
ENDBRANCH  11  18
BRANCH   8  24
HETATM   24  N   UNK N   1       3.173   0.431  -0.211  0.00  0.00    -0.369 N 
HETATM   25  C   UNK N   1       4.507   0.823  -0.614  0.00  0.00     0.151 C 
BRANCH  24  26
HETATM   26  C   UNK N   1       2.476   1.292   0.724  0.00  0.00     0.150 C 
BRANCH  26  27
HETATM   27  C   UNK N   1       2.660   2.769   0.392  0.00  0.00     0.183 C 
BRANCH  27  28
HETATM   28  O   UNK N   1       1.870   3.541   1.241  0.00  0.00    -0.399 OA
HETATM   29  H   UNK N   1       2.061   4.286   1.833  0.00  0.00     0.209 HD
ENDBRANCH  27  28
ENDBRANCH  26  27
ENDBRANCH  24  26
ENDBRANCH   8  24
TORSDOF 6
