MODEL 1
REMARK VINA RESULT:      -7.2      0.000      0.000
REMARK  6 active torsions:
REMARK  status: ('A' for Active; 'I' for Inactive)
REMARK    1  A    between atoms: C_2  and  C_3 
REMARK    2  A    between atoms: N_18  and  C_19 
REMARK    3  A    between atoms: N_18  and  C_26 
REMARK    4  A    between atoms: C_23  and  C_24 
REMARK    5  A    between atoms: C_25  and  C_26 
REMARK    6  A    between atoms: C_25  and  O_27 
ROOT
HETATM    1  C   UNK N   1      29.371  17.446  10.304  0.00  0.00     0.184 A 
HETATM    2  C   UNK N   1      28.125  18.471   6.167  0.00  0.00     0.100 A 
HETATM    3  N   UNK N   1      28.430  18.092   9.568  0.00  0.00    -0.332 N 
ATOM      4  HN  UNK N   1      27.639  18.549  10.022  1.00  0.00     0.168 HD
HETATM    5  C   UNK N   1      28.561  18.117   8.224  0.00  0.00     0.164 A 
HETATM    6  O   UNK N   1      27.716  18.675   7.400  0.00  0.00    -0.291 OA
HETATM    7  C   UNK N   1      29.609  17.527   7.556  0.00  0.00     0.073 A 
HETATM    8  C   UNK N   1      30.628  16.906   8.334  0.00  0.00     0.119 A 
HETATM    9  N   UNK N   1      30.446  16.871   9.691  0.00  0.00    -0.338 N 
ATOM     10  HN  UNK N   1      31.143  16.397  10.268  1.00  0.00     0.168 HD
HETATM   11  C   UNK N   1      29.337  17.742   6.193  0.00  0.00     0.027 A 
ENDROOT
BRANCH   2  12
HETATM   12  C   UNK N   1      27.287  18.870   5.007  0.00  0.00    -0.001 A 
HETATM   13  C   UNK N   1      27.479  20.133   4.426  0.00  0.00     0.014 A 
HETATM   14  C   UNK N   1      26.671  20.556   3.366  0.00  0.00     0.001 A 
HETATM   15  C   UNK N   1      25.646  19.733   2.894  0.00  0.00     0.000 A 
HETATM   16  C   UNK N   1      25.431  18.486   3.481  0.00  0.00     0.001 A 
HETATM   17  C   UNK N   1      26.245  18.061   4.533  0.00  0.00     0.014 A 
ENDBRANCH   2  12
BRANCH  11  18
HETATM   18  C   UNK N   1      30.082  17.273   5.002  0.00  0.00    -0.022 A 
HETATM   19  C   UNK N   1      29.554  16.250   4.198  0.00  0.00     0.012 A 
HETATM   20  C   UNK N   1      30.262  15.775   3.093  0.00  0.00     0.001 A 
HETATM   21  C   UNK N   1      31.514  16.313   2.788  0.00  0.00     0.000 A 
HETATM   22  C   UNK N   1      32.053  17.327   3.584  0.00  0.00     0.001 A 
HETATM   23  C   UNK N   1      31.338  17.809   4.687  0.00  0.00     0.012 A 
ENDBRANCH  11  18
BRANCH   8  24
HETATM   24  N   UNK N   1      31.845  16.373   7.802  0.00  0.00    -0.369 N 
HETATM   25  C   UNK N   1      31.797  15.050   7.216  0.00  0.00     0.151 C 
BRANCH  24  26
HETATM   26  C   UNK N   1      33.116  16.824   8.334  0.00  0.00     0.150 C 
BRANCH  26  27
HETATM   27  C   UNK N   1      33.517  18.188   7.784  0.00  0.00     0.183 C 
BRANCH  27  28
HETATM   28  O   UNK N   1      34.403  18.022   6.722  0.00  0.00    -0.399 OA
HETATM   29  H   UNK N   1      34.407  18.336   5.803  0.00  0.00     0.209 HD
ENDBRANCH  27  28
ENDBRANCH  26  27
ENDBRANCH  24  26
ENDBRANCH   8  24
TORSDOF 6
ENDMDL
MODEL 2
REMARK VINA RESULT:      -7.0      1.675      2.273
REMARK  6 active torsions:
REMARK  status: ('A' for Active; 'I' for Inactive)
REMARK    1  A    between atoms: C_2  and  C_3 
REMARK    2  A    between atoms: N_18  and  C_19 
REMARK    3  A    between atoms: N_18  and  C_26 
REMARK    4  A    between atoms: C_23  and  C_24 
REMARK    5  A    between atoms: C_25  and  C_26 
REMARK    6  A    between atoms: C_25  and  O_27 
ROOT
HETATM    1  C   UNK N   1      29.346  17.642   9.911  0.00  0.00     0.184 A 
HETATM    2  C   UNK N   1      28.506  16.782   5.636  0.00  0.00     0.100 A 
HETATM    3  N   UNK N   1      28.358  17.544   8.983  0.00  0.00    -0.332 N 
ATOM      4  HN  UNK N   1      27.383  17.683   9.246  1.00  0.00     0.168 HD
HETATM    5  C   UNK N   1      28.694  17.256   7.707  0.00  0.00     0.164 A 
HETATM    6  O   UNK N   1      27.845  17.103   6.727  0.00  0.00    -0.291 OA
HETATM    7  C   UNK N   1      29.991  17.065   7.291  0.00  0.00     0.073 A 
HETATM    8  C   UNK N   1      31.028  17.232   8.252  0.00  0.00     0.119 A 
HETATM    9  N   UNK N   1      30.651  17.492   9.543  0.00  0.00    -0.338 N 
ATOM     10  HN  UNK N   1      31.375  17.577  10.258  1.00  0.00     0.168 HD
HETATM   11  C   UNK N   1      29.890  16.743   5.925  0.00  0.00     0.027 A 
ENDROOT
BRANCH   2  12
HETATM   12  C   UNK N   1      27.790  16.407   4.390  0.00  0.00    -0.001 A 
HETATM   13  C   UNK N   1      26.645  17.128   4.015  0.00  0.00     0.014 A 
HETATM   14  C   UNK N   1      25.921  16.765   2.875  0.00  0.00     0.001 A 
HETATM   15  C   UNK N   1      26.319  15.665   2.112  0.00  0.00     0.000 A 
HETATM   16  C   UNK N   1      27.441  14.927   2.489  0.00  0.00     0.001 A 
HETATM   17  C   UNK N   1      28.168  15.296   3.623  0.00  0.00     0.014 A 
ENDBRANCH   2  12
BRANCH  11  18
HETATM   18  C   UNK N   1      30.956  16.368   4.968  0.00  0.00    -0.022 A 
HETATM   19  C   UNK N   1      31.455  17.317   4.061  0.00  0.00     0.012 A 
HETATM   20  C   UNK N   1      32.434  16.967   3.131  0.00  0.00     0.001 A 
HETATM   21  C   UNK N   1      32.916  15.658   3.089  0.00  0.00     0.000 A 
HETATM   22  C   UNK N   1      32.422  14.702   3.981  0.00  0.00     0.001 A 
HETATM   23  C   UNK N   1      31.446  15.056   4.920  0.00  0.00     0.012 A 
ENDBRANCH  11  18
BRANCH   8  24
HETATM   24  N   UNK N   1      32.428  17.206   7.950  0.00  0.00    -0.369 N 
HETATM   25  C   UNK N   1      33.120  15.942   8.092  0.00  0.00     0.151 C 
BRANCH  24  26
HETATM   26  C   UNK N   1      33.212  18.417   8.087  0.00  0.00     0.150 C 
BRANCH  26  27
HETATM   27  C   UNK N   1      34.684  18.122   8.352  0.00  0.00     0.183 C 
BRANCH  27  28
HETATM   28  O   UNK N   1      35.369  19.316   8.566  0.00  0.00    -0.399 OA
HETATM   29  H   UNK N   1      35.990  19.832   8.028  0.00  0.00     0.209 HD
ENDBRANCH  27  28
ENDBRANCH  26  27
ENDBRANCH  24  26
ENDBRANCH   8  24
TORSDOF 6
ENDMDL
MODEL 3
REMARK VINA RESULT:      -6.7      3.390      7.033
REMARK  6 active torsions:
REMARK  status: ('A' for Active; 'I' for Inactive)
REMARK    1  A    between atoms: C_2  and  C_3 
REMARK    2  A    between atoms: N_18  and  C_19 
REMARK    3  A    between atoms: N_18  and  C_26 
REMARK    4  A    between atoms: C_23  and  C_24 
REMARK    5  A    between atoms: C_25  and  C_26 
REMARK    6  A    between atoms: C_25  and  O_27 
ROOT
HETATM    1  C   UNK N   1      26.341  14.856   1.880  0.00  0.00     0.184 A 
HETATM    2  C   UNK N   1      29.621  16.876   4.088  0.00  0.00     0.100 A 
HETATM    3  N   UNK N   1      27.681  14.852   2.101  0.00  0.00    -0.332 N 
ATOM      4  HN  UNK N   1      28.279  14.154   1.660  1.00  0.00     0.168 HD
HETATM    5  C   UNK N   1      28.206  15.791   2.919  0.00  0.00     0.164 A 
HETATM    6  O   UNK N   1      29.468  15.883   3.239  0.00  0.00    -0.291 OA
HETATM    7  C   UNK N   1      27.452  16.763   3.536  0.00  0.00     0.073 A 
HETATM    8  C   UNK N   1      26.057  16.803   3.251  0.00  0.00     0.119 A 
HETATM    9  N   UNK N   1      25.553  15.817   2.444  0.00  0.00    -0.338 N 
ATOM     10  HN  UNK N   1      24.550  15.801   2.257  1.00  0.00     0.168 HD
HETATM   11  C   UNK N   1      28.367  17.487   4.321  0.00  0.00     0.027 A 
ENDROOT
BRANCH   2  12
HETATM   12  C   UNK N   1      30.932  17.130   4.738  0.00  0.00    -0.001 A 
HETATM   13  C   UNK N   1      32.022  17.528   3.950  0.00  0.00     0.014 A 
HETATM   14  C   UNK N   1      33.281  17.725   4.526  0.00  0.00     0.001 A 
HETATM   15  C   UNK N   1      33.468  17.502   5.892  0.00  0.00     0.000 A 
HETATM   16  C   UNK N   1      32.397  17.084   6.682  0.00  0.00     0.001 A 
HETATM   17  C   UNK N   1      31.139  16.896   6.105  0.00  0.00     0.014 A 
ENDBRANCH   2  12
BRANCH  11  18
HETATM   18  C   UNK N   1      28.120  18.608   5.257  0.00  0.00    -0.022 A 
HETATM   19  C   UNK N   1      27.981  18.360   6.632  0.00  0.00     0.012 A 
HETATM   20  C   UNK N   1      27.713  19.403   7.520  0.00  0.00     0.001 A 
HETATM   21  C   UNK N   1      27.568  20.705   7.038  0.00  0.00     0.000 A 
HETATM   22  C   UNK N   1      27.697  20.964   5.671  0.00  0.00     0.001 A 
HETATM   23  C   UNK N   1      27.975  19.919   4.782  0.00  0.00     0.012 A 
ENDBRANCH  11  18
BRANCH   8  24
HETATM   24  N   UNK N   1      25.165  17.829   3.700  0.00  0.00    -0.369 N 
HETATM   25  C   UNK N   1      23.944  17.414   4.357  0.00  0.00     0.151 C 
BRANCH  24  26
HETATM   26  C   UNK N   1      25.163  19.116   3.033  0.00  0.00     0.150 C 
BRANCH  26  27
HETATM   27  C   UNK N   1      23.959  19.965   3.427  0.00  0.00     0.183 C 
BRANCH  27  28
HETATM   28  O   UNK N   1      23.836  21.039   2.548  0.00  0.00    -0.399 OA
HETATM   29  H   UNK N   1      24.016  21.989   2.630  0.00  0.00     0.209 HD
ENDBRANCH  27  28
ENDBRANCH  26  27
ENDBRANCH  24  26
ENDBRANCH   8  24
TORSDOF 6
ENDMDL
MODEL 4
REMARK VINA RESULT:      -6.6      5.936      9.146
REMARK  6 active torsions:
REMARK  status: ('A' for Active; 'I' for Inactive)
REMARK    1  A    between atoms: C_2  and  C_3 
REMARK    2  A    between atoms: N_18  and  C_19 
REMARK    3  A    between atoms: N_18  and  C_26 
REMARK    4  A    between atoms: C_23  and  C_24 
REMARK    5  A    between atoms: C_25  and  C_26 
REMARK    6  A    between atoms: C_25  and  O_27 
ROOT
HETATM    1  C   UNK N   1      20.307  20.615   1.754  0.00  0.00     0.184 A 
HETATM    2  C   UNK N   1      24.068  19.642   3.906  0.00  0.00     0.100 A 
HETATM    3  N   UNK N   1      21.476  21.133   2.213  0.00  0.00    -0.332 N 
ATOM      4  HN  UNK N   1      21.708  22.113   2.053  1.00  0.00     0.168 HD
HETATM    5  C   UNK N   1      22.324  20.325   2.886  0.00  0.00     0.164 A 
HETATM    6  O   UNK N   1      23.488  20.686   3.353  0.00  0.00    -0.291 OA
HETATM    7  C   UNK N   1      22.062  18.999   3.140  0.00  0.00     0.073 A 
HETATM    8  C   UNK N   1      20.809  18.475   2.713  0.00  0.00     0.119 A 
HETATM    9  N   UNK N   1      19.987  19.313   2.006  0.00  0.00    -0.338 N 
ATOM     10  HN  UNK N   1      19.100  18.950   1.656  1.00  0.00     0.168 HD
HETATM   11  C   UNK N   1      23.206  18.525   3.807  0.00  0.00     0.027 A 
ENDROOT
BRANCH   2  12
HETATM   12  C   UNK N   1      25.467  19.717   4.399  0.00  0.00    -0.001 A 
HETATM   13  C   UNK N   1      25.774  20.581   5.461  0.00  0.00     0.014 A 
HETATM   14  C   UNK N   1      27.091  20.710   5.913  0.00  0.00     0.001 A 
HETATM   15  C   UNK N   1      28.118  19.996   5.292  0.00  0.00     0.000 A 
HETATM   16  C   UNK N   1      27.828  19.152   4.219  0.00  0.00     0.001 A 
HETATM   17  C   UNK N   1      26.511  19.018   3.775  0.00  0.00     0.014 A 
ENDBRANCH   2  12
BRANCH  11  18
HETATM   18  C   UNK N   1      23.524  17.153   4.268  0.00  0.00    -0.022 A 
HETATM   19  C   UNK N   1      23.264  16.777   5.595  0.00  0.00     0.012 A 
HETATM   20  C   UNK N   1      23.591  15.499   6.050  0.00  0.00     0.001 A 
HETATM   21  C   UNK N   1      24.196  14.587   5.184  0.00  0.00     0.000 A 
HETATM   22  C   UNK N   1      24.467  14.952   3.862  0.00  0.00     0.001 A 
HETATM   23  C   UNK N   1      24.130  16.231   3.403  0.00  0.00     0.012 A 
ENDBRANCH  11  18
BRANCH   8  24
HETATM   24  N   UNK N   1      20.329  17.161   3.021  0.00  0.00    -0.369 N 
HETATM   25  C   UNK N   1      19.920  16.901   4.385  0.00  0.00     0.151 C 
BRANCH  24  26
HETATM   26  C   UNK N   1      20.777  16.033   2.229  0.00  0.00     0.150 C 
BRANCH  26  27
HETATM   27  C   UNK N   1      19.930  15.837   0.977  0.00  0.00     0.183 C 
BRANCH  27  28
HETATM   28  O   UNK N   1      20.283  16.787   0.021  0.00  0.00    -0.399 OA
HETATM   29  H   UNK N   1      21.135  17.109  -0.315  0.00  0.00     0.209 HD
ENDBRANCH  27  28
ENDBRANCH  26  27
ENDBRANCH  24  26
ENDBRANCH   8  24
TORSDOF 6
ENDMDL
MODEL 5
REMARK VINA RESULT:      -6.6      5.953      9.232
REMARK  6 active torsions:
REMARK  status: ('A' for Active; 'I' for Inactive)
REMARK    1  A    between atoms: C_2  and  C_3 
REMARK    2  A    between atoms: N_18  and  C_19 
REMARK    3  A    between atoms: N_18  and  C_26 
REMARK    4  A    between atoms: C_23  and  C_24 
REMARK    5  A    between atoms: C_25  and  C_26 
REMARK    6  A    between atoms: C_25  and  O_27 
ROOT
HETATM    1  C   UNK N   1      20.346  20.566   1.608  0.00  0.00     0.184 A 
HETATM    2  C   UNK N   1      24.092  19.842   3.880  0.00  0.00     0.100 A 
HETATM    3  N   UNK N   1      21.492  21.146   2.050  0.00  0.00    -0.332 N 
ATOM      4  HN  UNK N   1      21.702  22.118   1.827  1.00  0.00     0.168 HD
HETATM    5  C   UNK N   1      22.349  20.407   2.789  0.00  0.00     0.164 A 
HETATM    6  O   UNK N   1      23.495  20.831   3.249  0.00  0.00    -0.291 OA
HETATM    7  C   UNK N   1      22.118  19.095   3.127  0.00  0.00     0.073 A 
HETATM    8  C   UNK N   1      20.887  18.509   2.716  0.00  0.00     0.119 A 
HETATM    9  N   UNK N   1      20.056  19.275   1.942  0.00  0.00    -0.338 N 
ATOM     10  HN  UNK N   1      19.185  18.865   1.602  1.00  0.00     0.168 HD
HETATM   11  C   UNK N   1      23.262  18.698   3.843  0.00  0.00     0.027 A 
ENDROOT
BRANCH   2  12
HETATM   12  C   UNK N   1      25.480  19.989   4.390  0.00  0.00    -0.001 A 
HETATM   13  C   UNK N   1      26.536  19.398   3.680  0.00  0.00     0.014 A 
HETATM   14  C   UNK N   1      27.846  19.475   4.163  0.00  0.00     0.001 A 
HETATM   15  C   UNK N   1      28.110  20.122   5.372  0.00  0.00     0.000 A 
HETATM   16  C   UNK N   1      27.064  20.692   6.098  0.00  0.00     0.001 A 
HETATM   17  C   UNK N   1      25.758  20.621   5.610  0.00  0.00     0.014 A 
ENDBRANCH   2  12
BRANCH  11  18
HETATM   18  C   UNK N   1      23.608  17.370   4.400  0.00  0.00    -0.022 A 
HETATM   19  C   UNK N   1      24.358  16.459   3.639  0.00  0.00     0.012 A 
HETATM   20  C   UNK N   1      24.660  15.192   4.138  0.00  0.00     0.001 A 
HETATM   21  C   UNK N   1      24.203  14.817   5.403  0.00  0.00     0.000 A 
HETATM   22  C   UNK N   1      23.449  15.711   6.168  0.00  0.00     0.001 A 
HETATM   23  C   UNK N   1      23.153  16.986   5.669  0.00  0.00     0.012 A 
ENDBRANCH  11  18
BRANCH   8  24
HETATM   24  N   UNK N   1      20.436  17.207   3.104  0.00  0.00    -0.369 N 
HETATM   25  C   UNK N   1      20.332  16.198   2.071  0.00  0.00     0.151 C 
BRANCH  24  26
HETATM   26  C   UNK N   1      19.585  17.062   4.269  0.00  0.00     0.150 C 
BRANCH  26  27
HETATM   27  C   UNK N   1      19.215  15.606   4.533  0.00  0.00     0.183 C 
BRANCH  27  28
HETATM   28  O   UNK N   1      17.956  15.544   5.126  0.00  0.00    -0.399 OA
HETATM   29  H   UNK N   1      17.493  16.109   5.764  0.00  0.00     0.209 HD
ENDBRANCH  27  28
ENDBRANCH  26  27
ENDBRANCH  24  26
ENDBRANCH   8  24
TORSDOF 6
ENDMDL
MODEL 6
REMARK VINA RESULT:      -6.5      4.061      6.188
REMARK  6 active torsions:
REMARK  status: ('A' for Active; 'I' for Inactive)
REMARK    1  A    between atoms: C_2  and  C_3 
REMARK    2  A    between atoms: N_18  and  C_19 
REMARK    3  A    between atoms: N_18  and  C_26 
REMARK    4  A    between atoms: C_23  and  C_24 
REMARK    5  A    between atoms: C_25  and  C_26 
REMARK    6  A    between atoms: C_25  and  O_27 
ROOT
HETATM    1  C   UNK N   1      35.782  16.290  11.348  0.00  0.00     0.184 A 
HETATM    2  C   UNK N   1      33.684  16.620   7.448  0.00  0.00     0.100 A 
HETATM    3  N   UNK N   1      34.900  17.038  10.635  0.00  0.00    -0.332 N 
ATOM      4  HN  UNK N   1      34.466  17.863  11.047  1.00  0.00     0.168 HD
HETATM    5  C   UNK N   1      34.609  16.665   9.369  0.00  0.00     0.164 A 
HETATM    6  O   UNK N   1      33.760  17.274   8.587  0.00  0.00    -0.291 OA
HETATM    7  C   UNK N   1      35.168  15.568   8.757  0.00  0.00     0.073 A 
HETATM    8  C   UNK N   1      36.140  14.823   9.485  0.00  0.00     0.119 A 
HETATM    9  N   UNK N   1      36.387  15.209  10.776  0.00  0.00    -0.338 N 
ATOM     10  HN  UNK N   1      37.051  14.668  11.331  1.00  0.00     0.168 HD
HETATM   11  C   UNK N   1      34.565  15.514   7.487  0.00  0.00     0.027 A 
ENDROOT
BRANCH   2  12
HETATM   12  C   UNK N   1      32.689  17.000   6.413  0.00  0.00    -0.001 A 
HETATM   13  C   UNK N   1      31.322  16.852   6.690  0.00  0.00     0.014 A 
HETATM   14  C   UNK N   1      30.364  17.153   5.716  0.00  0.00     0.001 A 
HETATM   15  C   UNK N   1      30.764  17.582   4.449  0.00  0.00     0.000 A 
HETATM   16  C   UNK N   1      32.121  17.711   4.155  0.00  0.00     0.001 A 
HETATM   17  C   UNK N   1      33.076  17.417   5.131  0.00  0.00     0.014 A 
ENDBRANCH   2  12
BRANCH  11  18
HETATM   18  C   UNK N   1      34.725  14.507   6.413  0.00  0.00    -0.022 A 
HETATM   19  C   UNK N   1      35.807  14.592   5.522  0.00  0.00     0.012 A 
HETATM   20  C   UNK N   1      35.949  13.670   4.484  0.00  0.00     0.001 A 
HETATM   21  C   UNK N   1      35.001  12.658   4.320  0.00  0.00     0.000 A 
HETATM   22  C   UNK N   1      33.916  12.567   5.196  0.00  0.00     0.001 A 
HETATM   23  C   UNK N   1      33.779  13.487   6.242  0.00  0.00     0.012 A 
ENDBRANCH  11  18
BRANCH   8  24
HETATM   24  N   UNK N   1      36.912  13.746   8.943  0.00  0.00    -0.369 N 
HETATM   25  C   UNK N   1      36.299  12.435   8.909  0.00  0.00     0.151 C 
BRANCH  24  26
HETATM   26  C   UNK N   1      38.359  13.808   8.993  0.00  0.00     0.150 C 
BRANCH  26  27
HETATM   27  C   UNK N   1      38.946  12.775   9.950  0.00  0.00     0.183 C 
BRANCH  27  28
HETATM   28  O   UNK N   1      38.631  13.122  11.262  0.00  0.00    -0.399 OA
HETATM   29  H   UNK N   1      38.061  13.804  11.651  0.00  0.00     0.209 HD
ENDBRANCH  27  28
ENDBRANCH  26  27
ENDBRANCH  24  26
ENDBRANCH   8  24
TORSDOF 6
ENDMDL
MODEL 7
REMARK VINA RESULT:      -6.5     11.325     14.379
REMARK  6 active torsions:
REMARK  status: ('A' for Active; 'I' for Inactive)
REMARK    1  A    between atoms: C_2  and  C_3 
REMARK    2  A    between atoms: N_18  and  C_19 
REMARK    3  A    between atoms: N_18  and  C_26 
REMARK    4  A    between atoms: C_23  and  C_24 
REMARK    5  A    between atoms: C_25  and  C_26 
REMARK    6  A    between atoms: C_25  and  O_27 
ROOT
HETATM    1  C   UNK N   1      30.849  29.290  -3.124  0.00  0.00     0.184 A 
HETATM    2  C   UNK N   1      30.150  24.952  -3.760  0.00  0.00     0.100 A 
HETATM    3  N   UNK N   1      31.329  28.049  -2.852  0.00  0.00    -0.332 N 
ATOM      4  HN  UNK N   1      32.186  27.930  -2.313  1.00  0.00     0.168 HD
HETATM    5  C   UNK N   1      30.648  26.976  -3.310  0.00  0.00     0.164 A 
HETATM    6  O   UNK N   1      31.012  25.733  -3.147  0.00  0.00    -0.291 OA
HETATM    7  C   UNK N   1      29.482  27.073  -4.034  0.00  0.00     0.073 A 
HETATM    8  C   UNK N   1      28.948  28.374  -4.262  0.00  0.00     0.119 A 
HETATM    9  N   UNK N   1      29.680  29.440  -3.812  0.00  0.00    -0.338 N 
ATOM     10  HN  UNK N   1      29.338  30.384  -3.997  1.00  0.00     0.168 HD
HETATM   11  C   UNK N   1      29.139  25.746  -4.349  0.00  0.00     0.027 A 
ENDROOT
BRANCH   2  12
HETATM   12  C   UNK N   1      30.385  23.488  -3.866  0.00  0.00    -0.001 A 
HETATM   13  C   UNK N   1      31.057  22.826  -2.827  0.00  0.00     0.014 A 
HETATM   14  C   UNK N   1      31.338  21.460  -2.922  0.00  0.00     0.001 A 
HETATM   15  C   UNK N   1      30.971  20.747  -4.066  0.00  0.00     0.000 A 
HETATM   16  C   UNK N   1      30.323  21.400  -5.114  0.00  0.00     0.001 A 
HETATM   17  C   UNK N   1      30.036  22.763  -5.014  0.00  0.00     0.014 A 
ENDBRANCH   2  12
BRANCH  11  18
HETATM   18  C   UNK N   1      28.017  25.236  -5.171  0.00  0.00    -0.022 A 
HETATM   19  C   UNK N   1      26.917  24.617  -4.556  0.00  0.00     0.012 A 
HETATM   20  C   UNK N   1      25.871  24.101  -5.321  0.00  0.00     0.001 A 
HETATM   21  C   UNK N   1      25.920  24.187  -6.714  0.00  0.00     0.000 A 
HETATM   22  C   UNK N   1      27.014  24.794  -7.339  0.00  0.00     0.001 A 
HETATM   23  C   UNK N   1      28.059  25.320  -6.570  0.00  0.00     0.012 A 
ENDBRANCH  11  18
BRANCH   8  24
HETATM   24  N   UNK N   1      27.680  28.636  -4.873  0.00  0.00    -0.369 N 
HETATM   25  C   UNK N   1      27.672  28.983  -6.279  0.00  0.00     0.151 C 
BRANCH  24  26
HETATM   26  C   UNK N   1      26.580  29.115  -4.060  0.00  0.00     0.150 C 
BRANCH  26  27
HETATM   27  C   UNK N   1      25.582  28.009  -3.734  0.00  0.00     0.183 C 
BRANCH  27  28
HETATM   28  O   UNK N   1      25.961  27.369  -2.555  0.00  0.00    -0.399 OA
HETATM   29  H   UNK N   1      25.755  26.501  -2.174  0.00  0.00     0.209 HD
ENDBRANCH  27  28
ENDBRANCH  26  27
ENDBRANCH  24  26
ENDBRANCH   8  24
TORSDOF 6
ENDMDL
MODEL 8
REMARK VINA RESULT:      -6.4      9.183     13.058
REMARK  6 active torsions:
REMARK  status: ('A' for Active; 'I' for Inactive)
REMARK    1  A    between atoms: C_2  and  C_3 
REMARK    2  A    between atoms: N_18  and  C_19 
REMARK    3  A    between atoms: N_18  and  C_26 
REMARK    4  A    between atoms: C_23  and  C_24 
REMARK    5  A    between atoms: C_25  and  C_26 
REMARK    6  A    between atoms: C_25  and  O_27 
ROOT
HETATM    1  C   UNK N   1      37.069  15.285  15.183  0.00  0.00     0.184 A 
HETATM    2  C   UNK N   1      35.611  11.176  16.020  0.00  0.00     0.100 A 
HETATM    3  N   UNK N   1      36.798  14.396  16.174  0.00  0.00    -0.332 N 
ATOM      4  HN  UNK N   1      36.966  14.639  17.149  1.00  0.00     0.168 HD
HETATM    5  C   UNK N   1      36.302  13.185  15.840  0.00  0.00     0.164 A 
HETATM    6  O   UNK N   1      36.027  12.231  16.687  0.00  0.00    -0.291 OA
HETATM    7  C   UNK N   1      36.047  12.803  14.543  0.00  0.00     0.073 A 
HETATM    8  C   UNK N   1      36.273  13.760  13.512  0.00  0.00     0.119 A 
HETATM    9  N   UNK N   1      36.806  14.967  13.882  0.00  0.00    -0.338 N 
ATOM     10  HN  UNK N   1      37.013  15.655  13.158  1.00  0.00     0.168 HD
HETATM   11  C   UNK N   1      35.596  11.474  14.638  0.00  0.00     0.027 A 
ENDROOT
BRANCH   2  12
HETATM   12  C   UNK N   1      35.358   9.885  16.712  0.00  0.00    -0.001 A 
HETATM   13  C   UNK N   1      34.483   9.856  17.808  0.00  0.00     0.014 A 
HETATM   14  C   UNK N   1      34.265   8.666  18.510  0.00  0.00     0.001 A 
HETATM   15  C   UNK N   1      34.938   7.500  18.139  0.00  0.00     0.000 A 
HETATM   16  C   UNK N   1      35.828   7.524  17.065  0.00  0.00     0.001 A 
HETATM   17  C   UNK N   1      36.038   8.711  16.360  0.00  0.00     0.014 A 
ENDBRANCH   2  12
BRANCH  11  18
HETATM   18  C   UNK N   1      35.237  10.525  13.559  0.00  0.00    -0.022 A 
HETATM   19  C   UNK N   1      36.209   9.663  13.026  0.00  0.00     0.012 A 
HETATM   20  C   UNK N   1      35.891   8.789  11.986  0.00  0.00     0.001 A 
HETATM   21  C   UNK N   1      34.599   8.778  11.458  0.00  0.00     0.000 A 
HETATM   22  C   UNK N   1      33.625   9.637  11.975  0.00  0.00     0.001 A 
HETATM   23  C   UNK N   1      33.941  10.507  13.025  0.00  0.00     0.012 A 
ENDBRANCH  11  18
BRANCH   8  24
HETATM   24  N   UNK N   1      35.928  13.568  12.136  0.00  0.00    -0.369 N 
HETATM   25  C   UNK N   1      36.831  12.782  11.322  0.00  0.00     0.151 C 
BRANCH  24  26
HETATM   26  C   UNK N   1      35.104  14.552  11.462  0.00  0.00     0.150 C 
BRANCH  26  27
HETATM   27  C   UNK N   1      35.870  15.292  10.370  0.00  0.00     0.183 C 
BRANCH  27  28
HETATM   28  O   UNK N   1      36.823  16.126  10.950  0.00  0.00    -0.399 OA
HETATM   29  H   UNK N   1      36.916  17.091  11.008  0.00  0.00     0.209 HD
ENDBRANCH  27  28
ENDBRANCH  26  27
ENDBRANCH  24  26
ENDBRANCH   8  24
TORSDOF 6
ENDMDL
MODEL 9
REMARK VINA RESULT:      -6.3      2.037      6.180
REMARK  6 active torsions:
REMARK  status: ('A' for Active; 'I' for Inactive)
REMARK    1  A    between atoms: C_2  and  C_3 
REMARK    2  A    between atoms: N_18  and  C_19 
REMARK    3  A    between atoms: N_18  and  C_26 
REMARK    4  A    between atoms: C_23  and  C_24 
REMARK    5  A    between atoms: C_25  and  C_26 
REMARK    6  A    between atoms: C_25  and  O_27 
ROOT
HETATM    1  C   UNK N   1      27.846  18.398   9.044  0.00  0.00     0.184 A 
HETATM    2  C   UNK N   1      31.586  16.158   8.197  0.00  0.00     0.100 A 
HETATM    3  N   UNK N   1      28.872  17.716   9.617  0.00  0.00    -0.332 N 
ATOM      4  HN  UNK N   1      28.932  17.623  10.630  1.00  0.00     0.168 HD
HETATM    5  C   UNK N   1      29.811  17.165   8.817  0.00  0.00     0.164 A 
HETATM    6  O   UNK N   1      30.861  16.513   9.236  0.00  0.00    -0.291 OA
HETATM    7  C   UNK N   1      29.780  17.250   7.444  0.00  0.00     0.073 A 
HETATM    8  C   UNK N   1      28.669  17.910   6.844  0.00  0.00     0.119 A 
HETATM    9  N   UNK N   1      27.752  18.485   7.685  0.00  0.00    -0.338 N 
ATOM     10  HN  UNK N   1      26.968  18.997   7.280  1.00  0.00     0.168 HD
HETATM   11  C   UNK N   1      30.949  16.597   7.013  0.00  0.00     0.027 A 
ENDROOT
BRANCH   2  12
HETATM   12  C   UNK N   1      32.917  15.522   8.375  0.00  0.00    -0.001 A 
HETATM   13  C   UNK N   1      33.059  14.149   8.124  0.00  0.00     0.014 A 
HETATM   14  C   UNK N   1      34.287  13.513   8.331  0.00  0.00     0.001 A 
HETATM   15  C   UNK N   1      35.378  14.238   8.815  0.00  0.00     0.000 A 
HETATM   16  C   UNK N   1      35.242  15.599   9.091  0.00  0.00     0.001 A 
HETATM   17  C   UNK N   1      34.017  16.234   8.874  0.00  0.00     0.014 A 
ENDBRANCH   2  12
BRANCH  11  18
HETATM   18  C   UNK N   1      31.482  16.434   5.641  0.00  0.00    -0.022 A 
HETATM   19  C   UNK N   1      32.242  17.458   5.054  0.00  0.00     0.012 A 
HETATM   20  C   UNK N   1      32.720  17.331   3.749  0.00  0.00     0.001 A 
HETATM   21  C   UNK N   1      32.431  16.181   3.012  0.00  0.00     0.000 A 
HETATM   22  C   UNK N   1      31.670  15.158   3.583  0.00  0.00     0.001 A 
HETATM   23  C   UNK N   1      31.198  15.282   4.896  0.00  0.00     0.012 A 
ENDBRANCH  11  18
BRANCH   8  24
HETATM   24  N   UNK N   1      28.418  17.962   5.436  0.00  0.00    -0.369 N 
HETATM   25  C   UNK N   1      28.281  19.268   4.828  0.00  0.00     0.151 C 
BRANCH  24  26
HETATM   26  C   UNK N   1      27.755  16.848   4.787  0.00  0.00     0.150 C 
BRANCH  26  27
HETATM   27  C   UNK N   1      26.280  17.132   4.522  0.00  0.00     0.183 C 
BRANCH  27  28
HETATM   28  O   UNK N   1      25.586  17.162   5.729  0.00  0.00    -0.399 OA
HETATM   29  H   UNK N   1      24.787  16.712   6.049  0.00  0.00     0.209 HD
ENDBRANCH  27  28
ENDBRANCH  26  27
ENDBRANCH  24  26
ENDBRANCH   8  24
TORSDOF 6
ENDMDL
