MODEL 1
REMARK VINA RESULT:      -7.3      0.000      0.000
REMARK  6 active torsions:
REMARK  status: ('A' for Active; 'I' for Inactive)
REMARK    1  A    between atoms: C_2  and  C_3 
REMARK    2  A    between atoms: N_17  and  C_18 
REMARK    3  A    between atoms: N_17  and  C_26 
REMARK    4  A    between atoms: C_23  and  C_24 
REMARK    5  A    between atoms: C_25  and  C_26 
REMARK    6  A    between atoms: C_25  and  O_27 
ROOT
HETATM    1  C   UNK N   1      29.554  17.946  10.210  0.00  0.00     0.183 A 
HETATM    2  C   UNK N   1      27.875  18.720   6.152  0.00  0.00     0.056 A 
HETATM    3  N   UNK N   1      28.569  18.601   9.540  0.00  0.00    -0.338 N 
ATOM      4  HN  UNK N   1      27.880  19.158  10.046  1.00  0.00     0.168 HD
HETATM    5  C   UNK N   1      28.519  18.502   8.193  0.00  0.00     0.121 A 
HETATM    6  C   UNK N   1      29.424  17.769   7.462  0.00  0.00     0.065 A 
HETATM    7  C   UNK N   1      30.480  17.127   8.164  0.00  0.00     0.117 A 
HETATM    8  N   UNK N   1      30.492  17.228   9.525  0.00  0.00    -0.338 N 
ATOM      9  HN  UNK N   1      31.227  16.749  10.048  1.00  0.00     0.168 HD
HETATM   10  N   UNK N   1      27.593  19.090   7.420  0.00  0.00    -0.340 N 
HETATM   11  C   UNK N   1      29.016  17.891   6.127  0.00  0.00     0.019 A 
HETATM   12  H   UNK N   1      26.859  19.673   7.718  0.00  0.00     0.167 HD
ENDROOT
BRANCH   2  13
HETATM   13  C   UNK N   1      26.982  19.098   5.022  0.00  0.00    -0.009 A 
HETATM   14  C   UNK N   1      27.306  20.205   4.224  0.00  0.00     0.014 A 
HETATM   15  C   UNK N   1      26.466  20.591   3.173  0.00  0.00     0.001 A 
HETATM   16  C   UNK N   1      25.285  19.888   2.925  0.00  0.00     0.000 A 
HETATM   17  C   UNK N   1      24.940  18.801   3.730  0.00  0.00     0.001 A 
HETATM   18  C   UNK N   1      25.783  18.414   4.771  0.00  0.00     0.014 A 
ENDBRANCH   2  13
BRANCH  11  19
HETATM   19  C   UNK N   1      29.601  17.283   4.910  0.00  0.00    -0.023 A 
HETATM   20  C   UNK N   1      28.853  16.359   4.162  0.00  0.00     0.012 A 
HETATM   21  C   UNK N   1      29.402  15.744   3.036  0.00  0.00     0.001 A 
HETATM   22  C   UNK N   1      30.711  16.040   2.653  0.00  0.00     0.000 A 
HETATM   23  C   UNK N   1      31.467  16.955   3.393  0.00  0.00     0.001 A 
HETATM   24  C   UNK N   1      30.914  17.577   4.518  0.00  0.00     0.012 A 
ENDBRANCH  11  19
BRANCH   7  25
HETATM   25  N   UNK N   1      31.542  16.423   7.544  0.00  0.00    -0.373 N 
HETATM   26  H   UNK N   1      31.319  15.770   6.841  0.00  0.00     0.161 HD
BRANCH  25  27
HETATM   27  C   UNK N   1      32.927  16.606   7.882  0.00  0.00     0.147 C 
BRANCH  27  28
HETATM   28  C   UNK N   1      33.372  17.982   7.432  0.00  0.00     0.183 C 
BRANCH  28  29
HETATM   29  O   UNK N   1      34.302  17.856   6.403  0.00  0.00    -0.399 OA
HETATM   30  H   UNK N   1      35.041  17.227   6.405  0.00  0.00     0.209 HD
ENDBRANCH  28  29
ENDBRANCH  27  28
ENDBRANCH  25  27
ENDBRANCH   7  25
TORSDOF 6
ENDMDL
MODEL 2
REMARK VINA RESULT:      -7.1      2.242      3.077
REMARK  6 active torsions:
REMARK  status: ('A' for Active; 'I' for Inactive)
REMARK    1  A    between atoms: C_2  and  C_3 
REMARK    2  A    between atoms: N_17  and  C_18 
REMARK    3  A    between atoms: N_17  and  C_26 
REMARK    4  A    between atoms: C_23  and  C_24 
REMARK    5  A    between atoms: C_25  and  C_26 
REMARK    6  A    between atoms: C_25  and  O_27 
ROOT
HETATM    1  C   UNK N   1      29.172  18.218   9.923  0.00  0.00     0.183 A 
HETATM    2  C   UNK N   1      28.707  16.390   5.882  0.00  0.00     0.056 A 
HETATM    3  N   UNK N   1      28.261  17.719   9.046  0.00  0.00    -0.338 N 
ATOM      4  HN  UNK N   1      27.270  17.686   9.290  1.00  0.00     0.168 HD
HETATM    5  C   UNK N   1      28.689  17.267   7.847  0.00  0.00     0.121 A 
HETATM    6  C   UNK N   1      30.010  17.292   7.466  0.00  0.00     0.065 A 
HETATM    7  C   UNK N   1      30.950  17.860   8.366  0.00  0.00     0.117 A 
HETATM    8  N   UNK N   1      30.492  18.289   9.579  0.00  0.00    -0.338 N 
ATOM      9  HN  UNK N   1      31.157  18.673  10.250  1.00  0.00     0.168 HD
HETATM   10  N   UNK N   1      27.894  16.743   6.902  0.00  0.00    -0.340 N 
HETATM   11  C   UNK N   1      30.045  16.715   6.189  0.00  0.00     0.019 A 
HETATM   12  H   UNK N   1      26.917  16.638   6.944  0.00  0.00     0.167 HD
ENDROOT
BRANCH   2  13
HETATM   13  C   UNK N   1      28.181  15.666   4.692  0.00  0.00    -0.009 A 
HETATM   14  C   UNK N   1      28.265  14.266   4.641  0.00  0.00     0.014 A 
HETATM   15  C   UNK N   1      27.799  13.569   3.521  0.00  0.00     0.001 A 
HETATM   16  C   UNK N   1      27.265  14.264   2.434  0.00  0.00     0.000 A 
HETATM   17  C   UNK N   1      27.202  15.658   2.463  0.00  0.00     0.001 A 
HETATM   18  C   UNK N   1      27.659  16.350   3.585  0.00  0.00     0.014 A 
ENDBRANCH   2  13
BRANCH  11  19
HETATM   19  C   UNK N   1      31.208  16.452   5.311  0.00  0.00    -0.023 A 
HETATM   20  C   UNK N   1      31.605  17.416   4.369  0.00  0.00     0.012 A 
HETATM   21  C   UNK N   1      32.673  17.168   3.506  0.00  0.00     0.001 A 
HETATM   22  C   UNK N   1      33.348  15.949   3.568  0.00  0.00     0.000 A 
HETATM   23  C   UNK N   1      32.958  14.980   4.498  0.00  0.00     0.001 A 
HETATM   24  C   UNK N   1      31.892  15.230   5.369  0.00  0.00     0.012 A 
ENDBRANCH  11  19
BRANCH   7  25
HETATM   25  N   UNK N   1      32.325  18.048   8.077  0.00  0.00    -0.373 N 
HETATM   26  H   UNK N   1      32.582  18.813   7.512  0.00  0.00     0.161 HD
BRANCH  25  27
HETATM   27  C   UNK N   1      33.368  17.185   8.560  0.00  0.00     0.147 C 
BRANCH  27  28
HETATM   28  C   UNK N   1      34.382  16.963   7.457  0.00  0.00     0.183 C 
BRANCH  28  29
HETATM   29  O   UNK N   1      34.311  18.011   6.542  0.00  0.00    -0.399 OA
HETATM   30  H   UNK N   1      33.794  17.989   5.721  0.00  0.00     0.209 HD
ENDBRANCH  28  29
ENDBRANCH  27  28
ENDBRANCH  25  27
ENDBRANCH   7  25
TORSDOF 6
ENDMDL
MODEL 3
REMARK VINA RESULT:      -6.9      1.908      4.221
REMARK  6 active torsions:
REMARK  status: ('A' for Active; 'I' for Inactive)
REMARK    1  A    between atoms: C_2  and  C_3 
REMARK    2  A    between atoms: N_17  and  C_18 
REMARK    3  A    between atoms: N_17  and  C_26 
REMARK    4  A    between atoms: C_23  and  C_24 
REMARK    5  A    between atoms: C_25  and  C_26 
REMARK    6  A    between atoms: C_25  and  O_27 
ROOT
HETATM    1  C   UNK N   1      33.055  15.643   3.684  0.00  0.00     0.183 A 
HETATM    2  C   UNK N   1      29.190  17.703   4.528  0.00  0.00     0.056 A 
HETATM    3  N   UNK N   1      31.975  16.227   3.098  0.00  0.00    -0.338 N 
ATOM      4  HN  UNK N   1      31.906  16.289   2.082  1.00  0.00     0.168 HD
HETATM    5  C   UNK N   1      30.995  16.723   3.886  0.00  0.00     0.121 A 
HETATM    6  C   UNK N   1      31.036  16.663   5.259  0.00  0.00     0.065 A 
HETATM    7  C   UNK N   1      32.142  16.008   5.862  0.00  0.00     0.117 A 
HETATM    8  N   UNK N   1      33.126  15.535   5.043  0.00  0.00    -0.338 N 
ATOM      9  HN  UNK N   1      33.943  15.087   5.461  1.00  0.00     0.168 HD
HETATM   10  N   UNK N   1      29.889  17.331   3.432  0.00  0.00    -0.340 N 
HETATM   11  C   UNK N   1      29.869  17.305   5.698  0.00  0.00     0.019 A 
HETATM   12  H   UNK N   1      29.637  17.475   2.492  0.00  0.00     0.167 HD
ENDROOT
BRANCH   2  13
HETATM   13  C   UNK N   1      27.946  18.511   4.410  0.00  0.00    -0.009 A 
HETATM   14  C   UNK N   1      26.779  17.917   3.906  0.00  0.00     0.014 A 
HETATM   15  C   UNK N   1      25.606  18.666   3.765  0.00  0.00     0.001 A 
HETATM   16  C   UNK N   1      25.593  20.021   4.105  0.00  0.00     0.000 A 
HETATM   17  C   UNK N   1      26.756  20.629   4.582  0.00  0.00     0.001 A 
HETATM   18  C   UNK N   1      27.922  19.877   4.730  0.00  0.00     0.014 A 
ENDBRANCH   2  13
BRANCH  11  19
HETATM   19  C   UNK N   1      29.408  17.565   7.081  0.00  0.00    -0.023 A 
HETATM   20  C   UNK N   1      30.173  18.379   7.932  0.00  0.00     0.012 A 
HETATM   21  C   UNK N   1      29.775  18.601   9.251  0.00  0.00     0.001 A 
HETATM   22  C   UNK N   1      28.611  18.002   9.735  0.00  0.00     0.000 A 
HETATM   23  C   UNK N   1      27.844  17.186   8.898  0.00  0.00     0.001 A 
HETATM   24  C   UNK N   1      28.239  16.968   7.573  0.00  0.00     0.012 A 
ENDBRANCH  11  19
BRANCH   7  25
HETATM   25  N   UNK N   1      32.275  15.778   7.255  0.00  0.00    -0.373 N 
HETATM   26  H   UNK N   1      31.592  15.227   7.703  0.00  0.00     0.161 HD
BRANCH  25  27
HETATM   27  C   UNK N   1      33.349  16.304   8.052  0.00  0.00     0.147 C 
BRANCH  27  28
HETATM   28  C   UNK N   1      33.581  17.753   7.680  0.00  0.00     0.183 C 
BRANCH  28  29
HETATM   29  O   UNK N   1      34.634  17.837   6.772  0.00  0.00    -0.399 OA
HETATM   30  H   UNK N   1      34.610  17.484   5.869  0.00  0.00     0.209 HD
ENDBRANCH  28  29
ENDBRANCH  27  28
ENDBRANCH  25  27
ENDBRANCH   7  25
TORSDOF 6
ENDMDL
MODEL 4
REMARK VINA RESULT:      -6.8      9.726     14.098
REMARK  6 active torsions:
REMARK  status: ('A' for Active; 'I' for Inactive)
REMARK    1  A    between atoms: C_2  and  C_3 
REMARK    2  A    between atoms: N_17  and  C_18 
REMARK    3  A    between atoms: N_17  and  C_26 
REMARK    4  A    between atoms: C_23  and  C_24 
REMARK    5  A    between atoms: C_25  and  C_26 
REMARK    6  A    between atoms: C_25  and  O_27 
ROOT
HETATM    1  C   UNK N   1      34.163  10.694  11.474  0.00  0.00     0.183 A 
HETATM    2  C   UNK N   1      35.263  10.480  15.790  0.00  0.00     0.056 A 
HETATM    3  N   UNK N   1      34.284   9.848  12.532  0.00  0.00    -0.338 N 
ATOM      4  HN  UNK N   1      34.059   8.858  12.432  1.00  0.00     0.168 HD
HETATM    5  C   UNK N   1      34.708  10.342  13.716  0.00  0.00     0.121 A 
HETATM    6  C   UNK N   1      35.028  11.666  13.904  0.00  0.00     0.065 A 
HETATM    7  C   UNK N   1      34.948  12.534  12.783  0.00  0.00     0.117 A 
HETATM    8  N   UNK N   1      34.496  12.012  11.605  0.00  0.00    -0.338 N 
ATOM      9  HN  UNK N   1      34.403  12.627  10.795  1.00  0.00     0.168 HD
HETATM   10  N   UNK N   1      34.857   9.616  14.834  0.00  0.00    -0.340 N 
HETATM   11  C   UNK N   1      35.385  11.779  15.255  0.00  0.00     0.019 A 
HETATM   12  H   UNK N   1      34.704   8.649  14.936  0.00  0.00     0.167 HD
ENDROOT
BRANCH   2  13
HETATM   13  C   UNK N   1      35.425  10.044  17.205  0.00  0.00    -0.009 A 
HETATM   14  C   UNK N   1      34.291   9.703  17.957  0.00  0.00     0.014 A 
HETATM   15  C   UNK N   1      34.419   9.314  19.296  0.00  0.00     0.001 A 
HETATM   16  C   UNK N   1      35.678   9.284  19.900  0.00  0.00     0.000 A 
HETATM   17  C   UNK N   1      36.809   9.648  19.168  0.00  0.00     0.001 A 
HETATM   18  C   UNK N   1      36.679  10.026  17.831  0.00  0.00     0.014 A 
ENDBRANCH   2  13
BRANCH  11  19
HETATM   19  C   UNK N   1      35.788  12.981  16.019  0.00  0.00    -0.023 A 
HETATM   20  C   UNK N   1      35.100  13.324  17.195  0.00  0.00     0.012 A 
HETATM   21  C   UNK N   1      35.439  14.476  17.906  0.00  0.00     0.001 A 
HETATM   22  C   UNK N   1      36.462  15.304  17.442  0.00  0.00     0.000 A 
HETATM   23  C   UNK N   1      37.150  14.975  16.269  0.00  0.00     0.001 A 
HETATM   24  C   UNK N   1      36.816  13.816  15.559  0.00  0.00     0.012 A 
ENDBRANCH  11  19
BRANCH   7  25
HETATM   25  N   UNK N   1      35.340  13.896  12.794  0.00  0.00    -0.373 N 
HETATM   26  H   UNK N   1      35.797  14.243  13.595  0.00  0.00     0.161 HD
BRANCH  25  27
HETATM   27  C   UNK N   1      35.108  14.802  11.702  0.00  0.00     0.147 C 
BRANCH  27  28
HETATM   28  C   UNK N   1      36.340  14.846  10.822  0.00  0.00     0.183 C 
BRANCH  28  29
HETATM   29  O   UNK N   1      36.946  16.096  10.932  0.00  0.00    -0.399 OA
HETATM   30  H   UNK N   1      37.780  16.341  10.501  0.00  0.00     0.209 HD
ENDBRANCH  28  29
ENDBRANCH  27  28
ENDBRANCH  25  27
ENDBRANCH   7  25
TORSDOF 6
ENDMDL
MODEL 5
REMARK VINA RESULT:      -6.7      2.279      6.193
REMARK  6 active torsions:
REMARK  status: ('A' for Active; 'I' for Inactive)
REMARK    1  A    between atoms: C_2  and  C_3 
REMARK    2  A    between atoms: N_17  and  C_18 
REMARK    3  A    between atoms: N_17  and  C_26 
REMARK    4  A    between atoms: C_23  and  C_24 
REMARK    5  A    between atoms: C_25  and  C_26 
REMARK    6  A    between atoms: C_25  and  O_27 
ROOT
HETATM    1  C   UNK N   1      27.821  18.679   8.687  0.00  0.00     0.183 A 
HETATM    2  C   UNK N   1      31.606  16.347   8.348  0.00  0.00     0.056 A 
HETATM    3  N   UNK N   1      28.785  18.048   9.408  0.00  0.00    -0.338 N 
ATOM      4  HN  UNK N   1      28.749  18.039  10.428  1.00  0.00     0.168 HD
HETATM    5  C   UNK N   1      29.793  17.432   8.750  0.00  0.00     0.121 A 
HETATM    6  C   UNK N   1      29.889  17.410   7.379  0.00  0.00     0.065 A 
HETATM    7  C   UNK N   1      28.852  18.029   6.631  0.00  0.00     0.117 A 
HETATM    8  N   UNK N   1      27.858  18.661   7.322  0.00  0.00    -0.338 N 
ATOM      9  HN  UNK N   1      27.120  19.136   6.801  1.00  0.00     0.168 HD
HETATM   10  N   UNK N   1      30.808  16.787   9.345  0.00  0.00    -0.340 N 
HETATM   11  C   UNK N   1      31.071  16.713   7.095  0.00  0.00     0.019 A 
HETATM   12  H   UNK N   1      30.941  16.659  10.311  0.00  0.00     0.167 HD
ENDROOT
BRANCH   2  13
HETATM   13  C   UNK N   1      32.903  15.675   8.638  0.00  0.00    -0.009 A 
HETATM   14  C   UNK N   1      33.001  14.281   8.524  0.00  0.00     0.014 A 
HETATM   15  C   UNK N   1      34.205  13.629   8.817  0.00  0.00     0.001 A 
HETATM   16  C   UNK N   1      35.313  14.361   9.247  0.00  0.00     0.000 A 
HETATM   17  C   UNK N   1      35.218  15.747   9.390  0.00  0.00     0.001 A 
HETATM   18  C   UNK N   1      34.020  16.395   9.089  0.00  0.00     0.014 A 
ENDBRANCH   2  13
BRANCH  11  19
HETATM   19  C   UNK N   1      31.692  16.416   5.784  0.00  0.00    -0.023 A 
HETATM   20  C   UNK N   1      32.415  17.415   5.111  0.00  0.00     0.012 A 
HETATM   21  C   UNK N   1      32.971  17.166   3.856  0.00  0.00     0.001 A 
HETATM   22  C   UNK N   1      32.800  15.918   3.255  0.00  0.00     0.000 A 
HETATM   23  C   UNK N   1      32.077  14.917   3.914  0.00  0.00     0.001 A 
HETATM   24  C   UNK N   1      31.525  15.164   5.176  0.00  0.00     0.012 A 
ENDBRANCH  11  19
BRANCH   7  25
HETATM   25  N   UNK N   1      28.757  18.002   5.217  0.00  0.00    -0.373 N 
HETATM   26  H   UNK N   1      29.404  18.532   4.697  0.00  0.00     0.161 HD
BRANCH  25  27
HETATM   27  C   UNK N   1      27.771  17.244   4.497  0.00  0.00     0.147 C 
BRANCH  27  28
HETATM   28  C   UNK N   1      28.456  16.437   3.414  0.00  0.00     0.183 C 
BRANCH  28  29
HETATM   29  O   UNK N   1      29.521  17.167   2.892  0.00  0.00    -0.399 OA
HETATM   30  H   UNK N   1      30.431  16.836   2.823  0.00  0.00     0.209 HD
ENDBRANCH  28  29
ENDBRANCH  27  28
ENDBRANCH  25  27
ENDBRANCH   7  25
TORSDOF 6
ENDMDL
MODEL 6
REMARK VINA RESULT:      -6.6      5.666      8.989
REMARK  6 active torsions:
REMARK  status: ('A' for Active; 'I' for Inactive)
REMARK    1  A    between atoms: C_2  and  C_3 
REMARK    2  A    between atoms: N_17  and  C_18 
REMARK    3  A    between atoms: N_17  and  C_26 
REMARK    4  A    between atoms: C_23  and  C_24 
REMARK    5  A    between atoms: C_25  and  C_26 
REMARK    6  A    between atoms: C_25  and  O_27 
ROOT
HETATM    1  C   UNK N   1      20.344  20.889   1.661  0.00  0.00     0.183 A 
HETATM    2  C   UNK N   1      24.042  19.548   3.763  0.00  0.00     0.056 A 
HETATM    3  N   UNK N   1      21.604  21.266   2.007  0.00  0.00    -0.338 N 
ATOM      4  HN  UNK N   1      21.965  22.181   1.736  1.00  0.00     0.168 HD
HETATM    5  C   UNK N   1      22.368  20.409   2.719  0.00  0.00     0.121 A 
HETATM    6  C   UNK N   1      21.931  19.167   3.115  0.00  0.00     0.065 A 
HETATM    7  C   UNK N   1      20.598  18.799   2.792  0.00  0.00     0.117 A 
HETATM    8  N   UNK N   1      19.856  19.676   2.055  0.00  0.00    -0.338 N 
ATOM      9  HN  UNK N   1      18.906  19.416   1.788  1.00  0.00     0.168 HD
HETATM   10  N   UNK N   1      23.627  20.658   3.112  0.00  0.00    -0.340 N 
HETATM   11  C   UNK N   1      23.012  18.585   3.791  0.00  0.00     0.019 A 
HETATM   12  H   UNK N   1      24.142  21.482   2.959  0.00  0.00     0.167 HD
ENDROOT
BRANCH   2  13
HETATM   13  C   UNK N   1      25.444  19.418   4.247  0.00  0.00    -0.009 A 
HETATM   14  C   UNK N   1      25.901  20.256   5.276  0.00  0.00     0.014 A 
HETATM   15  C   UNK N   1      27.222  20.166   5.728  0.00  0.00     0.001 A 
HETATM   16  C   UNK N   1      28.104  19.255   5.143  0.00  0.00     0.000 A 
HETATM   17  C   UNK N   1      27.667  18.436   4.101  0.00  0.00     0.001 A 
HETATM   18  C   UNK N   1      26.347  18.521   3.657  0.00  0.00     0.014 A 
ENDBRANCH   2  13
BRANCH  11  19
HETATM   19  C   UNK N   1      23.121  17.240   4.402  0.00  0.00    -0.023 A 
HETATM   20  C   UNK N   1      22.741  17.048   5.740  0.00  0.00     0.012 A 
HETATM   21  C   UNK N   1      22.875  15.798   6.344  0.00  0.00     0.001 A 
HETATM   22  C   UNK N   1      23.401  14.728   5.619  0.00  0.00     0.000 A 
HETATM   23  C   UNK N   1      23.788  14.909   4.287  0.00  0.00     0.001 A 
HETATM   24  C   UNK N   1      23.648  16.162   3.678  0.00  0.00     0.012 A 
ENDBRANCH  11  19
BRANCH   7  25
HETATM   25  N   UNK N   1      19.973  17.599   3.216  0.00  0.00    -0.373 N 
HETATM   26  H   UNK N   1      19.396  17.631   4.014  0.00  0.00     0.161 HD
BRANCH  25  27
HETATM   27  C   UNK N   1      20.132  16.336   2.548  0.00  0.00     0.147 C 
BRANCH  27  28
HETATM   28  C   UNK N   1      20.191  16.568   1.053  0.00  0.00     0.183 C 
BRANCH  28  29
HETATM   29  O   UNK N   1      18.942  16.984   0.598  0.00  0.00    -0.399 OA
HETATM   30  H   UNK N   1      18.146  16.430   0.596  0.00  0.00     0.209 HD
ENDBRANCH  28  29
ENDBRANCH  27  28
ENDBRANCH  25  27
ENDBRANCH   7  25
TORSDOF 6
ENDMDL
MODEL 7
REMARK VINA RESULT:      -6.6      4.327      6.624
REMARK  6 active torsions:
REMARK  status: ('A' for Active; 'I' for Inactive)
REMARK    1  A    between atoms: C_2  and  C_3 
REMARK    2  A    between atoms: N_17  and  C_18 
REMARK    3  A    between atoms: N_17  and  C_26 
REMARK    4  A    between atoms: C_23  and  C_24 
REMARK    5  A    between atoms: C_25  and  C_26 
REMARK    6  A    between atoms: C_25  and  O_27 
ROOT
HETATM    1  C   UNK N   1      35.832  16.088  11.597  0.00  0.00     0.183 A 
HETATM    2  C   UNK N   1      33.833  16.520   7.634  0.00  0.00     0.056 A 
HETATM    3  N   UNK N   1      34.969  16.861  10.885  0.00  0.00    -0.338 N 
ATOM      4  HN  UNK N   1      34.538  17.683  11.309  1.00  0.00     0.168 HD
HETATM    5  C   UNK N   1      34.693  16.522   9.606  0.00  0.00     0.121 A 
HETATM    6  C   UNK N   1      35.249  15.429   8.985  0.00  0.00     0.065 A 
HETATM    7  C   UNK N   1      36.187  14.654   9.718  0.00  0.00     0.117 A 
HETATM    8  N   UNK N   1      36.430  15.008  11.014  0.00  0.00    -0.338 N 
ATOM      9  HN  UNK N   1      37.079  14.445  11.566  1.00  0.00     0.168 HD
HETATM   10  N   UNK N   1      33.854  17.195   8.805  0.00  0.00    -0.340 N 
HETATM   11  C   UNK N   1      34.693  15.404   7.698  0.00  0.00     0.019 A 
HETATM   12  H   UNK N   1      33.355  18.014   9.025  0.00  0.00     0.167 HD
ENDROOT
BRANCH   2  13
HETATM   13  C   UNK N   1      32.915  16.917   6.532  0.00  0.00    -0.009 A 
HETATM   14  C   UNK N   1      31.530  16.769   6.698  0.00  0.00     0.014 A 
HETATM   15  C   UNK N   1      30.651  17.113   5.664  0.00  0.00     0.001 A 
HETATM   16  C   UNK N   1      31.149  17.588   4.449  0.00  0.00     0.000 A 
HETATM   17  C   UNK N   1      32.526  17.714   4.264  0.00  0.00     0.001 A 
HETATM   18  C   UNK N   1      33.400  17.379   5.299  0.00  0.00     0.014 A 
ENDBRANCH   2  13
BRANCH  11  19
HETATM   19  C   UNK N   1      34.904  14.427   6.605  0.00  0.00    -0.023 A 
HETATM   20  C   UNK N   1      34.093  13.284   6.523  0.00  0.00     0.012 A 
HETATM   21  C   UNK N   1      34.304  12.332   5.526  0.00  0.00     0.001 A 
HETATM   22  C   UNK N   1      35.337  12.509   4.605  0.00  0.00     0.000 A 
HETATM   23  C   UNK N   1      36.155  13.641   4.680  0.00  0.00     0.001 A 
HETATM   24  C   UNK N   1      35.940  14.600   5.677  0.00  0.00     0.012 A 
ENDBRANCH  11  19
BRANCH   7  25
HETATM   25  N   UNK N   1      36.916  13.562   9.184  0.00  0.00    -0.373 N 
HETATM   26  H   UNK N   1      36.497  12.671   9.198  0.00  0.00     0.161 HD
BRANCH  25  27
HETATM   27  C   UNK N   1      38.235  13.680   8.624  0.00  0.00     0.147 C 
BRANCH  27  28
HETATM   28  C   UNK N   1      39.217  12.931   9.499  0.00  0.00     0.183 C 
BRANCH  28  29
HETATM   29  O   UNK N   1      39.070  13.344  10.822  0.00  0.00    -0.399 OA
HETATM   30  H   UNK N   1      39.759  13.793  11.336  0.00  0.00     0.209 HD
ENDBRANCH  28  29
ENDBRANCH  27  28
ENDBRANCH  25  27
ENDBRANCH   7  25
TORSDOF 6
ENDMDL
MODEL 8
REMARK VINA RESULT:      -6.5      3.702      6.973
REMARK  6 active torsions:
REMARK  status: ('A' for Active; 'I' for Inactive)
REMARK    1  A    between atoms: C_2  and  C_3 
REMARK    2  A    between atoms: N_17  and  C_18 
REMARK    3  A    between atoms: N_17  and  C_26 
REMARK    4  A    between atoms: C_23  and  C_24 
REMARK    5  A    between atoms: C_25  and  C_26 
REMARK    6  A    between atoms: C_25  and  O_27 
ROOT
HETATM    1  C   UNK N   1      26.018  14.579   1.890  0.00  0.00     0.183 A 
HETATM    2  C   UNK N   1      29.400  16.601   3.978  0.00  0.00     0.056 A 
HETATM    3  N   UNK N   1      27.362  14.536   2.092  0.00  0.00    -0.338 N 
ATOM      4  HN  UNK N   1      27.928  13.803   1.662  1.00  0.00     0.168 HD
HETATM    5  C   UNK N   1      27.935  15.481   2.870  0.00  0.00     0.121 A 
HETATM    6  C   UNK N   1      27.221  16.491   3.469  0.00  0.00     0.065 A 
HETATM    7  C   UNK N   1      25.825  16.559   3.215  0.00  0.00     0.117 A 
HETATM    8  N   UNK N   1      25.271  15.580   2.442  0.00  0.00    -0.338 N 
ATOM      9  HN  UNK N   1      24.264  15.595   2.272  1.00  0.00     0.168 HD
HETATM   10  N   UNK N   1      29.245  15.542   3.154  0.00  0.00    -0.340 N 
HETATM   11  C   UNK N   1      28.158  17.230   4.205  0.00  0.00     0.019 A 
HETATM   12  H   UNK N   1      29.949  14.937   2.827  0.00  0.00     0.167 HD
ENDROOT
BRANCH   2  13
HETATM   13  C   UNK N   1      30.720  16.912   4.594  0.00  0.00    -0.009 A 
HETATM   14  C   UNK N   1      31.746  17.445   3.799  0.00  0.00     0.014 A 
HETATM   15  C   UNK N   1      33.001  17.720   4.353  0.00  0.00     0.001 A 
HETATM   16  C   UNK N   1      33.249  17.445   5.700  0.00  0.00     0.000 A 
HETATM   17  C   UNK N   1      32.243  16.890   6.493  0.00  0.00     0.001 A 
HETATM   18  C   UNK N   1      30.990  16.625   5.940  0.00  0.00     0.014 A 
ENDBRANCH   2  13
BRANCH  11  19
HETATM   19  C   UNK N   1      27.947  18.410   5.074  0.00  0.00    -0.023 A 
HETATM   20  C   UNK N   1      27.782  19.681   4.500  0.00  0.00     0.012 A 
HETATM   21  C   UNK N   1      27.624  20.809   5.304  0.00  0.00     0.001 A 
HETATM   22  C   UNK N   1      27.639  20.680   6.693  0.00  0.00     0.000 A 
HETATM   23  C   UNK N   1      27.807  19.420   7.277  0.00  0.00     0.001 A 
HETATM   24  C   UNK N   1      27.960  18.286   6.470  0.00  0.00     0.012 A 
ENDBRANCH  11  19
BRANCH   7  25
HETATM   25  N   UNK N   1      24.975  17.596   3.677  0.00  0.00    -0.373 N 
HETATM   26  H   UNK N   1      24.716  18.303   3.042  0.00  0.00     0.161 HD
BRANCH  25  27
HETATM   27  C   UNK N   1      24.470  17.675   5.020  0.00  0.00     0.147 C 
BRANCH  27  28
HETATM   28  C   UNK N   1      22.957  17.714   4.981  0.00  0.00     0.183 C 
BRANCH  28  29
HETATM   29  O   UNK N   1      22.472  18.183   6.200  0.00  0.00    -0.399 OA
HETATM   30  H   UNK N   1      23.009  18.287   7.001  0.00  0.00     0.209 HD
ENDBRANCH  28  29
ENDBRANCH  27  28
ENDBRANCH  25  27
ENDBRANCH   7  25
TORSDOF 6
ENDMDL
MODEL 9
REMARK VINA RESULT:      -6.4     13.420     15.511
REMARK  6 active torsions:
REMARK  status: ('A' for Active; 'I' for Inactive)
REMARK    1  A    between atoms: C_2  and  C_3 
REMARK    2  A    between atoms: N_17  and  C_18 
REMARK    3  A    between atoms: N_17  and  C_26 
REMARK    4  A    between atoms: C_23  and  C_24 
REMARK    5  A    between atoms: C_25  and  C_26 
REMARK    6  A    between atoms: C_25  and  O_27 
ROOT
HETATM    1  C   UNK N   1      46.177  25.618   1.978  0.00  0.00     0.183 A 
HETATM    2  C   UNK N   1      42.262  24.746   0.027  0.00  0.00     0.056 A 
HETATM    3  N   UNK N   1      45.229  26.131   1.148  0.00  0.00    -0.338 N 
ATOM      4  HN  UNK N   1      45.331  27.070   0.762  1.00  0.00     0.168 HD
HETATM    5  C   UNK N   1      44.151  25.375   0.844  0.00  0.00     0.121 A 
HETATM    6  C   UNK N   1      43.967  24.103   1.332  0.00  0.00     0.065 A 
HETATM    7  C   UNK N   1      44.984  23.555   2.158  0.00  0.00     0.117 A 
HETATM    8  N   UNK N   1      46.051  24.349   2.466  0.00  0.00    -0.338 N 
ATOM      9  HN  UNK N   1      46.777  23.982   3.082  1.00  0.00     0.168 HD
HETATM   10  N   UNK N   1      43.145  25.768   0.048  0.00  0.00    -0.340 N 
HETATM   11  C   UNK N   1      42.734  23.677   0.818  0.00  0.00     0.019 A 
HETATM   12  H   UNK N   1      43.067  26.628  -0.424  0.00  0.00     0.167 HD
ENDROOT
BRANCH   2  13
HETATM   13  C   UNK N   1      40.954  24.871  -0.672  0.00  0.00    -0.009 A 
HETATM   14  C   UNK N   1      40.037  25.847  -0.255  0.00  0.00     0.014 A 
HETATM   15  C   UNK N   1      38.792  25.964  -0.884  0.00  0.00     0.001 A 
HETATM   16  C   UNK N   1      38.444  25.095  -1.920  0.00  0.00     0.000 A 
HETATM   17  C   UNK N   1      39.339  24.103  -2.325  0.00  0.00     0.001 A 
HETATM   18  C   UNK N   1      40.583  23.994  -1.702  0.00  0.00     0.014 A 
ENDBRANCH   2  13
BRANCH  11  19
HETATM   19  C   UNK N   1      42.016  22.401   1.042  0.00  0.00    -0.023 A 
HETATM   20  C   UNK N   1      42.352  21.268   0.284  0.00  0.00     0.012 A 
HETATM   21  C   UNK N   1      41.659  20.069   0.452  0.00  0.00     0.001 A 
HETATM   22  C   UNK N   1      40.613  19.995   1.373  0.00  0.00     0.000 A 
HETATM   23  C   UNK N   1      40.266  21.119   2.130  0.00  0.00     0.001 A 
HETATM   24  C   UNK N   1      40.966  22.320   1.966  0.00  0.00     0.012 A 
ENDBRANCH  11  19
BRANCH   7  25
HETATM   25  N   UNK N   1      44.985  22.226   2.654  0.00  0.00    -0.373 N 
HETATM   26  H   UNK N   1      44.973  21.487   2.003  0.00  0.00     0.161 HD
BRANCH  25  27
HETATM   27  C   UNK N   1      45.003  21.896   4.052  0.00  0.00     0.147 C 
BRANCH  27  28
HETATM   28  C   UNK N   1      43.632  22.151   4.642  0.00  0.00     0.183 C 
BRANCH  28  29
HETATM   29  O   UNK N   1      43.573  23.452   5.137  0.00  0.00    -0.399 OA
HETATM   30  H   UNK N   1      44.235  23.845   5.727  0.00  0.00     0.209 HD
ENDBRANCH  28  29
ENDBRANCH  27  28
ENDBRANCH  25  27
ENDBRANCH   7  25
TORSDOF 6
ENDMDL
