REMARK  22 active torsions:
REMARK  status: ('A' for Active; 'I' for Inactive)
REMARK    1  A    between atoms: C_1  and  C_2 
REMARK       I    between atoms: C_1  and  N_14 
REMARK    2  A    between atoms: C_2  and  C_3 
REMARK    3  A    between atoms: C_3  and  C_4 
REMARK    4  A    between atoms: C_4  and  C_5 
REMARK    5  A    between atoms: C_5  and  C_6 
REMARK    6  A    between atoms: C_6  and  C_7 
REMARK    7  A    between atoms: C_7  and  C_8 
REMARK    8  A    between atoms: C_8  and  C_9 
REMARK    9  A    between atoms: C_9  and  C_10 
REMARK   10  A    between atoms: C_10  and  C_11 
REMARK   11  A    between atoms: C_16  and  N_14 
REMARK   12  A    between atoms: C_15  and  C_16 
REMARK   13  A    between atoms: C_15  and  O_23 
REMARK   14  A    between atoms: C_16  and  C_17 
REMARK   15  A    between atoms: C_17  and  C_18 
REMARK   16  A    between atoms: C_18  and  C_19 
REMARK   17  A    between atoms: P_24  and  O_22 
REMARK   18  A    between atoms: P_24  and  O_23 
REMARK   19  A    between atoms: P_24  and  O_25 
REMARK   20  A    between atoms: O_25  and  C_26 
REMARK   21  A    between atoms: C_26  and  C_27 
REMARK   22  A    between atoms: C_27  and  O_28 
ROOT
HETATM    1  C   UNK N   1       2.060   0.377   0.425  0.00  0.00     0.108 C 
ENDROOT
BRANCH   1   2
HETATM    2  N   UNK N   1       0.745   0.962   0.198  0.00  0.00    -0.354 N 
HETATM    3  C   UNK N   1      -0.200   0.639  -0.726  0.00  0.00     0.217 C 
HETATM    4  O   UNK N   1      -1.169   1.370  -0.849  0.00  0.00    -0.274 OA
HETATM    5  H   UNK N   1       0.504   1.701   0.803  0.00  0.00     0.162 HD
BRANCH   3   6
HETATM    6  C   UNK N   1      -0.109  -0.590  -1.586  0.00  0.00     0.103 C 
BRANCH   6   7
HETATM    7  C   UNK N   1      -1.428  -1.369  -1.614  0.00  0.00     0.009 C 
BRANCH   7   8
HETATM    8  C   UNK N   1      -1.794  -2.009  -0.278  0.00  0.00     0.000 C 
BRANCH   8   9
HETATM    9  C   UNK N   1      -2.290  -0.968   0.713  0.00  0.00     0.000 C 
BRANCH   9  10
HETATM   10  C   UNK N   1      -3.531  -1.461   1.430  0.00  0.00     0.000 C 
BRANCH  10  11
HETATM   11  C   UNK N   1      -4.740  -0.631   1.032  0.00  0.00     0.000 C 
BRANCH  11  12
HETATM   12  C   UNK N   1      -5.172  -0.958  -0.389  0.00  0.00     0.000 C 
BRANCH  12  13
HETATM   13  C   UNK N   1      -6.520  -0.330  -0.688  0.00  0.00     0.000 C 
BRANCH  13  14
HETATM   14  C   UNK N   1      -7.624  -1.139  -0.035  0.00  0.00    -0.000 C 
BRANCH  14  15
HETATM   15  C   UNK N   1      -8.961  -0.481  -0.296  0.00  0.00    -0.005 C 
HETATM   16  C   UNK N   1     -10.061  -1.319   0.320  0.00  0.00     0.005 C 
ENDBRANCH  14  15
ENDBRANCH  13  14
ENDBRANCH  12  13
ENDBRANCH  11  12
ENDBRANCH  10  11
ENDBRANCH   9  10
ENDBRANCH   8   9
ENDBRANCH   7   8
ENDBRANCH   6   7
ENDBRANCH   3   6
ENDBRANCH   1   2
BRANCH   1  17
HETATM   17  C   UNK N   1       2.641  -0.362  -0.804  0.00  0.00     0.205 C 
BRANCH  17  18
HETATM   18  O   UNK N   1       3.983  -0.046  -1.079  0.00  0.00    -0.295 OA
BRANCH  18  19
HETATM   19  P   UNK N   1       5.020  -1.067  -0.106  0.00  0.00     0.393 P 
HETATM   20  O   UNK N   1       4.233  -2.327   0.348  0.00  0.00    -0.631 OA
BRANCH  19  21
HETATM   21  O   UNK N   1       5.544  -0.253   1.337  0.00  0.00    -0.307 OA
HETATM   22  H   UNK N   1       6.084  -0.279   2.142  0.00  0.00     0.222 HD
ENDBRANCH  19  21
BRANCH  19  23
HETATM   23  O   UNK N   1       6.380  -1.641  -1.027  0.00  0.00    -0.295 OA
BRANCH  23  24
HETATM   24  C   UNK N   1       7.223  -0.536  -1.160  0.00  0.00     0.206 C 
BRANCH  24  25
HETATM   25  C   UNK N   1       8.416  -0.691  -0.237  0.00  0.00     0.191 C 
BRANCH  25  26
HETATM   26  O   UNK N   1       8.648   0.513   0.426  0.00  0.00    -0.399 OA
HETATM   27  H   UNK N   1       9.454   0.792   0.888  0.00  0.00     0.209 HD
ENDBRANCH  25  26
ENDBRANCH  24  25
ENDBRANCH  23  24
ENDBRANCH  19  23
ENDBRANCH  18  19
ENDBRANCH  17  18
ENDBRANCH   1  17
BRANCH   1  28
HETATM   28  C   UNK N   1       2.965   1.518   0.903  0.00  0.00     0.027 C 
BRANCH  28  29
HETATM   29  C   UNK N   1       2.996   2.662  -0.104  0.00  0.00     0.002 C 
BRANCH  29  30
HETATM   30  C   UNK N   1       3.033   3.989   0.623  0.00  0.00    -0.004 C 
HETATM   31  C   UNK N   1       4.452   4.512   0.657  0.00  0.00     0.005 C 
ENDBRANCH  29  30
ENDBRANCH  28  29
ENDBRANCH   1  28
TORSDOF 22
