MODEL 1
REMARK VINA RESULT:      -5.3      0.000      0.000
REMARK  22 active torsions:
REMARK  status: ('A' for Active; 'I' for Inactive)
REMARK    1  A    between atoms: C_1  and  C_2 
REMARK       I    between atoms: C_1  and  N_14 
REMARK    2  A    between atoms: C_2  and  C_3 
REMARK    3  A    between atoms: C_3  and  C_4 
REMARK    4  A    between atoms: C_4  and  C_5 
REMARK    5  A    between atoms: C_5  and  C_6 
REMARK    6  A    between atoms: C_6  and  C_7 
REMARK    7  A    between atoms: C_7  and  C_8 
REMARK    8  A    between atoms: C_8  and  C_9 
REMARK    9  A    between atoms: C_9  and  C_10 
REMARK   10  A    between atoms: C_10  and  C_11 
REMARK   11  A    between atoms: C_16  and  N_14 
REMARK   12  A    between atoms: C_15  and  C_16 
REMARK   13  A    between atoms: C_15  and  O_23 
REMARK   14  A    between atoms: C_16  and  C_17 
REMARK   15  A    between atoms: C_17  and  C_18 
REMARK   16  A    between atoms: C_18  and  C_19 
REMARK   17  A    between atoms: P_24  and  O_22 
REMARK   18  A    between atoms: P_24  and  O_23 
REMARK   19  A    between atoms: P_24  and  O_25 
REMARK   20  A    between atoms: O_25  and  C_26 
REMARK   21  A    between atoms: C_26  and  C_27 
REMARK   22  A    between atoms: C_27  and  O_28 
ROOT
HETATM    1  C   UNK N   1      31.802  16.297   7.906  0.00  0.00     0.108 C 
ENDROOT
BRANCH   1   2
HETATM    2  N   UNK N   1      32.804  17.355   7.906  0.00  0.00    -0.354 N 
HETATM    3  C   UNK N   1      33.790  17.616   7.005  0.00  0.00     0.217 C 
HETATM    4  O   UNK N   1      34.627  18.458   7.284  0.00  0.00    -0.274 OA
HETATM    5  H   UNK N   1      32.761  17.974   8.671  0.00  0.00     0.162 HD
BRANCH   3   6
HETATM    6  C   UNK N   1      33.878  16.924   5.674  0.00  0.00     0.103 C 
BRANCH   6   7
HETATM    7  C   UNK N   1      33.017  17.613   4.611  0.00  0.00     0.009 C 
BRANCH   7   8
HETATM    8  C   UNK N   1      32.442  16.658   3.569  0.00  0.00     0.000 C 
BRANCH   8   9
HETATM    9  C   UNK N   1      30.923  16.707   3.557  0.00  0.00     0.000 C 
BRANCH   9  10
HETATM   10  C   UNK N   1      30.404  17.504   4.737  0.00  0.00     0.000 C 
BRANCH  10  11
HETATM   11  C   UNK N   1      29.168  16.842   5.324  0.00  0.00     0.000 C 
BRANCH  11  12
HETATM   12  C   UNK N   1      28.040  17.850   5.476  0.00  0.00     0.000 C 
BRANCH  12  13
HETATM   13  C   UNK N   1      27.855  18.632   4.189  0.00  0.00     0.000 C 
BRANCH  13  14
HETATM   14  C   UNK N   1      27.239  19.985   4.491  0.00  0.00    -0.000 C 
BRANCH  14  15
HETATM   15  C   UNK N   1      27.130  20.174   5.988  0.00  0.00    -0.005 C 
HETATM   16  C   UNK N   1      27.194  21.651   6.313  0.00  0.00     0.005 C 
ENDBRANCH  14  15
ENDBRANCH  13  14
ENDBRANCH  12  13
ENDBRANCH  11  12
ENDBRANCH  10  11
ENDBRANCH   9  10
ENDBRANCH   8   9
ENDBRANCH   7   8
ENDBRANCH   6   7
ENDBRANCH   3   6
ENDBRANCH   1   2
BRANCH   1  17
HETATM   17  C   UNK N   1      32.339  14.922   8.369  0.00  0.00     0.205 C 
BRANCH  17  18
HETATM   18  O   UNK N   1      32.620  14.852   9.745  0.00  0.00    -0.295 OA
BRANCH  18  19
HETATM   19  P   UNK N   1      34.348  15.002   9.983  0.00  0.00     0.393 P 
HETATM   20  O   UNK N   1      34.715  16.495  10.204  0.00  0.00    -0.631 OA
BRANCH  19  21
HETATM   21  O   UNK N   1      35.233  14.467   8.587  0.00  0.00    -0.307 OA
HETATM   22  H   UNK N   1      35.875  14.681   7.892  0.00  0.00     0.222 HD
ENDBRANCH  19  21
BRANCH  19  23
HETATM   23  O   UNK N   1      34.862  14.152  11.411  0.00  0.00    -0.295 OA
BRANCH  23  24
HETATM   24  C   UNK N   1      35.636  15.070  12.124  0.00  0.00     0.206 C 
BRANCH  24  25
HETATM   25  C   UNK N   1      36.298  14.375  13.298  0.00  0.00     0.191 C 
BRANCH  25  26
HETATM   26  O   UNK N   1      37.239  13.463  12.826  0.00  0.00    -0.399 OA
HETATM   27  H   UNK N   1      38.201  13.479  12.955  0.00  0.00     0.209 HD
ENDBRANCH  25  26
ENDBRANCH  24  25
ENDBRANCH  23  24
ENDBRANCH  19  23
ENDBRANCH  18  19
ENDBRANCH  17  18
ENDBRANCH   1  17
BRANCH   1  28
HETATM   28  C   UNK N   1      30.645  16.796   8.777  0.00  0.00     0.027 C 
BRANCH  28  29
HETATM   29  C   UNK N   1      30.643  18.317   8.881  0.00  0.00     0.002 C 
BRANCH  29  30
HETATM   30  C   UNK N   1      29.225  18.840   8.792  0.00  0.00    -0.004 C 
HETATM   31  C   UNK N   1      28.259  17.772   9.255  0.00  0.00     0.005 C 
ENDBRANCH  29  30
ENDBRANCH  28  29
ENDBRANCH   1  28
TORSDOF 22
ENDMDL
MODEL 2
REMARK VINA RESULT:      -5.2      7.173     10.737
REMARK  22 active torsions:
REMARK  status: ('A' for Active; 'I' for Inactive)
REMARK    1  A    between atoms: C_1  and  C_2 
REMARK       I    between atoms: C_1  and  N_14 
REMARK    2  A    between atoms: C_2  and  C_3 
REMARK    3  A    between atoms: C_3  and  C_4 
REMARK    4  A    between atoms: C_4  and  C_5 
REMARK    5  A    between atoms: C_5  and  C_6 
REMARK    6  A    between atoms: C_6  and  C_7 
REMARK    7  A    between atoms: C_7  and  C_8 
REMARK    8  A    between atoms: C_8  and  C_9 
REMARK    9  A    between atoms: C_9  and  C_10 
REMARK   10  A    between atoms: C_10  and  C_11 
REMARK   11  A    between atoms: C_16  and  N_14 
REMARK   12  A    between atoms: C_15  and  C_16 
REMARK   13  A    between atoms: C_15  and  O_23 
REMARK   14  A    between atoms: C_16  and  C_17 
REMARK   15  A    between atoms: C_17  and  C_18 
REMARK   16  A    between atoms: C_18  and  C_19 
REMARK   17  A    between atoms: P_24  and  O_22 
REMARK   18  A    between atoms: P_24  and  O_23 
REMARK   19  A    between atoms: P_24  and  O_25 
REMARK   20  A    between atoms: O_25  and  C_26 
REMARK   21  A    between atoms: C_26  and  C_27 
REMARK   22  A    between atoms: C_27  and  O_28 
ROOT
HETATM    1  C   UNK N   1      25.234  19.168   4.138  0.00  0.00     0.108 C 
ENDROOT
BRANCH   1   2
HETATM    2  N   UNK N   1      25.335  18.166   5.191  0.00  0.00    -0.354 N 
HETATM    3  C   UNK N   1      26.117  17.054   5.258  0.00  0.00     0.217 C 
HETATM    4  O   UNK N   1      25.922  16.258   6.162  0.00  0.00    -0.274 OA
HETATM    5  H   UNK N   1      24.751  18.314   5.970  0.00  0.00     0.162 HD
BRANCH   3   6
HETATM    6  C   UNK N   1      27.221  16.776   4.276  0.00  0.00     0.103 C 
BRANCH   6   7
HETATM    7  C   UNK N   1      28.486  16.261   4.969  0.00  0.00     0.009 C 
BRANCH   7   8
HETATM    8  C   UNK N   1      29.326  17.358   5.616  0.00  0.00     0.000 C 
BRANCH   8   9
HETATM    9  C   UNK N   1      29.206  17.321   7.131  0.00  0.00     0.000 C 
BRANCH   9  10
HETATM   10  C   UNK N   1      30.548  17.595   7.780  0.00  0.00     0.000 C 
BRANCH  10  11
HETATM   11  C   UNK N   1      31.609  16.659   7.224  0.00  0.00     0.000 C 
BRANCH  11  12
HETATM   12  C   UNK N   1      32.845  17.439   6.802  0.00  0.00     0.000 C 
BRANCH  12  13
HETATM   13  C   UNK N   1      33.384  16.902   5.490  0.00  0.00     0.000 C 
BRANCH  13  14
HETATM   14  C   UNK N   1      32.850  17.726   4.335  0.00  0.00    -0.000 C 
BRANCH  14  15
HETATM   15  C   UNK N   1      32.277  16.810   3.277  0.00  0.00    -0.005 C 
HETATM   16  C   UNK N   1      33.286  15.731   2.947  0.00  0.00     0.005 C 
ENDBRANCH  14  15
ENDBRANCH  13  14
ENDBRANCH  12  13
ENDBRANCH  11  12
ENDBRANCH  10  11
ENDBRANCH   9  10
ENDBRANCH   8   9
ENDBRANCH   7   8
ENDBRANCH   6   7
ENDBRANCH   3   6
ENDBRANCH   1   2
BRANCH   1  17
HETATM   17  C   UNK N   1      23.802  19.358   3.585  0.00  0.00     0.205 C 
BRANCH  17  18
HETATM   18  O   UNK N   1      22.962  18.247   3.780  0.00  0.00    -0.295 OA
BRANCH  18  19
HETATM   19  P   UNK N   1      21.361  18.811   4.205  0.00  0.00     0.393 P 
HETATM   20  O   UNK N   1      21.259  18.975   5.747  0.00  0.00    -0.631 OA
BRANCH  19  21
HETATM   21  O   UNK N   1      20.137  17.669   3.738  0.00  0.00    -0.307 OA
HETATM   22  H   UNK N   1      19.791  17.073   3.056  0.00  0.00     0.222 HD
ENDBRANCH  19  21
BRANCH  19  23
HETATM   23  O   UNK N   1      21.044  20.380   3.522  0.00  0.00    -0.295 OA
BRANCH  23  24
HETATM   24  C   UNK N   1      20.391  20.126   2.314  0.00  0.00     0.206 C 
BRANCH  24  25
HETATM   25  C   UNK N   1      21.229  20.646   1.162  0.00  0.00     0.191 C 
BRANCH  25  26
HETATM   26  O   UNK N   1      20.542  20.451  -0.035  0.00  0.00    -0.399 OA
HETATM   27  H   UNK N   1      20.606  20.974  -0.850  0.00  0.00     0.209 HD
ENDBRANCH  25  26
ENDBRANCH  24  25
ENDBRANCH  23  24
ENDBRANCH  19  23
ENDBRANCH  18  19
ENDBRANCH  17  18
ENDBRANCH   1  17
BRANCH   1  28
HETATM   28  C   UNK N   1      25.814  20.463   4.717  0.00  0.00     0.027 C 
BRANCH  28  29
HETATM   29  C   UNK N   1      27.313  20.339   4.966  0.00  0.00     0.002 C 
BRANCH  29  30
HETATM   30  C   UNK N   1      27.629  20.702   6.401  0.00  0.00    -0.004 C 
HETATM   31  C   UNK N   1      26.427  21.364   7.036  0.00  0.00     0.005 C 
ENDBRANCH  29  30
ENDBRANCH  28  29
ENDBRANCH   1  28
TORSDOF 22
ENDMDL
MODEL 3
REMARK VINA RESULT:      -5.1      3.950     10.829
REMARK  22 active torsions:
REMARK  status: ('A' for Active; 'I' for Inactive)
REMARK    1  A    between atoms: C_1  and  C_2 
REMARK       I    between atoms: C_1  and  N_14 
REMARK    2  A    between atoms: C_2  and  C_3 
REMARK    3  A    between atoms: C_3  and  C_4 
REMARK    4  A    between atoms: C_4  and  C_5 
REMARK    5  A    between atoms: C_5  and  C_6 
REMARK    6  A    between atoms: C_6  and  C_7 
REMARK    7  A    between atoms: C_7  and  C_8 
REMARK    8  A    between atoms: C_8  and  C_9 
REMARK    9  A    between atoms: C_9  and  C_10 
REMARK   10  A    between atoms: C_10  and  C_11 
REMARK   11  A    between atoms: C_16  and  N_14 
REMARK   12  A    between atoms: C_15  and  C_16 
REMARK   13  A    between atoms: C_15  and  O_23 
REMARK   14  A    between atoms: C_16  and  C_17 
REMARK   15  A    between atoms: C_17  and  C_18 
REMARK   16  A    between atoms: C_18  and  C_19 
REMARK   17  A    between atoms: P_24  and  O_22 
REMARK   18  A    between atoms: P_24  and  O_23 
REMARK   19  A    between atoms: P_24  and  O_25 
REMARK   20  A    between atoms: O_25  and  C_26 
REMARK   21  A    between atoms: C_26  and  C_27 
REMARK   22  A    between atoms: C_27  and  O_28 
ROOT
HETATM    1  C   UNK N   1      35.871  14.126  12.977  0.00  0.00     0.108 C 
ENDROOT
BRANCH   1   2
HETATM    2  N   UNK N   1      36.762  14.703  13.975  0.00  0.00    -0.354 N 
HETATM    3  C   UNK N   1      36.908  14.390  15.291  0.00  0.00     0.217 C 
HETATM    4  O   UNK N   1      37.599  15.114  15.988  0.00  0.00    -0.274 OA
HETATM    5  H   UNK N   1      37.346  15.426  13.648  0.00  0.00     0.162 HD
BRANCH   3   6
HETATM    6  C   UNK N   1      36.269  13.182  15.915  0.00  0.00     0.103 C 
BRANCH   6   7
HETATM    7  C   UNK N   1      35.239  13.565  16.982  0.00  0.00     0.009 C 
BRANCH   7   8
HETATM    8  C   UNK N   1      35.253  12.653  18.206  0.00  0.00     0.000 C 
BRANCH   8   9
HETATM    9  C   UNK N   1      35.828  11.287  17.868  0.00  0.00     0.000 C 
BRANCH   9  10
HETATM   10  C   UNK N   1      34.790  10.203  18.077  0.00  0.00     0.000 C 
BRANCH  10  11
HETATM   11  C   UNK N   1      34.800   9.227  16.912  0.00  0.00     0.000 C 
BRANCH  11  12
HETATM   12  C   UNK N   1      35.094   9.950  15.607  0.00  0.00     0.000 C 
BRANCH  12  13
HETATM   13  C   UNK N   1      33.821  10.545  15.036  0.00  0.00     0.000 C 
BRANCH  13  14
HETATM   14  C   UNK N   1      33.930  10.648  13.527  0.00  0.00    -0.000 C 
BRANCH  14  15
HETATM   15  C   UNK N   1      34.744   9.490  12.994  0.00  0.00    -0.005 C 
HETATM   16  C   UNK N   1      34.194   9.067  11.649  0.00  0.00     0.005 C 
ENDBRANCH  14  15
ENDBRANCH  13  14
ENDBRANCH  12  13
ENDBRANCH  11  12
ENDBRANCH  10  11
ENDBRANCH   9  10
ENDBRANCH   8   9
ENDBRANCH   7   8
ENDBRANCH   6   7
ENDBRANCH   3   6
ENDBRANCH   1   2
BRANCH   1  17
HETATM   17  C   UNK N   1      35.395  15.132  11.901  0.00  0.00     0.205 C 
BRANCH  17  18
HETATM   18  O   UNK N   1      34.119  14.853  11.382  0.00  0.00    -0.295 OA
BRANCH  18  19
HETATM   19  P   UNK N   1      34.000  15.525   9.770  0.00  0.00     0.393 P 
HETATM   20  O   UNK N   1      35.050  14.850   8.845  0.00  0.00    -0.631 OA
BRANCH  19  21
HETATM   21  O   UNK N   1      34.343  17.228   9.762  0.00  0.00    -0.307 OA
HETATM   22  H   UNK N   1      34.357  18.059   9.262  0.00  0.00     0.222 HD
ENDBRANCH  19  21
BRANCH  19  23
HETATM   23  O   UNK N   1      32.442  15.199   9.067  0.00  0.00    -0.295 OA
BRANCH  23  24
HETATM   24  C   UNK N   1      32.130  16.341   8.327  0.00  0.00     0.206 C 
BRANCH  24  25
HETATM   25  C   UNK N   1      30.743  16.828   8.701  0.00  0.00     0.191 C 
BRANCH  25  26
HETATM   26  O   UNK N   1      30.849  18.002   9.444  0.00  0.00    -0.399 OA
HETATM   27  H   UNK N   1      30.908  18.912   9.113  0.00  0.00     0.209 HD
ENDBRANCH  25  26
ENDBRANCH  24  25
ENDBRANCH  23  24
ENDBRANCH  19  23
ENDBRANCH  18  19
ENDBRANCH  17  18
ENDBRANCH   1  17
BRANCH   1  28
HETATM   28  C   UNK N   1      36.614  12.931  12.371  0.00  0.00     0.027 C 
BRANCH  28  29
HETATM   29  C   UNK N   1      37.351  13.322  11.095  0.00  0.00     0.002 C 
BRANCH  29  30
HETATM   30  C   UNK N   1      38.209  12.170  10.620  0.00  0.00    -0.004 C 
HETATM   31  C   UNK N   1      37.597  10.860  11.067  0.00  0.00     0.005 C 
ENDBRANCH  29  30
ENDBRANCH  28  29
ENDBRANCH   1  28
TORSDOF 22
ENDMDL
MODEL 4
REMARK VINA RESULT:      -5.1      5.483     11.767
REMARK  22 active torsions:
REMARK  status: ('A' for Active; 'I' for Inactive)
REMARK    1  A    between atoms: C_1  and  C_2 
REMARK       I    between atoms: C_1  and  N_14 
REMARK    2  A    between atoms: C_2  and  C_3 
REMARK    3  A    between atoms: C_3  and  C_4 
REMARK    4  A    between atoms: C_4  and  C_5 
REMARK    5  A    between atoms: C_5  and  C_6 
REMARK    6  A    between atoms: C_6  and  C_7 
REMARK    7  A    between atoms: C_7  and  C_8 
REMARK    8  A    between atoms: C_8  and  C_9 
REMARK    9  A    between atoms: C_9  and  C_10 
REMARK   10  A    between atoms: C_10  and  C_11 
REMARK   11  A    between atoms: C_16  and  N_14 
REMARK   12  A    between atoms: C_15  and  C_16 
REMARK   13  A    between atoms: C_15  and  O_23 
REMARK   14  A    between atoms: C_16  and  C_17 
REMARK   15  A    between atoms: C_17  and  C_18 
REMARK   16  A    between atoms: C_18  and  C_19 
REMARK   17  A    between atoms: P_24  and  O_22 
REMARK   18  A    between atoms: P_24  and  O_23 
REMARK   19  A    between atoms: P_24  and  O_25 
REMARK   20  A    between atoms: O_25  and  C_26 
REMARK   21  A    between atoms: C_26  and  C_27 
REMARK   22  A    between atoms: C_27  and  O_28 
ROOT
HETATM    1  C   UNK N   1      36.479  12.705  13.214  0.00  0.00     0.108 C 
ENDROOT
BRANCH   1   2
HETATM    2  N   UNK N   1      37.063  13.851  13.899  0.00  0.00    -0.354 N 
HETATM    3  C   UNK N   1      36.876  14.287  15.174  0.00  0.00     0.217 C 
HETATM    4  O   UNK N   1      37.339  15.369  15.494  0.00  0.00    -0.274 OA
HETATM    5  H   UNK N   1      37.686  14.390  13.359  0.00  0.00     0.162 HD
BRANCH   3   6
HETATM    6  C   UNK N   1      36.141  13.482  16.208  0.00  0.00     0.103 C 
BRANCH   6   7
HETATM    7  C   UNK N   1      35.603  14.361  17.342  0.00  0.00     0.009 C 
BRANCH   7   8
HETATM    8  C   UNK N   1      35.234  13.583  18.602  0.00  0.00     0.000 C 
BRANCH   8   9
HETATM    9  C   UNK N   1      35.126  12.093  18.317  0.00  0.00     0.000 C 
BRANCH   9  10
HETATM   10  C   UNK N   1      35.650  11.286  19.488  0.00  0.00     0.000 C 
BRANCH  10  11
HETATM   11  C   UNK N   1      36.378  10.047  18.996  0.00  0.00     0.000 C 
BRANCH  11  12
HETATM   12  C   UNK N   1      36.504  10.064  17.481  0.00  0.00     0.000 C 
BRANCH  12  13
HETATM   13  C   UNK N   1      36.131   8.710  16.905  0.00  0.00     0.000 C 
BRANCH  13  14
HETATM   14  C   UNK N   1      35.308   8.893  15.645  0.00  0.00    -0.000 C 
BRANCH  14  15
HETATM   15  C   UNK N   1      34.548  10.199  15.716  0.00  0.00    -0.005 C 
HETATM   16  C   UNK N   1      33.892  10.472  14.379  0.00  0.00     0.005 C 
ENDBRANCH  14  15
ENDBRANCH  13  14
ENDBRANCH  12  13
ENDBRANCH  11  12
ENDBRANCH  10  11
ENDBRANCH   9  10
ENDBRANCH   8   9
ENDBRANCH   7   8
ENDBRANCH   6   7
ENDBRANCH   3   6
ENDBRANCH   1   2
BRANCH   1  17
HETATM   17  C   UNK N   1      35.569  13.082  12.021  0.00  0.00     0.205 C 
BRANCH  17  18
HETATM   18  O   UNK N   1      34.687  14.143  12.287  0.00  0.00    -0.295 OA
BRANCH  18  19
HETATM   19  P   UNK N   1      34.427  15.053  10.814  0.00  0.00     0.393 P 
HETATM   20  O   UNK N   1      35.039  16.473  10.964  0.00  0.00    -0.631 OA
BRANCH  19  21
HETATM   21  O   UNK N   1      32.734  15.266  10.486  0.00  0.00    -0.307 OA
HETATM   22  H   UNK N   1      31.942  15.814  10.593  0.00  0.00     0.222 HD
ENDBRANCH  19  21
BRANCH  19  23
HETATM   23  O   UNK N   1      35.235  14.308   9.465  0.00  0.00    -0.295 OA
BRANCH  23  24
HETATM   24  C   UNK N   1      34.369  14.474   8.383  0.00  0.00     0.206 C 
BRANCH  24  25
HETATM   25  C   UNK N   1      35.141  14.996   7.187  0.00  0.00     0.191 C 
BRANCH  25  26
HETATM   26  O   UNK N   1      34.919  16.366   7.054  0.00  0.00    -0.399 OA
HETATM   27  H   UNK N   1      34.790  16.871   6.236  0.00  0.00     0.209 HD
ENDBRANCH  25  26
ENDBRANCH  24  25
ENDBRANCH  23  24
ENDBRANCH  19  23
ENDBRANCH  18  19
ENDBRANCH  17  18
ENDBRANCH   1  17
BRANCH   1  28
HETATM   28  C   UNK N   1      37.649  11.807  12.797  0.00  0.00     0.027 C 
BRANCH  28  29
HETATM   29  C   UNK N   1      37.593  10.458  13.504  0.00  0.00     0.002 C 
BRANCH  29  30
HETATM   30  C   UNK N   1      38.655  10.394  14.580  0.00  0.00    -0.004 C 
HETATM   31  C   UNK N   1      39.192   8.984  14.683  0.00  0.00     0.005 C 
ENDBRANCH  29  30
ENDBRANCH  28  29
ENDBRANCH   1  28
TORSDOF 22
ENDMDL
MODEL 5
REMARK VINA RESULT:      -5.0      8.097     11.478
REMARK  22 active torsions:
REMARK  status: ('A' for Active; 'I' for Inactive)
REMARK    1  A    between atoms: C_1  and  C_2 
REMARK       I    between atoms: C_1  and  N_14 
REMARK    2  A    between atoms: C_2  and  C_3 
REMARK    3  A    between atoms: C_3  and  C_4 
REMARK    4  A    between atoms: C_4  and  C_5 
REMARK    5  A    between atoms: C_5  and  C_6 
REMARK    6  A    between atoms: C_6  and  C_7 
REMARK    7  A    between atoms: C_7  and  C_8 
REMARK    8  A    between atoms: C_8  and  C_9 
REMARK    9  A    between atoms: C_9  and  C_10 
REMARK   10  A    between atoms: C_10  and  C_11 
REMARK   11  A    between atoms: C_16  and  N_14 
REMARK   12  A    between atoms: C_15  and  C_16 
REMARK   13  A    between atoms: C_15  and  O_23 
REMARK   14  A    between atoms: C_16  and  C_17 
REMARK   15  A    between atoms: C_17  and  C_18 
REMARK   16  A    between atoms: C_18  and  C_19 
REMARK   17  A    between atoms: P_24  and  O_22 
REMARK   18  A    between atoms: P_24  and  O_23 
REMARK   19  A    between atoms: P_24  and  O_25 
REMARK   20  A    between atoms: O_25  and  C_26 
REMARK   21  A    between atoms: C_26  and  C_27 
REMARK   22  A    between atoms: C_27  and  O_28 
ROOT
HETATM    1  C   UNK N   1      23.542  18.357   4.416  0.00  0.00     0.108 C 
ENDROOT
BRANCH   1   2
HETATM    2  N   UNK N   1      23.927  19.168   3.268  0.00  0.00    -0.354 N 
HETATM    3  C   UNK N   1      24.827  20.185   3.187  0.00  0.00     0.217 C 
HETATM    4  O   UNK N   1      24.876  20.840   2.160  0.00  0.00    -0.274 OA
HETATM    5  H   UNK N   1      23.468  18.947   2.425  0.00  0.00     0.162 HD
BRANCH   3   6
HETATM    6  C   UNK N   1      25.777  20.520   4.303  0.00  0.00     0.103 C 
BRANCH   6   7
HETATM    7  C   UNK N   1      27.205  20.056   4.000  0.00  0.00     0.009 C 
BRANCH   7   8
HETATM    8  C   UNK N   1      28.142  20.118   5.203  0.00  0.00     0.000 C 
BRANCH   8   9
HETATM    9  C   UNK N   1      27.365  20.057   6.508  0.00  0.00     0.000 C 
BRANCH   9  10
HETATM   10  C   UNK N   1      28.111  19.229   7.536  0.00  0.00     0.000 C 
BRANCH  10  11
HETATM   11  C   UNK N   1      28.432  17.853   6.978  0.00  0.00     0.000 C 
BRANCH  11  12
HETATM   12  C   UNK N   1      29.881  17.485   7.257  0.00  0.00     0.000 C 
BRANCH  12  13
HETATM   13  C   UNK N   1      30.439  16.647   6.122  0.00  0.00     0.000 C 
BRANCH  13  14
HETATM   14  C   UNK N   1      30.522  17.478   4.857  0.00  0.00    -0.000 C 
BRANCH  14  15
HETATM   15  C   UNK N   1      30.796  16.578   3.672  0.00  0.00    -0.005 C 
HETATM   16  C   UNK N   1      32.090  16.999   3.010  0.00  0.00     0.005 C 
ENDBRANCH  14  15
ENDBRANCH  13  14
ENDBRANCH  12  13
ENDBRANCH  11  12
ENDBRANCH  10  11
ENDBRANCH   9  10
ENDBRANCH   8   9
ENDBRANCH   7   8
ENDBRANCH   6   7
ENDBRANCH   3   6
ENDBRANCH   1   2
BRANCH   1  17
HETATM   17  C   UNK N   1      22.134  17.728   4.299  0.00  0.00     0.205 C 
BRANCH  17  18
HETATM   18  O   UNK N   1      21.698  17.546   2.974  0.00  0.00    -0.295 OA
BRANCH  18  19
HETATM   19  P   UNK N   1      20.032  18.067   2.846  0.00  0.00     0.393 P 
HETATM   20  O   UNK N   1      19.198  17.433   3.993  0.00  0.00    -0.631 OA
BRANCH  19  21
HETATM   21  O   UNK N   1      19.314  17.544   1.352  0.00  0.00    -0.307 OA
HETATM   22  H   UNK N   1      19.391  17.002   0.552  0.00  0.00     0.222 HD
ENDBRANCH  19  21
BRANCH  19  23
HETATM   23  O   UNK N   1      19.896  19.791   3.033  0.00  0.00    -0.295 OA
BRANCH  23  24
HETATM   24  C   UNK N   1      21.006  20.319   2.370  0.00  0.00     0.206 C 
BRANCH  24  25
HETATM   25  C   UNK N   1      20.562  20.984   1.082  0.00  0.00     0.191 C 
BRANCH  25  26
HETATM   26  O   UNK N   1      20.606  20.056   0.043  0.00  0.00    -0.399 OA
HETATM   27  H   UNK N   1      19.943  19.905  -0.649  0.00  0.00     0.209 HD
ENDBRANCH  25  26
ENDBRANCH  24  25
ENDBRANCH  23  24
ENDBRANCH  19  23
ENDBRANCH  18  19
ENDBRANCH  17  18
ENDBRANCH   1  17
BRANCH   1  28
HETATM   28  C   UNK N   1      24.641  17.303   4.590  0.00  0.00     0.027 C 
BRANCH  28  29
HETATM   29  C   UNK N   1      25.053  16.703   3.250  0.00  0.00     0.002 C 
BRANCH  29  30
HETATM   30  C   UNK N   1      26.542  16.430   3.242  0.00  0.00    -0.004 C 
HETATM   31  C   UNK N   1      26.959  15.841   4.572  0.00  0.00     0.005 C 
ENDBRANCH  29  30
ENDBRANCH  28  29
ENDBRANCH   1  28
TORSDOF 22
ENDMDL
MODEL 6
REMARK VINA RESULT:      -4.9      4.331     10.745
REMARK  22 active torsions:
REMARK  status: ('A' for Active; 'I' for Inactive)
REMARK    1  A    between atoms: C_1  and  C_2 
REMARK       I    between atoms: C_1  and  N_14 
REMARK    2  A    between atoms: C_2  and  C_3 
REMARK    3  A    between atoms: C_3  and  C_4 
REMARK    4  A    between atoms: C_4  and  C_5 
REMARK    5  A    between atoms: C_5  and  C_6 
REMARK    6  A    between atoms: C_6  and  C_7 
REMARK    7  A    between atoms: C_7  and  C_8 
REMARK    8  A    between atoms: C_8  and  C_9 
REMARK    9  A    between atoms: C_9  and  C_10 
REMARK   10  A    between atoms: C_10  and  C_11 
REMARK   11  A    between atoms: C_16  and  N_14 
REMARK   12  A    between atoms: C_15  and  C_16 
REMARK   13  A    between atoms: C_15  and  O_23 
REMARK   14  A    between atoms: C_16  and  C_17 
REMARK   15  A    between atoms: C_17  and  C_18 
REMARK   16  A    between atoms: C_18  and  C_19 
REMARK   17  A    between atoms: P_24  and  O_22 
REMARK   18  A    between atoms: P_24  and  O_23 
REMARK   19  A    between atoms: P_24  and  O_25 
REMARK   20  A    between atoms: O_25  and  C_26 
REMARK   21  A    between atoms: C_26  and  C_27 
REMARK   22  A    between atoms: C_27  and  O_28 
ROOT
HETATM    1  C   UNK N   1      36.014  13.267  11.422  0.00  0.00     0.108 C 
ENDROOT
BRANCH   1   2
HETATM    2  N   UNK N   1      34.905  12.710  10.659  0.00  0.00    -0.354 N 
HETATM    3  C   UNK N   1      34.696  11.432  10.241  0.00  0.00     0.217 C 
HETATM    4  O   UNK N   1      33.778  11.214   9.468  0.00  0.00    -0.274 OA
HETATM    5  H   UNK N   1      34.203  13.353  10.408  0.00  0.00     0.162 HD
BRANCH   3   6
HETATM    6  C   UNK N   1      35.536  10.276  10.708  0.00  0.00     0.103 C 
BRANCH   6   7
HETATM    7  C   UNK N   1      34.776   9.371  11.682  0.00  0.00     0.009 C 
BRANCH   7   8
HETATM    8  C   UNK N   1      34.910   9.789  13.144  0.00  0.00     0.000 C 
BRANCH   8   9
HETATM    9  C   UNK N   1      33.652  10.490  13.633  0.00  0.00     0.000 C 
BRANCH   9  10
HETATM   10  C   UNK N   1      33.862  11.056  15.023  0.00  0.00     0.000 C 
BRANCH  10  11
HETATM   11  C   UNK N   1      34.857  10.207  15.798  0.00  0.00     0.000 C 
BRANCH  11  12
HETATM   12  C   UNK N   1      35.536  11.031  16.881  0.00  0.00     0.000 C 
BRANCH  12  13
HETATM   13  C   UNK N   1      35.107  10.553  18.255  0.00  0.00     0.000 C 
BRANCH  13  14
HETATM   14  C   UNK N   1      34.582   9.133  18.168  0.00  0.00    -0.000 C 
BRANCH  14  15
HETATM   15  C   UNK N   1      33.560   8.899  19.258  0.00  0.00    -0.005 C 
HETATM   16  C   UNK N   1      33.986   9.635  20.511  0.00  0.00     0.005 C 
ENDBRANCH  14  15
ENDBRANCH  13  14
ENDBRANCH  12  13
ENDBRANCH  11  12
ENDBRANCH  10  11
ENDBRANCH   9  10
ENDBRANCH   8   9
ENDBRANCH   7   8
ENDBRANCH   6   7
ENDBRANCH   3   6
ENDBRANCH   1   2
BRANCH   1  17
HETATM   17  C   UNK N   1      36.620  14.551  10.807  0.00  0.00     0.205 C 
BRANCH  17  18
HETATM   18  O   UNK N   1      36.128  14.858   9.526  0.00  0.00    -0.295 OA
BRANCH  18  19
HETATM   19  P   UNK N   1      34.952  16.149   9.661  0.00  0.00     0.393 P 
HETATM   20  O   UNK N   1      35.585  17.353  10.412  0.00  0.00    -0.631 OA
BRANCH  19  21
HETATM   21  O   UNK N   1      33.564  15.653  10.582  0.00  0.00    -0.307 OA
HETATM   22  H   UNK N   1      33.046  15.746  11.396  0.00  0.00     0.222 HD
ENDBRANCH  19  21
BRANCH  19  23
HETATM   23  O   UNK N   1      34.483  16.737   8.093  0.00  0.00    -0.295 OA
BRANCH  23  24
HETATM   24  C   UNK N   1      33.792  17.925   8.340  0.00  0.00     0.206 C 
BRANCH  24  25
HETATM   25  C   UNK N   1      32.331  17.750   7.978  0.00  0.00     0.191 C 
BRANCH  25  26
HETATM   26  O   UNK N   1      31.583  17.570   9.140  0.00  0.00    -0.399 OA
HETATM   27  H   UNK N   1      31.653  16.849   9.786  0.00  0.00     0.209 HD
ENDBRANCH  25  26
ENDBRANCH  24  25
ENDBRANCH  23  24
ENDBRANCH  19  23
ENDBRANCH  18  19
ENDBRANCH  17  18
ENDBRANCH   1  17
BRANCH   1  28
HETATM   28  C   UNK N   1      35.491  13.491  12.846  0.00  0.00     0.027 C 
BRANCH  28  29
HETATM   29  C   UNK N   1      36.324  14.530  13.587  0.00  0.00     0.002 C 
BRANCH  29  30
HETATM   30  C   UNK N   1      36.650  14.033  14.979  0.00  0.00    -0.004 C 
HETATM   31  C   UNK N   1      37.285  15.147  15.782  0.00  0.00     0.005 C 
ENDBRANCH  29  30
ENDBRANCH  28  29
ENDBRANCH   1  28
TORSDOF 22
ENDMDL
MODEL 7
REMARK VINA RESULT:      -4.9      7.138     10.396
REMARK  22 active torsions:
REMARK  status: ('A' for Active; 'I' for Inactive)
REMARK    1  A    between atoms: C_1  and  C_2 
REMARK       I    between atoms: C_1  and  N_14 
REMARK    2  A    between atoms: C_2  and  C_3 
REMARK    3  A    between atoms: C_3  and  C_4 
REMARK    4  A    between atoms: C_4  and  C_5 
REMARK    5  A    between atoms: C_5  and  C_6 
REMARK    6  A    between atoms: C_6  and  C_7 
REMARK    7  A    between atoms: C_7  and  C_8 
REMARK    8  A    between atoms: C_8  and  C_9 
REMARK    9  A    between atoms: C_9  and  C_10 
REMARK   10  A    between atoms: C_10  and  C_11 
REMARK   11  A    between atoms: C_16  and  N_14 
REMARK   12  A    between atoms: C_15  and  C_16 
REMARK   13  A    between atoms: C_15  and  O_23 
REMARK   14  A    between atoms: C_16  and  C_17 
REMARK   15  A    between atoms: C_17  and  C_18 
REMARK   16  A    between atoms: C_18  and  C_19 
REMARK   17  A    between atoms: P_24  and  O_22 
REMARK   18  A    between atoms: P_24  and  O_23 
REMARK   19  A    between atoms: P_24  and  O_25 
REMARK   20  A    between atoms: O_25  and  C_26 
REMARK   21  A    between atoms: C_26  and  C_27 
REMARK   22  A    between atoms: C_27  and  O_28 
ROOT
HETATM    1  C   UNK N   1      25.259  18.228   4.747  0.00  0.00     0.108 C 
ENDROOT
BRANCH   1   2
HETATM    2  N   UNK N   1      25.977  17.376   5.686  0.00  0.00    -0.354 N 
HETATM    3  C   UNK N   1      26.915  16.420   5.446  0.00  0.00     0.217 C 
HETATM    4  O   UNK N   1      27.270  15.706   6.369  0.00  0.00    -0.274 OA
HETATM    5  H   UNK N   1      25.751  17.512   6.635  0.00  0.00     0.162 HD
BRANCH   3   6
HETATM    6  C   UNK N   1      27.545  16.220   4.096  0.00  0.00     0.103 C 
BRANCH   6   7
HETATM    7  C   UNK N   1      28.899  16.929   3.985  0.00  0.00     0.009 C 
BRANCH   7   8
HETATM    8  C   UNK N   1      29.781  16.400   2.857  0.00  0.00     0.000 C 
BRANCH   8   9
HETATM    9  C   UNK N   1      31.246  16.719   3.109  0.00  0.00     0.000 C 
BRANCH   9  10
HETATM   10  C   UNK N   1      31.690  16.170   4.450  0.00  0.00     0.000 C 
BRANCH  10  11
HETATM   11  C   UNK N   1      32.550  17.187   5.182  0.00  0.00     0.000 C 
BRANCH  11  12
HETATM   12  C   UNK N   1      32.230  17.189   6.669  0.00  0.00     0.000 C 
BRANCH  12  13
HETATM   13  C   UNK N   1      30.857  16.594   6.914  0.00  0.00     0.000 C 
BRANCH  13  14
HETATM   14  C   UNK N   1      29.945  17.636   7.532  0.00  0.00    -0.000 C 
BRANCH  14  15
HETATM   15  C   UNK N   1      30.638  18.288   8.708  0.00  0.00    -0.005 C 
HETATM   16  C   UNK N   1      29.606  18.688   9.741  0.00  0.00     0.005 C 
ENDBRANCH  14  15
ENDBRANCH  13  14
ENDBRANCH  12  13
ENDBRANCH  11  12
ENDBRANCH  10  11
ENDBRANCH   9  10
ENDBRANCH   8   9
ENDBRANCH   7   8
ENDBRANCH   6   7
ENDBRANCH   3   6
ENDBRANCH   1   2
BRANCH   1  17
HETATM   17  C   UNK N   1      23.734  17.968   4.701  0.00  0.00     0.205 C 
BRANCH  17  18
HETATM   18  O   UNK N   1      23.055  18.721   3.727  0.00  0.00    -0.295 OA
BRANCH  18  19
HETATM   19  P   UNK N   1      21.351  18.766   4.126  0.00  0.00     0.393 P 
HETATM   20  O   UNK N   1      21.174  18.659   5.666  0.00  0.00    -0.631 OA
BRANCH  19  21
HETATM   21  O   UNK N   1      20.497  17.424   3.427  0.00  0.00    -0.307 OA
HETATM   22  H   UNK N   1      19.695  16.878   3.417  0.00  0.00     0.222 HD
ENDBRANCH  19  21
BRANCH  19  23
HETATM   23  O   UNK N   1      20.634  20.278   3.651  0.00  0.00    -0.295 OA
BRANCH  23  24
HETATM   24  C   UNK N   1      20.015  20.019   2.426  0.00  0.00     0.206 C 
BRANCH  24  25
HETATM   25  C   UNK N   1      20.715  20.796   1.328  0.00  0.00     0.191 C 
BRANCH  25  26
HETATM   26  O   UNK N   1      20.671  20.063   0.143  0.00  0.00    -0.399 OA
HETATM   27  H   UNK N   1      20.648  19.098   0.040  0.00  0.00     0.209 HD
ENDBRANCH  25  26
ENDBRANCH  24  25
ENDBRANCH  23  24
ENDBRANCH  19  23
ENDBRANCH  18  19
ENDBRANCH  17  18
ENDBRANCH   1  17
BRANCH   1  28
HETATM   28  C   UNK N   1      25.594  19.674   5.131  0.00  0.00     0.027 C 
BRANCH  28  29
HETATM   29  C   UNK N   1      26.939  20.104   4.555  0.00  0.00     0.002 C 
BRANCH  29  30
HETATM   30  C   UNK N   1      27.811  20.675   5.652  0.00  0.00    -0.004 C 
HETATM   31  C   UNK N   1      26.999  21.626   6.505  0.00  0.00     0.005 C 
ENDBRANCH  29  30
ENDBRANCH  28  29
ENDBRANCH   1  28
TORSDOF 22
ENDMDL
MODEL 8
REMARK VINA RESULT:      -4.9      9.507     12.856
REMARK  22 active torsions:
REMARK  status: ('A' for Active; 'I' for Inactive)
REMARK    1  A    between atoms: C_1  and  C_2 
REMARK       I    between atoms: C_1  and  N_14 
REMARK    2  A    between atoms: C_2  and  C_3 
REMARK    3  A    between atoms: C_3  and  C_4 
REMARK    4  A    between atoms: C_4  and  C_5 
REMARK    5  A    between atoms: C_5  and  C_6 
REMARK    6  A    between atoms: C_6  and  C_7 
REMARK    7  A    between atoms: C_7  and  C_8 
REMARK    8  A    between atoms: C_8  and  C_9 
REMARK    9  A    between atoms: C_9  and  C_10 
REMARK   10  A    between atoms: C_10  and  C_11 
REMARK   11  A    between atoms: C_16  and  N_14 
REMARK   12  A    between atoms: C_15  and  C_16 
REMARK   13  A    between atoms: C_15  and  O_23 
REMARK   14  A    between atoms: C_16  and  C_17 
REMARK   15  A    between atoms: C_17  and  C_18 
REMARK   16  A    between atoms: C_18  and  C_19 
REMARK   17  A    between atoms: P_24  and  O_22 
REMARK   18  A    between atoms: P_24  and  O_23 
REMARK   19  A    between atoms: P_24  and  O_25 
REMARK   20  A    between atoms: O_25  and  C_26 
REMARK   21  A    between atoms: C_26  and  C_27 
REMARK   22  A    between atoms: C_27  and  O_28 
ROOT
HETATM    1  C   UNK N   1      20.695  16.262   7.425  0.00  0.00     0.108 C 
ENDROOT
BRANCH   1   2
HETATM    2  N   UNK N   1      20.568  14.821   7.252  0.00  0.00    -0.354 N 
HETATM    3  C   UNK N   1      20.848  13.815   8.124  0.00  0.00     0.217 C 
HETATM    4  O   UNK N   1      20.826  12.666   7.715  0.00  0.00    -0.274 OA
HETATM    5  H   UNK N   1      20.230  14.532   6.373  0.00  0.00     0.162 HD
BRANCH   3   6
HETATM    6  C   UNK N   1      21.163  14.060   9.573  0.00  0.00     0.103 C 
BRANCH   6   7
HETATM    7  C   UNK N   1      20.795  12.859  10.450  0.00  0.00     0.009 C 
BRANCH   7   8
HETATM    8  C   UNK N   1      21.943  12.357  11.321  0.00  0.00     0.000 C 
BRANCH   8   9
HETATM    9  C   UNK N   1      22.979  11.614  10.491  0.00  0.00     0.000 C 
BRANCH   9  10
HETATM   10  C   UNK N   1      24.360  12.195  10.715  0.00  0.00     0.000 C 
BRANCH  10  11
HETATM   11  C   UNK N   1      24.850  12.902   9.463  0.00  0.00     0.000 C 
BRANCH  11  12
HETATM   12  C   UNK N   1      24.215  12.296   8.221  0.00  0.00     0.000 C 
BRANCH  12  13
HETATM   13  C   UNK N   1      24.709  13.007   6.975  0.00  0.00     0.000 C 
BRANCH  13  14
HETATM   14  C   UNK N   1      24.291  14.465   7.012  0.00  0.00    -0.000 C 
BRANCH  14  15
HETATM   15  C   UNK N   1      25.491  15.346   6.743  0.00  0.00    -0.005 C 
HETATM   16  C   UNK N   1      26.542  14.550   5.999  0.00  0.00     0.005 C 
ENDBRANCH  14  15
ENDBRANCH  13  14
ENDBRANCH  12  13
ENDBRANCH  11  12
ENDBRANCH  10  11
ENDBRANCH   9  10
ENDBRANCH   8   9
ENDBRANCH   7   8
ENDBRANCH   6   7
ENDBRANCH   3   6
ENDBRANCH   1   2
BRANCH   1  17
HETATM   17  C   UNK N   1      21.330  16.989   6.216  0.00  0.00     0.205 C 
BRANCH  17  18
HETATM   18  O   UNK N   1      20.566  16.914   5.038  0.00  0.00    -0.295 OA
BRANCH  18  19
HETATM   19  P   UNK N   1      21.392  17.786   3.765  0.00  0.00     0.393 P 
HETATM   20  O   UNK N   1      20.916  17.265   2.382  0.00  0.00    -0.631 OA
BRANCH  19  21
HETATM   21  O   UNK N   1      23.111  17.537   3.834  0.00  0.00    -0.307 OA
HETATM   22  H   UNK N   1      23.863  17.138   4.298  0.00  0.00     0.222 HD
ENDBRANCH  19  21
BRANCH  19  23
HETATM   23  O   UNK N   1      21.006  19.482   3.812  0.00  0.00    -0.295 OA
BRANCH  23  24
HETATM   24  C   UNK N   1      21.768  20.058   2.794  0.00  0.00     0.206 C 
BRANCH  24  25
HETATM   25  C   UNK N   1      20.850  20.686   1.763  0.00  0.00     0.191 C 
BRANCH  25  26
HETATM   26  O   UNK N   1      20.742  19.839   0.661  0.00  0.00    -0.399 OA
HETATM   27  H   UNK N   1      21.378  19.720  -0.062  0.00  0.00     0.209 HD
ENDBRANCH  25  26
ENDBRANCH  24  25
ENDBRANCH  23  24
ENDBRANCH  19  23
ENDBRANCH  18  19
ENDBRANCH  17  18
ENDBRANCH   1  17
BRANCH   1  28
HETATM   28  C   UNK N   1      19.291  16.785   7.749  0.00  0.00     0.027 C 
BRANCH  28  29
HETATM   29  C   UNK N   1      19.183  17.225   9.205  0.00  0.00     0.002 C 
BRANCH  29  30
HETATM   30  C   UNK N   1      19.672  18.650   9.351  0.00  0.00    -0.004 C 
HETATM   31  C   UNK N   1      18.980  19.308  10.524  0.00  0.00     0.005 C 
ENDBRANCH  29  30
ENDBRANCH  28  29
ENDBRANCH   1  28
TORSDOF 22
ENDMDL
MODEL 9
REMARK VINA RESULT:      -4.9      7.722     10.966
REMARK  22 active torsions:
REMARK  status: ('A' for Active; 'I' for Inactive)
REMARK    1  A    between atoms: C_1  and  C_2 
REMARK       I    between atoms: C_1  and  N_14 
REMARK    2  A    between atoms: C_2  and  C_3 
REMARK    3  A    between atoms: C_3  and  C_4 
REMARK    4  A    between atoms: C_4  and  C_5 
REMARK    5  A    between atoms: C_5  and  C_6 
REMARK    6  A    between atoms: C_6  and  C_7 
REMARK    7  A    between atoms: C_7  and  C_8 
REMARK    8  A    between atoms: C_8  and  C_9 
REMARK    9  A    between atoms: C_9  and  C_10 
REMARK   10  A    between atoms: C_10  and  C_11 
REMARK   11  A    between atoms: C_16  and  N_14 
REMARK   12  A    between atoms: C_15  and  C_16 
REMARK   13  A    between atoms: C_15  and  O_23 
REMARK   14  A    between atoms: C_16  and  C_17 
REMARK   15  A    between atoms: C_17  and  C_18 
REMARK   16  A    between atoms: C_18  and  C_19 
REMARK   17  A    between atoms: P_24  and  O_22 
REMARK   18  A    between atoms: P_24  and  O_23 
REMARK   19  A    between atoms: P_24  and  O_25 
REMARK   20  A    between atoms: O_25  and  C_26 
REMARK   21  A    between atoms: C_26  and  C_27 
REMARK   22  A    between atoms: C_27  and  O_28 
ROOT
HETATM    1  C   UNK N   1      24.949  19.430   3.317  0.00  0.00     0.108 C 
ENDROOT
BRANCH   1   2
HETATM    2  N   UNK N   1      24.886  18.411   4.357  0.00  0.00    -0.354 N 
HETATM    3  C   UNK N   1      25.483  17.190   4.411  0.00  0.00     0.217 C 
HETATM    4  O   UNK N   1      25.161  16.424   5.305  0.00  0.00    -0.274 OA
HETATM    5  H   UNK N   1      24.329  18.641   5.136  0.00  0.00     0.162 HD
BRANCH   3   6
HETATM    6  C   UNK N   1      26.534  16.754   3.430  0.00  0.00     0.103 C 
BRANCH   6   7
HETATM    7  C   UNK N   1      27.408  15.627   3.988  0.00  0.00     0.009 C 
BRANCH   7   8
HETATM    8  C   UNK N   1      28.538  16.113   4.891  0.00  0.00     0.000 C 
BRANCH   8   9
HETATM    9  C   UNK N   1      29.760  16.508   4.079  0.00  0.00     0.000 C 
BRANCH   9  10
HETATM   10  C   UNK N   1      30.506  17.642   4.752  0.00  0.00     0.000 C 
BRANCH  10  11
HETATM   11  C   UNK N   1      31.997  17.535   4.478  0.00  0.00     0.000 C 
BRANCH  11  12
HETATM   12  C   UNK N   1      32.774  17.395   5.778  0.00  0.00     0.000 C 
BRANCH  12  13
HETATM   13  C   UNK N   1      31.884  16.821   6.864  0.00  0.00     0.000 C 
BRANCH  13  14
HETATM   14  C   UNK N   1      32.103  17.572   8.163  0.00  0.00    -0.000 C 
BRANCH  14  15
HETATM   15  C   UNK N   1      30.839  18.309   8.545  0.00  0.00    -0.005 C 
HETATM   16  C   UNK N   1      29.855  17.335   9.157  0.00  0.00     0.005 C 
ENDBRANCH  14  15
ENDBRANCH  13  14
ENDBRANCH  12  13
ENDBRANCH  11  12
ENDBRANCH  10  11
ENDBRANCH   9  10
ENDBRANCH   8   9
ENDBRANCH   7   8
ENDBRANCH   6   7
ENDBRANCH   3   6
ENDBRANCH   1   2
BRANCH   1  17
HETATM   17  C   UNK N   1      23.614  20.176   3.084  0.00  0.00     0.205 C 
BRANCH  17  18
HETATM   18  O   UNK N   1      22.512  19.590   3.732  0.00  0.00    -0.295 OA
BRANCH  18  19
HETATM   19  P   UNK N   1      21.045  20.062   2.902  0.00  0.00     0.393 P 
HETATM   20  O   UNK N   1      21.391  20.541   1.465  0.00  0.00    -0.631 OA
BRANCH  19  21
HETATM   21  O   UNK N   1      20.260  21.391   3.700  0.00  0.00    -0.307 OA
HETATM   22  H   UNK N   1      20.279  22.042   4.419  0.00  0.00     0.222 HD
ENDBRANCH  19  21
BRANCH  19  23
HETATM   23  O   UNK N   1      19.961  18.713   2.724  0.00  0.00    -0.295 OA
BRANCH  23  24
HETATM   24  C   UNK N   1      20.759  17.661   2.270  0.00  0.00     0.206 C 
BRANCH  24  25
HETATM   25  C   UNK N   1      20.142  17.053   1.026  0.00  0.00     0.191 C 
BRANCH  25  26
HETATM   26  O   UNK N   1      20.375  17.891  -0.063  0.00  0.00    -0.399 OA
HETATM   27  H   UNK N   1      21.196  18.353  -0.293  0.00  0.00     0.209 HD
ENDBRANCH  25  26
ENDBRANCH  24  25
ENDBRANCH  23  24
ENDBRANCH  19  23
ENDBRANCH  18  19
ENDBRANCH  17  18
ENDBRANCH   1  17
BRANCH   1  28
HETATM   28  C   UNK N   1      26.088  20.378   3.708  0.00  0.00     0.027 C 
BRANCH  28  29
HETATM   29  C   UNK N   1      26.155  20.574   5.218  0.00  0.00     0.002 C 
BRANCH  29  30
HETATM   30  C   UNK N   1      27.592  20.494   5.687  0.00  0.00    -0.004 C 
HETATM   31  C   UNK N   1      27.761  19.307   6.610  0.00  0.00     0.005 C 
ENDBRANCH  29  30
ENDBRANCH  28  29
ENDBRANCH   1  28
TORSDOF 22
ENDMDL
