REMARK  14 active torsions:
REMARK  status: ('A' for Active; 'I' for Inactive)
REMARK    1  A    between atoms: C_2  and  B_1 
REMARK    2  A    between atoms: B_1  and  O_27 
REMARK    3  A    between atoms: B_1  and  O_28 
REMARK    4  A    between atoms: C_2  and  C_3 
REMARK    5  A    between atoms: C_2  and  N_23 
REMARK    6  A    between atoms: C_3  and  C_4 
REMARK    7  A    between atoms: C_4  and  C_5 
REMARK    8  A    between atoms: C_5  and  C_6 
REMARK    9  A    between atoms: C_6  and  N_24 
REMARK   10  A    between atoms: C_7  and  C_8 
REMARK       I    between atoms: C_8  and  N_23 
REMARK   11  A    between atoms: C_12  and  C_14 
REMARK       I    between atoms: C_12  and  N_25 
REMARK   12  A    between atoms: C_13  and  C_14 
REMARK   13  A    between atoms: C_13  and  C_21 
REMARK   14  A    between atoms: C_14  and  N_26 
REMARK       I    between atoms: C_15  and  N_26 
ROOT
HETATM    1  C   UNK N   1       2.073  -1.588  -0.084  0.00  0.00     0.179 C 
HETATM    2  C   UNK N   1       3.270  -1.969  -0.919  0.00  0.00     0.037 C 
HETATM    3  C   UNK N   1       4.144  -0.704  -0.813  0.00  0.00     0.022 C 
HETATM    4  C   UNK N   1       3.163   0.459  -0.595  0.00  0.00     0.127 C 
HETATM    5  C   UNK N   1       0.705   0.454  -0.645  0.00  0.00     0.243 C 
HETATM    6  N   UNK N   1       1.894  -0.197  -0.417  0.00  0.00    -0.337 N 
HETATM    7  O   UNK N   1      -0.337  -0.173  -0.756  0.00  0.00    -0.271 OA
ENDROOT
BRANCH   1   8
HETATM    8  C   UNK N   1       0.850  -2.468  -0.100  0.00  0.00     0.240 C 
HETATM    9  N   UNK N   1      -0.114  -2.229   0.837  0.00  0.00    -0.358 N 
HETATM   10  H   UNK N   1       0.094  -1.468   1.427  0.00  0.00     0.162 HD
HETATM   11  O   UNK N   1       0.752  -3.363  -0.918  0.00  0.00    -0.271 OA
BRANCH   9  12
HETATM   12  C   UNK N   1      -1.388  -2.870   1.143  0.00  0.00     0.110 C 
BRANCH  12  13
HETATM   13  B   UNK N   1      -1.801  -4.275   0.461  0.00  0.00     0.515 B 
BRANCH  13  14
HETATM   14  O   UNK N   1      -0.830  -5.130  -0.207  0.00  0.00    -0.436 OA
HETATM   15  H   UNK N   1      -1.000  -5.975  -0.652  0.00  0.00     0.184 HD
ENDBRANCH  13  14
BRANCH  13  16
HETATM   16  O   UNK N   1      -3.099  -4.846   0.809  0.00  0.00    -0.436 OA
HETATM   17  H   UNK N   1      -3.858  -4.289   1.040  0.00  0.00     0.184 HD
ENDBRANCH  13  16
ENDBRANCH  12  13
BRANCH  12  18
HETATM   18  C   UNK N   1      -2.520  -1.850   1.012  0.00  0.00     0.020 C 
BRANCH  18  19
HETATM   19  C   UNK N   1      -2.879  -1.477  -0.420  0.00  0.00     0.003 C 
BRANCH  19  20
HETATM   20  C   UNK N   1      -4.195  -0.714  -0.425  0.00  0.00     0.019 C 
BRANCH  20  21
HETATM   21  C   UNK N   1      -5.384  -1.664  -0.477  0.00  0.00     0.111 C 
BRANCH  21  22
HETATM   22  N   UNK N   1      -5.477  -2.443   0.747  0.00  0.00    -0.430 N 
HETATM   23  H   UNK N   1      -5.983  -2.660   1.606  0.00  0.00     0.149 HD
HETATM   24  H   UNK N   1      -4.661  -3.054   0.747  0.00  0.00     0.149 HD
ENDBRANCH  21  22
ENDBRANCH  20  21
ENDBRANCH  19  20
ENDBRANCH  18  19
ENDBRANCH  12  18
ENDBRANCH   9  12
ENDBRANCH   1   8
BRANCH   5  25
HETATM   25  C   UNK N   1       0.650   1.958  -0.676  0.00  0.00     0.181 C 
BRANCH  25  26
HETATM   26  C   UNK N   1       1.179   2.403   0.692  0.00  0.00     0.073 C 
BRANCH  26  27
HETATM   27  C   UNK N   1       2.109   3.550   0.663  0.00  0.00    -0.056 A 
HETATM   28  C   UNK N   1       3.413   3.371   1.132  0.00  0.00     0.007 A 
HETATM   29  C   UNK N   1       4.301   4.446   1.153  0.00  0.00     0.001 A 
HETATM   30  C   UNK N   1       3.880   5.703   0.709  0.00  0.00     0.000 A 
HETATM   31  C   UNK N   1       2.573   5.882   0.243  0.00  0.00     0.001 A 
HETATM   32  C   UNK N   1       1.685   4.805   0.222  0.00  0.00     0.007 A 
ENDBRANCH  26  27
ENDBRANCH  25  26
BRANCH  25  33
HETATM   33  N   UNK N   1      -0.704   2.467  -0.866  0.00  0.00    -0.348 N 
HETATM   34  C   UNK N   1      -1.749   2.270  -0.007  0.00  0.00     0.214 C 
HETATM   35  C   UNK N   1      -1.597   1.497   1.270  0.00  0.00     0.117 C 
HETATM   36  O   UNK N   1      -2.840   2.741  -0.275  0.00  0.00    -0.274 OA
HETATM   37  H   UNK N   1      -0.880   2.994  -1.679  0.00  0.00     0.163 HD
ENDBRANCH  25  33
ENDBRANCH   5  25
TORSDOF 14
