REMARK  13 active torsions:
REMARK  status: ('A' for Active; 'I' for Inactive)
REMARK    1  A    between atoms: C_2  and  B_1 
REMARK    2  A    between atoms: B_1  and  O_26 
REMARK    3  A    between atoms: B_1  and  O_27 
REMARK    4  A    between atoms: C_2  and  C_3 
REMARK    5  A    between atoms: C_2  and  N_22 
REMARK    6  A    between atoms: C_3  and  C_4 
REMARK    7  A    between atoms: C_4  and  C_5 
REMARK    8  A    between atoms: C_5  and  N_23 
REMARK    9  A    between atoms: C_7  and  C_6 
REMARK       I    between atoms: C_6  and  N_22 
REMARK   10  A    between atoms: C_11  and  C_13 
REMARK       I    between atoms: C_11  and  N_24 
REMARK   11  A    between atoms: C_12  and  C_13 
REMARK   12  A    between atoms: C_12  and  C_20 
REMARK   13  A    between atoms: C_13  and  N_25 
REMARK       I    between atoms: C_14  and  N_25 
ROOT
HETATM    1  C   UNK N   1      -0.193  -1.918  -0.499  0.00  0.00     0.179 C 
HETATM    2  C   UNK N   1      -0.326  -2.884   0.657  0.00  0.00     0.037 C 
HETATM    3  C   UNK N   1       1.140  -3.166   1.034  0.00  0.00     0.022 C 
HETATM    4  C   UNK N   1       1.936  -1.951   0.546  0.00  0.00     0.127 C 
HETATM    5  C   UNK N   1       0.967   0.266   0.028  0.00  0.00     0.243 C 
HETATM    6  N   UNK N   1       0.945  -1.117  -0.063  0.00  0.00    -0.337 N 
HETATM    7  O   UNK N   1       0.019   0.911  -0.381  0.00  0.00    -0.271 OA
ENDROOT
BRANCH   1   8
HETATM    8  C   UNK N   1      -1.454  -1.178  -0.899  0.00  0.00     0.240 C 
HETATM    9  N   UNK N   1      -2.549  -1.126  -0.084  0.00  0.00    -0.358 N 
HETATM   10  H   UNK N   1      -2.548  -1.648   0.751  0.00  0.00     0.162 HD
HETATM   11  O   UNK N   1      -1.454  -0.577  -1.966  0.00  0.00    -0.271 OA
BRANCH   9  12
HETATM   12  C   UNK N   1      -3.720  -0.321  -0.411  0.00  0.00     0.110 C 
BRANCH  12  13
HETATM   13  B   UNK N   1      -3.880   0.895   0.626  0.00  0.00     0.515 B 
BRANCH  13  14
HETATM   14  O   UNK N   1      -2.671   1.637   0.974  0.00  0.00    -0.436 OA
HETATM   15  H   UNK N   1      -1.843   1.187   1.205  0.00  0.00     0.184 HD
ENDBRANCH  13  14
BRANCH  13  16
HETATM   16  O   UNK N   1      -5.127   1.656   0.570  0.00  0.00    -0.436 OA
HETATM   17  H   UNK N   1      -5.103   2.625   0.533  0.00  0.00     0.184 HD
ENDBRANCH  13  16
ENDBRANCH  12  13
BRANCH  12  18
HETATM   18  C   UNK N   1      -4.980  -1.182  -0.542  0.00  0.00     0.022 C 
BRANCH  18  19
HETATM   19  C   UNK N   1      -5.650  -1.552   0.776  0.00  0.00     0.020 C 
BRANCH  19  20
HETATM   20  C   UNK N   1      -7.161  -1.540   0.588  0.00  0.00     0.111 C 
BRANCH  20  21
HETATM   21  N   UNK N   1      -7.620  -0.207   0.224  0.00  0.00    -0.430 N 
HETATM   22  H   UNK N   1      -6.972   0.539  -0.031  0.00  0.00     0.149 HD
HETATM   23  H   UNK N   1      -8.621  -0.012   0.224  0.00  0.00     0.149 HD
ENDBRANCH  20  21
ENDBRANCH  19  20
ENDBRANCH  18  19
ENDBRANCH  12  18
ENDBRANCH   9  12
ENDBRANCH   1   8
BRANCH   5  24
HETATM   24  C   UNK N   1       2.094   1.084   0.673  0.00  0.00     0.181 C 
BRANCH  24  25
HETATM   25  C   UNK N   1       3.318   0.362   1.274  0.00  0.00     0.073 C 
BRANCH  25  26
HETATM   26  C   UNK N   1       4.611   0.399   0.507  0.00  0.00    -0.056 A 
HETATM   27  C   UNK N   1       5.191  -0.793   0.059  0.00  0.00     0.007 A 
HETATM   28  C   UNK N   1       6.436  -0.772  -0.580  0.00  0.00     0.001 A 
HETATM   29  C   UNK N   1       7.109   0.440  -0.764  0.00  0.00     0.000 A 
HETATM   30  C   UNK N   1       6.539   1.632  -0.308  0.00  0.00     0.001 A 
HETATM   31  C   UNK N   1       5.297   1.610   0.334  0.00  0.00     0.007 A 
ENDBRANCH  25  26
ENDBRANCH  24  25
BRANCH  24  32
HETATM   32  N   UNK N   1       2.498   2.147  -0.234  0.00  0.00    -0.348 N 
HETATM   33  C   UNK N   1       1.867   3.350  -0.332  0.00  0.00     0.214 C 
HETATM   34  C   UNK N   1       0.675   3.689   0.511  0.00  0.00     0.117 C 
HETATM   35  O   UNK N   1       2.274   4.175  -1.131  0.00  0.00    -0.274 OA
HETATM   36  H   UNK N   1       3.277   1.987  -0.814  0.00  0.00     0.163 HD
ENDBRANCH  24  32
ENDBRANCH   5  24
TORSDOF 13
