MODEL 1
REMARK VINA RESULT:      -5.6      0.000      0.000
REMARK  2 active torsions:
REMARK  status: ('A' for Active; 'I' for Inactive)
REMARK    1  A    between atoms: C_3  and  O_10 
REMARK    2  A    between atoms: C_6  and  O_9 
ROOT
HETATM    1  C   UNK N   1      35.142  11.125  17.270  0.00  0.00    -0.021 A 
HETATM    2  C   UNK N   1      35.357  11.290  18.639  0.00  0.00     0.049 A 
HETATM    3  C   UNK N   1      35.377  12.569  19.195  0.00  0.00     0.066 A 
HETATM    4  C   UNK N   1      35.182  13.692  18.384  0.00  0.00     0.037 A 
HETATM    5  C   UNK N   1      34.966  13.539  17.009  0.00  0.00     0.018 A 
HETATM    6  C   UNK N   1      34.729  12.075  15.066  0.00  0.00     0.076 A 
HETATM    7  C   UNK N   1      34.910   9.672  15.354  0.00  0.00     0.004 A 
HETATM    8  C   UNK N   1      35.124   9.843  16.723  0.00  0.00     0.012 A 
HETATM    9  C   UNK N   1      34.713  10.783  14.529  0.00  0.00     0.037 A 
HETATM   10  C   UNK N   1      34.944  12.256  16.443  0.00  0.00     0.007 A 
ENDROOT
BRANCH   3  11
HETATM   11  O   UNK N   1      35.584  12.718  20.512  0.00  0.00    -0.361 OA
HETATM   12  H   UNK N   1      35.608  11.967  21.071  0.00  0.00     0.217 HD
ENDBRANCH   3  11
BRANCH   6  13
HETATM   13  O   UNK N   1      34.538  13.131  14.255  0.00  0.00    -0.360 OA
HETATM   14  H   UNK N   1      35.015  13.197  13.452  0.00  0.00     0.217 HD
ENDBRANCH   6  13
TORSDOF 2
ENDMDL
MODEL 2
REMARK VINA RESULT:      -5.4     11.088     13.470
REMARK  2 active torsions:
REMARK  status: ('A' for Active; 'I' for Inactive)
REMARK    1  A    between atoms: C_3  and  O_10 
REMARK    2  A    between atoms: C_6  and  O_9 
ROOT
HETATM    1  C   UNK N   1      31.148  17.158   6.048  0.00  0.00    -0.021 A 
HETATM    2  C   UNK N   1      30.357  16.905   4.927  0.00  0.00     0.049 A 
HETATM    3  C   UNK N   1      30.921  16.935   3.651  0.00  0.00     0.066 A 
HETATM    4  C   UNK N   1      32.282  17.219   3.489  0.00  0.00     0.037 A 
HETATM    5  C   UNK N   1      33.084  17.475   4.607  0.00  0.00     0.018 A 
HETATM    6  C   UNK N   1      33.310  17.700   7.031  0.00  0.00     0.076 A 
HETATM    7  C   UNK N   1      31.363  17.379   8.444  0.00  0.00     0.004 A 
HETATM    8  C   UNK N   1      30.576  17.126   7.319  0.00  0.00     0.012 A 
HETATM    9  C   UNK N   1      32.724  17.665   8.300  0.00  0.00     0.037 A 
HETATM   10  C   UNK N   1      32.525  17.447   5.892  0.00  0.00     0.007 A 
ENDROOT
BRANCH   3  11
HETATM   11  O   UNK N   1      30.153  16.690   2.579  0.00  0.00    -0.361 OA
HETATM   12  H   UNK N   1      29.694  15.876   2.507  0.00  0.00     0.217 HD
ENDBRANCH   3  11
BRANCH   6  13
HETATM   13  O   UNK N   1      34.621  17.977   6.914  0.00  0.00    -0.360 OA
HETATM   14  H   UNK N   1      35.158  17.466   6.340  0.00  0.00     0.217 HD
ENDBRANCH   6  13
TORSDOF 2
ENDMDL
MODEL 3
REMARK VINA RESULT:      -5.3      1.297      4.498
REMARK  2 active torsions:
REMARK  status: ('A' for Active; 'I' for Inactive)
REMARK    1  A    between atoms: C_3  and  O_10 
REMARK    2  A    between atoms: C_6  and  O_9 
ROOT
HETATM    1  C   UNK N   1      34.936  12.463  16.851  0.00  0.00    -0.021 A 
HETATM    2  C   UNK N   1      34.723  12.902  15.544  0.00  0.00     0.049 A 
HETATM    3  C   UNK N   1      34.534  11.976  14.518  0.00  0.00     0.066 A 
HETATM    4  C   UNK N   1      34.558  10.604  14.794  0.00  0.00     0.037 A 
HETATM    5  C   UNK N   1      34.771  10.154  16.102  0.00  0.00     0.018 A 
HETATM    6  C   UNK N   1      35.177  10.651  18.460  0.00  0.00     0.076 A 
HETATM    7  C   UNK N   1      35.337  12.963  19.181  0.00  0.00     0.004 A 
HETATM    8  C   UNK N   1      35.123  13.396  17.871  0.00  0.00     0.012 A 
HETATM    9  C   UNK N   1      35.364  11.596  19.474  0.00  0.00     0.037 A 
HETATM   10  C   UNK N   1      34.962  11.078  17.138  0.00  0.00     0.007 A 
ENDROOT
BRANCH   3  11
HETATM   11  O   UNK N   1      34.330  12.406  13.264  0.00  0.00    -0.361 OA
HETATM   12  H   UNK N   1      33.488  12.304  12.865  0.00  0.00     0.217 HD
ENDBRANCH   3  11
BRANCH   6  13
HETATM   13  O   UNK N   1      35.207   9.340  18.763  0.00  0.00    -0.360 OA
HETATM   14  H   UNK N   1      35.164   8.701  18.079  0.00  0.00     0.217 HD
ENDBRANCH   6  13
TORSDOF 2
ENDMDL
MODEL 4
REMARK VINA RESULT:      -5.3     12.786     14.516
REMARK  2 active torsions:
REMARK  status: ('A' for Active; 'I' for Inactive)
REMARK    1  A    between atoms: C_3  and  O_10 
REMARK    2  A    between atoms: C_6  and  O_9 
ROOT
HETATM    1  C   UNK N   1      22.467  13.087   9.397  0.00  0.00    -0.021 A 
HETATM    2  C   UNK N   1      22.343  13.661   8.131  0.00  0.00     0.049 A 
HETATM    3  C   UNK N   1      23.483  14.009   7.406  0.00  0.00     0.066 A 
HETATM    4  C   UNK N   1      24.755  13.785   7.944  0.00  0.00     0.037 A 
HETATM    5  C   UNK N   1      24.891  13.210   9.213  0.00  0.00     0.018 A 
HETATM    6  C   UNK N   1      23.860  12.279  11.224  0.00  0.00     0.076 A 
HETATM    7  C   UNK N   1      21.440  12.168  11.381  0.00  0.00     0.004 A 
HETATM    8  C   UNK N   1      21.323  12.742  10.114  0.00  0.00     0.012 A 
HETATM    9  C   UNK N   1      22.704  11.937  11.934  0.00  0.00     0.037 A 
HETATM   10  C   UNK N   1      23.751  12.857   9.948  0.00  0.00     0.007 A 
ENDROOT
BRANCH   3  11
HETATM   11  O   UNK N   1      23.355  14.559   6.190  0.00  0.00    -0.361 OA
HETATM   12  H   UNK N   1      23.595  15.455   6.053  0.00  0.00     0.217 HD
ENDBRANCH   3  11
BRANCH   6  13
HETATM   13  O   UNK N   1      25.066  12.049  11.773  0.00  0.00    -0.360 OA
HETATM   14  H   UNK N   1      25.505  11.236  11.615  0.00  0.00     0.217 HD
ENDBRANCH   6  13
TORSDOF 2
ENDMDL
MODEL 5
REMARK VINA RESULT:      -5.2     12.739     13.939
REMARK  2 active torsions:
REMARK  status: ('A' for Active; 'I' for Inactive)
REMARK    1  A    between atoms: C_3  and  O_10 
REMARK    2  A    between atoms: C_6  and  O_9 
ROOT
HETATM    1  C   UNK N   1      23.842  12.473  10.247  0.00  0.00    -0.021 A 
HETATM    2  C   UNK N   1      24.223  12.236  11.568  0.00  0.00     0.049 A 
HETATM    3  C   UNK N   1      23.255  11.981  12.540  0.00  0.00     0.066 A 
HETATM    4  C   UNK N   1      21.899  11.961  12.195  0.00  0.00     0.037 A 
HETATM    5  C   UNK N   1      21.506  12.197  10.873  0.00  0.00     0.018 A 
HETATM    6  C   UNK N   1      22.103  12.695   8.555  0.00  0.00     0.076 A 
HETATM    7  C   UNK N   1      24.441  12.964   7.958  0.00  0.00     0.004 A 
HETATM    8  C   UNK N   1      24.816  12.727   9.282  0.00  0.00     0.012 A 
HETATM    9  C   UNK N   1      23.090  12.948   7.597  0.00  0.00     0.037 A 
HETATM   10  C   UNK N   1      22.472  12.454   9.891  0.00  0.00     0.007 A 
ENDROOT
BRANCH   3  11
HETATM   11  O   UNK N   1      23.630  11.754  13.808  0.00  0.00    -0.361 OA
HETATM   12  H   UNK N   1      24.191  11.031  14.009  0.00  0.00     0.217 HD
ENDBRANCH   3  11
BRANCH   6  13
HETATM   13  O   UNK N   1      20.810  12.684   8.188  0.00  0.00    -0.360 OA
HETATM   14  H   UNK N   1      20.422  11.895   7.864  0.00  0.00     0.217 HD
ENDBRANCH   6  13
TORSDOF 2
ENDMDL
MODEL 6
REMARK VINA RESULT:      -5.2     28.717     29.418
REMARK  2 active torsions:
REMARK  status: ('A' for Active; 'I' for Inactive)
REMARK    1  A    between atoms: C_3  and  O_10 
REMARK    2  A    between atoms: C_6  and  O_9 
ROOT
HETATM    1  C   UNK N   1      27.068  28.063  -6.312  0.00  0.00    -0.021 A 
HETATM    2  C   UNK N   1      26.702  26.937  -7.052  0.00  0.00     0.049 A 
HETATM    3  C   UNK N   1      25.587  26.188  -6.679  0.00  0.00     0.066 A 
HETATM    4  C   UNK N   1      24.829  26.560  -5.562  0.00  0.00     0.037 A 
HETATM    5  C   UNK N   1      25.188  27.687  -4.814  0.00  0.00     0.018 A 
HETATM    6  C   UNK N   1      26.688  29.582  -4.447  0.00  0.00     0.076 A 
HETATM    7  C   UNK N   1      28.555  29.933  -5.957  0.00  0.00     0.004 A 
HETATM    8  C   UNK N   1      28.184  28.806  -6.693  0.00  0.00     0.012 A 
HETATM    9  C   UNK N   1      27.810  30.319  -4.839  0.00  0.00     0.037 A 
HETATM   10  C   UNK N   1      26.307  28.445  -5.182  0.00  0.00     0.007 A 
ENDROOT
BRANCH   3  11
HETATM   11  O   UNK N   1      25.242  25.107  -7.395  0.00  0.00    -0.361 OA
HETATM   12  H   UNK N   1      25.616  24.272  -7.193  0.00  0.00     0.217 HD
ENDBRANCH   3  11
BRANCH   6  13
HETATM   13  O   UNK N   1      25.984  29.969  -3.368  0.00  0.00    -0.360 OA
HETATM   14  H   UNK N   1      26.227  30.746  -2.905  0.00  0.00     0.217 HD
ENDBRANCH   6  13
TORSDOF 2
ENDMDL
MODEL 7
REMARK VINA RESULT:      -5.1     11.358     12.279
REMARK  2 active torsions:
REMARK  status: ('A' for Active; 'I' for Inactive)
REMARK    1  A    between atoms: C_3  and  O_10 
REMARK    2  A    between atoms: C_6  and  O_9 
ROOT
HETATM    1  C   UNK N   1      30.847  17.800   8.101  0.00  0.00    -0.021 A 
HETATM    2  C   UNK N   1      29.797  18.071   8.979  0.00  0.00     0.049 A 
HETATM    3  C   UNK N   1      28.483  17.793   8.604  0.00  0.00     0.066 A 
HETATM    4  C   UNK N   1      28.210  17.242   7.347  0.00  0.00     0.037 A 
HETATM    5  C   UNK N   1      29.256  16.966   6.459  0.00  0.00     0.018 A 
HETATM    6  C   UNK N   1      31.648  16.975   5.954  0.00  0.00     0.076 A 
HETATM    7  C   UNK N   1      33.213  17.812   7.609  0.00  0.00     0.004 A 
HETATM    8  C   UNK N   1      32.158  18.081   8.484  0.00  0.00     0.012 A 
HETATM    9  C   UNK N   1      32.958  17.262   6.350  0.00  0.00     0.037 A 
HETATM   10  C   UNK N   1      30.580  17.243   6.828  0.00  0.00     0.007 A 
ENDROOT
BRANCH   3  11
HETATM   11  O   UNK N   1      27.479  18.057   9.454  0.00  0.00    -0.361 OA
HETATM   12  H   UNK N   1      26.951  18.822   9.334  0.00  0.00     0.217 HD
ENDBRANCH   3  11
BRANCH   6  13
HETATM   13  O   UNK N   1      31.424  16.445   4.738  0.00  0.00    -0.360 OA
HETATM   14  H   UNK N   1      30.596  16.052   4.544  0.00  0.00     0.217 HD
ENDBRANCH   6  13
TORSDOF 2
ENDMDL
MODEL 8
REMARK VINA RESULT:      -5.1      1.074      3.869
REMARK  2 active torsions:
REMARK  status: ('A' for Active; 'I' for Inactive)
REMARK    1  A    between atoms: C_3  and  O_10 
REMARK    2  A    between atoms: C_6  and  O_9 
ROOT
HETATM    1  C   UNK N   1      34.988  10.751  17.266  0.00  0.00    -0.021 A 
HETATM    2  C   UNK N   1      34.683  10.905  15.913  0.00  0.00     0.049 A 
HETATM    3  C   UNK N   1      34.589  12.182  15.358  0.00  0.00     0.066 A 
HETATM    4  C   UNK N   1      34.801  13.313  16.154  0.00  0.00     0.037 A 
HETATM    5  C   UNK N   1      35.108  13.170  17.513  0.00  0.00     0.018 A 
HETATM    6  C   UNK N   1      35.510  11.720  19.439  0.00  0.00     0.076 A 
HETATM    7  C   UNK N   1      35.385   9.311  19.165  0.00  0.00     0.004 A 
HETATM    8  C   UNK N   1      35.080   9.472  17.812  0.00  0.00     0.012 A 
HETATM    9  C   UNK N   1      35.599  10.431  19.974  0.00  0.00     0.037 A 
HETATM   10  C   UNK N   1      35.204  11.890  18.077  0.00  0.00     0.007 A 
ENDROOT
BRANCH   3  11
HETATM   11  O   UNK N   1      34.296  12.321  14.057  0.00  0.00    -0.361 OA
HETATM   12  H   UNK N   1      33.858  13.092  13.755  0.00  0.00     0.217 HD
ENDBRANCH   3  11
BRANCH   6  13
HETATM   13  O   UNK N   1      35.720  12.784  20.234  0.00  0.00    -0.360 OA
HETATM   14  H   UNK N   1      35.290  12.839  21.065  0.00  0.00     0.217 HD
ENDBRANCH   6  13
TORSDOF 2
ENDMDL
MODEL 9
REMARK VINA RESULT:      -5.1      1.825      2.659
REMARK  2 active torsions:
REMARK  status: ('A' for Active; 'I' for Inactive)
REMARK    1  A    between atoms: C_3  and  O_10 
REMARK    2  A    between atoms: C_6  and  O_9 
ROOT
HETATM    1  C   UNK N   1      35.508  12.639  17.179  0.00  0.00    -0.021 A 
HETATM    2  C   UNK N   1      35.081  13.395  18.271  0.00  0.00     0.049 A 
HETATM    3  C   UNK N   1      35.021  12.819  19.540  0.00  0.00     0.066 A 
HETATM    4  C   UNK N   1      35.390  11.482  19.724  0.00  0.00     0.037 A 
HETATM    5  C   UNK N   1      35.820  10.715  18.635  0.00  0.00     0.018 A 
HETATM    6  C   UNK N   1      36.310  10.537  16.247  0.00  0.00     0.076 A 
HETATM    7  C   UNK N   1      35.991  12.472  14.817  0.00  0.00     0.004 A 
HETATM    8  C   UNK N   1      35.564  13.224  15.914  0.00  0.00     0.012 A 
HETATM    9  C   UNK N   1      36.362  11.135  14.984  0.00  0.00     0.037 A 
HETATM   10  C   UNK N   1      35.882  11.286  17.357  0.00  0.00     0.007 A 
ENDROOT
BRANCH   3  11
HETATM   11  O   UNK N   1      34.610  13.553  20.584  0.00  0.00    -0.361 OA
HETATM   12  H   UNK N   1      35.141  14.257  20.901  0.00  0.00     0.217 HD
ENDBRANCH   3  11
BRANCH   6  13
HETATM   13  O   UNK N   1      36.672   9.249  16.386  0.00  0.00    -0.360 OA
HETATM   14  H   UNK N   1      37.136   8.816  15.697  0.00  0.00     0.217 HD
ENDBRANCH   6  13
TORSDOF 2
ENDMDL
