REMARK  4 active torsions:
REMARK  status: ('A' for Active; 'I' for Inactive)
REMARK    1  A    between atoms: C_2  and  C_3 
REMARK       I    between atoms: C_3  and  N_5 
REMARK    2  A    between atoms: N_5  and  C_6 
REMARK    3  A    between atoms: C_12  and  N_18 
REMARK    4  A    between atoms: N_18  and  C_19 
ROOT
HETATM    1  C   UNK N   1      -1.052   1.219   0.000  0.00  0.00     0.036 A 
HETATM    2  C   UNK N   1       0.168   0.556  -0.000  0.00  0.00     0.047 A 
HETATM    3  C   UNK N   1      -1.071   2.628   0.000  0.00  0.00     0.032 A 
HETATM    4  C   UNK N   1       0.135   3.350   0.000  0.00  0.00     0.033 A 
HETATM    5  C   UNK N   1       1.358   2.666  -0.000  0.00  0.00     0.047 A 
HETATM    6  C   UNK N   1       1.368   1.264  -0.000  0.00  0.00     0.037 A 
HETATM    7  C   UNK N   1       2.588   0.592  -0.000  0.00  0.00     0.119 A 
HETATM    8  N   UNK N   1       3.745   1.313  -0.000  0.00  0.00    -0.338 N 
ATOM      9  HN  UNK N   1       4.641   0.826  -0.000  1.00  0.00     0.168 HD
HETATM   10  C   UNK N   1       3.722   2.675  -0.000  0.00  0.00     0.182 A 
HETATM   11  N   UNK N   1       2.536   3.345  -0.000  0.00  0.00    -0.352 N 
ATOM     12  HN  UNK N   1       2.531   4.365  -0.000  1.00  0.00     0.166 HD
ENDROOT
BRANCH   7  13
HETATM   13  N   UNK N   1       2.591  -0.832  -0.000  0.00  0.00    -0.342 N 
HETATM   14  H   UNK N   1       1.709  -1.270  -0.000  0.00  0.00     0.167 HD
BRANCH  13  15
HETATM   15  C   UNK N   1       3.718  -1.692  -0.000  0.00  0.00     0.034 A 
HETATM   16  C   UNK N   1       5.029  -1.198   0.000  0.00  0.00     0.048 A 
HETATM   17  C   UNK N   1       6.111  -2.081   0.000  0.00  0.00     0.013 A 
HETATM   18  C   UNK N   1       5.889  -3.461   0.000  0.00  0.00     0.019 A 
HETATM   19 Br   UNK N   1       7.887  -1.398   0.000  0.00  0.00    -0.051 Br
HETATM   20  C   UNK N   1       4.584  -3.958  -0.000  0.00  0.00     0.004 A 
HETATM   21  C   UNK N   1       3.503  -3.075  -0.000  0.00  0.00     0.029 A 
ENDBRANCH  13  15
ENDBRANCH   7  13
BRANCH   1  22
HETATM   22  N   UNK N   1      -2.228   0.420   0.000  0.00  0.00    -0.324 N 
HETATM   23  C   UNK N   1      -3.514   0.845   0.000  0.00  0.00     0.244 C 
HETATM   24  O   UNK N   1      -3.789   2.036  -0.000  0.00  0.00    -0.268 OA
HETATM   25  H   UNK N   1      -2.092  -0.555   0.000  0.00  0.00     0.169 HD
BRANCH  23  26
HETATM   26  C   UNK N   1      -4.582  -0.171   0.000  0.00  0.00     0.064 C 
HETATM   27  C   UNK N   1      -5.872   0.155  -0.000  0.00  0.00     0.017 C 
ENDBRANCH  23  26
ENDBRANCH   1  22
TORSDOF 4
