MODEL 1
REMARK VINA RESULT:      -7.0      0.000      0.000
REMARK  4 active torsions:
REMARK  status: ('A' for Active; 'I' for Inactive)
REMARK    1  A    between atoms: C_2  and  C_3 
REMARK       I    between atoms: C_3  and  N_5 
REMARK    2  A    between atoms: N_5  and  C_6 
REMARK    3  A    between atoms: C_12  and  N_18 
REMARK    4  A    between atoms: N_18  and  C_19 
ROOT
HETATM    1  C   UNK N   1      26.437  27.880  -3.427  0.00  0.00     0.036 A 
HETATM    2  C   UNK N   1      26.934  26.584  -3.401  0.00  0.00     0.047 A 
HETATM    3  C   UNK N   1      25.545  28.256  -4.451  0.00  0.00     0.032 A 
HETATM    4  C   UNK N   1      25.166  27.326  -5.434  0.00  0.00     0.033 A 
HETATM    5  C   UNK N   1      25.677  26.021  -5.394  0.00  0.00     0.047 A 
HETATM    6  C   UNK N   1      26.564  25.655  -4.371  0.00  0.00     0.037 A 
HETATM    7  C   UNK N   1      27.066  24.357  -4.339  0.00  0.00     0.119 A 
HETATM    8  N   UNK N   1      26.685  23.471  -5.302  0.00  0.00    -0.338 N 
ATOM      9  HN  UNK N   1      27.050  22.519  -5.283  1.00  0.00     0.168 HD
HETATM   10  C   UNK N   1      25.823  23.839  -6.291  0.00  0.00     0.182 A 
HETATM   11  N   UNK N   1      25.323  25.106  -6.335  0.00  0.00    -0.352 N 
ATOM     12  HN  UNK N   1      24.678  25.370  -7.079  1.00  0.00     0.166 HD
ENDROOT
BRANCH   7  13
HETATM   13  N   UNK N   1      27.966  23.992  -3.298  0.00  0.00    -0.342 N 
HETATM   14  H   UNK N   1      27.604  24.009  -2.382  0.00  0.00     0.167 HD
BRANCH  13  15
HETATM   15  C   UNK N   1      29.324  23.605  -3.427  0.00  0.00     0.034 A 
HETATM   16  C   UNK N   1      30.255  24.385  -4.126  0.00  0.00     0.048 A 
HETATM   17  C   UNK N   1      31.583  23.967  -4.230  0.00  0.00     0.013 A 
HETATM   18  C   UNK N   1      31.988  22.768  -3.636  0.00  0.00     0.019 A 
HETATM   19 Br   UNK N   1      32.838  25.035  -5.182  0.00  0.00    -0.051 Br
HETATM   20  C   UNK N   1      31.064  21.987  -2.939  0.00  0.00     0.004 A 
HETATM   21  C   UNK N   1      29.737  22.406  -2.836  0.00  0.00     0.029 A 
ENDBRANCH  13  15
ENDBRANCH   7  13
BRANCH   1  22
HETATM   22  N   UNK N   1      26.866  28.764  -2.399  0.00  0.00    -0.324 N 
HETATM   23  C   UNK N   1      27.967  29.554  -2.397  0.00  0.00     0.244 C 
HETATM   24  O   UNK N   1      28.736  29.573  -3.346  0.00  0.00    -0.268 OA
HETATM   25  H   UNK N   1      26.299  28.806  -1.596  0.00  0.00     0.169 HD
BRANCH  23  26
HETATM   26  C   UNK N   1      28.216  30.395  -1.213  0.00  0.00     0.064 C 
HETATM   27  C   UNK N   1      28.388  29.879   0.002  0.00  0.00     0.017 C 
ENDBRANCH  23  26
ENDBRANCH   1  22
TORSDOF 4
ENDMDL
MODEL 2
REMARK VINA RESULT:      -6.9     17.281     20.174
REMARK  4 active torsions:
REMARK  status: ('A' for Active; 'I' for Inactive)
REMARK    1  A    between atoms: C_2  and  C_3 
REMARK       I    between atoms: C_3  and  N_5 
REMARK    2  A    between atoms: N_5  and  C_6 
REMARK    3  A    between atoms: C_12  and  N_18 
REMARK    4  A    between atoms: N_18  and  C_19 
ROOT
HETATM    1  C   UNK N   1      33.906  15.663   8.723  0.00  0.00     0.036 A 
HETATM    2  C   UNK N   1      34.676  15.418   9.853  0.00  0.00     0.047 A 
HETATM    3  C   UNK N   1      34.367  15.225   7.466  0.00  0.00     0.032 A 
HETATM    4  C   UNK N   1      35.594  14.547   7.362  0.00  0.00     0.033 A 
HETATM    5  C   UNK N   1      36.359  14.307   8.511  0.00  0.00     0.047 A 
HETATM    6  C   UNK N   1      35.893  14.747   9.758  0.00  0.00     0.037 A 
HETATM    7  C   UNK N   1      36.660  14.505  10.895  0.00  0.00     0.119 A 
HETATM    8  N   UNK N   1      37.846  13.845  10.770  0.00  0.00    -0.338 N 
ATOM      9  HN  UNK N   1      38.412  13.665  11.599  1.00  0.00     0.168 HD
HETATM   10  C   UNK N   1      38.288  13.423   9.552  0.00  0.00     0.182 A 
HETATM   11  N   UNK N   1      37.549  13.654   8.432  0.00  0.00    -0.352 N 
ATOM     12  HN  UNK N   1      37.890  13.333   7.526  1.00  0.00     0.166 HD
ENDROOT
BRANCH   7  13
HETATM   13  N   UNK N   1      36.180  14.954  12.159  0.00  0.00    -0.342 N 
HETATM   14  H   UNK N   1      35.964  15.912  12.228  0.00  0.00     0.167 HD
BRANCH  13  15
HETATM   15  C   UNK N   1      35.979  14.180  13.329  0.00  0.00     0.034 A 
HETATM   16  C   UNK N   1      35.123  13.071  13.348  0.00  0.00     0.048 A 
HETATM   17  C   UNK N   1      34.953  12.336  14.523  0.00  0.00     0.013 A 
HETATM   18  C   UNK N   1      35.637  12.705  15.685  0.00  0.00     0.019 A 
HETATM   19 Br   UNK N   1      33.788  10.832  14.537  0.00  0.00    -0.051 Br
HETATM   20  C   UNK N   1      36.492  13.809  15.671  0.00  0.00     0.004 A 
HETATM   21  C   UNK N   1      36.661  14.543  14.496  0.00  0.00     0.029 A 
ENDBRANCH  13  15
ENDBRANCH   7  13
BRANCH   1  22
HETATM   22  N   UNK N   1      32.677  16.354   8.910  0.00  0.00    -0.324 N 
HETATM   23  C   UNK N   1      32.372  17.615   8.518  0.00  0.00     0.244 C 
HETATM   24  O   UNK N   1      33.186  18.311   7.930  0.00  0.00    -0.268 OA
HETATM   25  H   UNK N   1      31.966  15.860   9.377  0.00  0.00     0.169 HD
BRANCH  23  26
HETATM   26  C   UNK N   1      31.024  18.129   8.820  0.00  0.00     0.064 C 
HETATM   27  C   UNK N   1      30.004  17.324   9.102  0.00  0.00     0.017 C 
ENDBRANCH  23  26
ENDBRANCH   1  22
TORSDOF 4
ENDMDL
MODEL 3
REMARK VINA RESULT:      -6.7     11.384     14.571
REMARK  4 active torsions:
REMARK  status: ('A' for Active; 'I' for Inactive)
REMARK    1  A    between atoms: C_2  and  C_3 
REMARK       I    between atoms: C_3  and  N_5 
REMARK    2  A    between atoms: N_5  and  C_6 
REMARK    3  A    between atoms: C_12  and  N_18 
REMARK    4  A    between atoms: N_18  and  C_19 
ROOT
HETATM    1  C   UNK N   1      32.000  17.170   5.975  0.00  0.00     0.036 A 
HETATM    2  C   UNK N   1      30.611  17.192   6.004  0.00  0.00     0.047 A 
HETATM    3  C   UNK N   1      32.719  17.448   7.154  0.00  0.00     0.032 A 
HETATM    4  C   UNK N   1      32.033  17.744   8.345  0.00  0.00     0.033 A 
HETATM    5  C   UNK N   1      30.632  17.762   8.358  0.00  0.00     0.047 A 
HETATM    6  C   UNK N   1      29.924  17.484   7.181  0.00  0.00     0.037 A 
HETATM    7  C   UNK N   1      28.532  17.504   7.202  0.00  0.00     0.119 A 
HETATM    8  N   UNK N   1      27.889  17.794   8.369  0.00  0.00    -0.338 N 
ATOM      9  HN  UNK N   1      26.869  17.810   8.390  1.00  0.00     0.168 HD
HETATM   10  C   UNK N   1      28.588  18.062   9.507  0.00  0.00     0.182 A 
HETATM   11  N   UNK N   1      29.950  18.046   9.500  0.00  0.00    -0.352 N 
ATOM     12  HN  UNK N   1      30.463  18.248  10.358  1.00  0.00     0.166 HD
ENDROOT
BRANCH   7  13
HETATM   13  N   UNK N   1      27.819  17.221   6.002  0.00  0.00    -0.342 N 
HETATM   14  H   UNK N   1      27.845  16.288   5.690  0.00  0.00     0.167 HD
BRANCH  13  15
HETATM   15  C   UNK N   1      27.077  18.129   5.206  0.00  0.00     0.034 A 
HETATM   16  C   UNK N   1      25.696  17.992   5.016  0.00  0.00     0.048 A 
HETATM   17  C   UNK N   1      25.003  18.909   4.223  0.00  0.00     0.013 A 
HETATM   18  C   UNK N   1      25.686  19.967   3.616  0.00  0.00     0.019 A 
HETATM   19 Br   UNK N   1      23.127  18.713   3.972  0.00  0.00    -0.051 Br
HETATM   20  C   UNK N   1      27.063  20.107   3.802  0.00  0.00     0.004 A 
HETATM   21  C   UNK N   1      27.755  19.190   4.595  0.00  0.00     0.029 A 
ENDBRANCH  13  15
ENDBRANCH   7  13
BRANCH   1  22
HETATM   22  N   UNK N   1      32.620  16.862   4.733  0.00  0.00    -0.324 N 
HETATM   23  C   UNK N   1      32.921  15.636   4.243  0.00  0.00     0.244 C 
HETATM   24  O   UNK N   1      32.664  14.620   4.872  0.00  0.00    -0.268 OA
HETATM   25  H   UNK N   1      32.860  17.629   4.164  0.00  0.00     0.169 HD
BRANCH  23  26
HETATM   26  C   UNK N   1      33.569  15.556   2.921  0.00  0.00     0.064 C 
HETATM   27  C   UNK N   1      34.158  14.445   2.486  0.00  0.00     0.017 C 
ENDBRANCH  23  26
ENDBRANCH   1  22
TORSDOF 4
ENDMDL
MODEL 4
REMARK VINA RESULT:      -6.7      2.995      6.257
REMARK  4 active torsions:
REMARK  status: ('A' for Active; 'I' for Inactive)
REMARK    1  A    between atoms: C_2  and  C_3 
REMARK       I    between atoms: C_3  and  N_5 
REMARK    2  A    between atoms: N_5  and  C_6 
REMARK    3  A    between atoms: C_12  and  N_18 
REMARK    4  A    between atoms: N_18  and  C_19 
ROOT
HETATM    1  C   UNK N   1      30.133  25.136  -3.776  0.00  0.00     0.036 A 
HETATM    2  C   UNK N   1      28.803  25.296  -4.140  0.00  0.00     0.047 A 
HETATM    3  C   UNK N   1      30.889  26.268  -3.410  0.00  0.00     0.032 A 
HETATM    4  C   UNK N   1      30.297  27.543  -3.416  0.00  0.00     0.033 A 
HETATM    5  C   UNK N   1      28.953  27.687  -3.786  0.00  0.00     0.047 A 
HETATM    6  C   UNK N   1      28.209  26.556  -4.148  0.00  0.00     0.037 A 
HETATM    7  C   UNK N   1      26.873  26.708  -4.514  0.00  0.00     0.119 A 
HETATM    8  N   UNK N   1      26.321  27.954  -4.512  0.00  0.00    -0.338 N 
ATOM      9  HN  UNK N   1      25.343  28.071  -4.779  1.00  0.00     0.168 HD
HETATM   10  C   UNK N   1      27.054  29.046  -4.158  0.00  0.00     0.182 A 
HETATM   11  N   UNK N   1      28.361  28.911  -3.798  0.00  0.00    -0.352 N 
ATOM     12  HN  UNK N   1      28.901  29.736  -3.534  1.00  0.00     0.166 HD
ENDROOT
BRANCH   7  13
HETATM   13  N   UNK N   1      26.123  25.555  -4.881  0.00  0.00    -0.342 N 
HETATM   14  H   UNK N   1      25.682  25.070  -4.146  0.00  0.00     0.167 HD
BRANCH  13  15
HETATM   15  C   UNK N   1      25.938  25.024  -6.182  0.00  0.00     0.034 A 
HETATM   16  C   UNK N   1      25.790  23.649  -6.410  0.00  0.00     0.048 A 
HETATM   17  C   UNK N   1      25.611  23.169  -7.708  0.00  0.00     0.013 A 
HETATM   18  C   UNK N   1      25.578  24.058  -8.786  0.00  0.00     0.019 A 
HETATM   19 Br   UNK N   1      25.411  21.300  -8.005  0.00  0.00    -0.051 Br
HETATM   20  C   UNK N   1      25.725  25.429  -8.564  0.00  0.00     0.004 A 
HETATM   21  C   UNK N   1      25.904  25.909  -7.266  0.00  0.00     0.029 A 
ENDBRANCH  13  15
ENDBRANCH   7  13
BRANCH   1  22
HETATM   22  N   UNK N   1      30.660  23.816  -3.795  0.00  0.00    -0.324 N 
HETATM   23  C   UNK N   1      30.808  22.971  -2.746  0.00  0.00     0.244 C 
HETATM   24  O   UNK N   1      30.477  23.298  -1.616  0.00  0.00    -0.268 OA
HETATM   25  H   UNK N   1      30.952  23.476  -4.672  0.00  0.00     0.169 HD
BRANCH  23  26
HETATM   26  C   UNK N   1      31.383  21.638  -3.003  0.00  0.00     0.064 C 
HETATM   27  C   UNK N   1      30.864  20.802  -3.898  0.00  0.00     0.017 C 
ENDBRANCH  23  26
ENDBRANCH   1  22
TORSDOF 4
ENDMDL
MODEL 5
REMARK VINA RESULT:      -6.5     17.732     20.865
REMARK  4 active torsions:
REMARK  status: ('A' for Active; 'I' for Inactive)
REMARK    1  A    between atoms: C_2  and  C_3 
REMARK       I    between atoms: C_3  and  N_5 
REMARK    2  A    between atoms: N_5  and  C_6 
REMARK    3  A    between atoms: C_12  and  N_18 
REMARK    4  A    between atoms: N_18  and  C_19 
ROOT
HETATM    1  C   UNK N   1      36.643  13.357  12.884  0.00  0.00     0.036 A 
HETATM    2  C   UNK N   1      35.638  13.752  12.011  0.00  0.00     0.047 A 
HETATM    3  C   UNK N   1      37.359  12.172  12.621  0.00  0.00     0.032 A 
HETATM    4  C   UNK N   1      37.054  11.401  11.486  0.00  0.00     0.033 A 
HETATM    5  C   UNK N   1      36.037  11.813  10.615  0.00  0.00     0.047 A 
HETATM    6  C   UNK N   1      35.330  12.994  10.884  0.00  0.00     0.037 A 
HETATM    7  C   UNK N   1      34.320  13.396  10.013  0.00  0.00     0.119 A 
HETATM    8  N   UNK N   1      34.042  12.632   8.918  0.00  0.00    -0.338 N 
ATOM      9  HN  UNK N   1      33.304  12.922   8.277  1.00  0.00     0.168 HD
HETATM   10  C   UNK N   1      34.736  11.487   8.668  0.00  0.00     0.182 A 
HETATM   11  N   UNK N   1      35.726  11.082   9.511  0.00  0.00    -0.352 N 
ATOM     12  HN  UNK N   1      36.239  10.223   9.314  1.00  0.00     0.166 HD
ENDROOT
BRANCH   7  13
HETATM   13  N   UNK N   1      33.606  14.596  10.292  0.00  0.00    -0.342 N 
HETATM   14  H   UNK N   1      33.213  14.670  11.192  0.00  0.00     0.167 HD
BRANCH  13  15
HETATM   15  C   UNK N   1      33.395  15.696   9.423  0.00  0.00     0.034 A 
HETATM   16  C   UNK N   1      32.221  15.834   8.671  0.00  0.00     0.048 A 
HETATM   17  C   UNK N   1      32.055  16.934   7.827  0.00  0.00     0.013 A 
HETATM   18  C   UNK N   1      33.060  17.901   7.729  0.00  0.00     0.019 A 
HETATM   19 Br   UNK N   1      30.456  17.112   6.811  0.00  0.00    -0.051 Br
HETATM   20  C   UNK N   1      34.232  17.767   8.477  0.00  0.00     0.004 A 
HETATM   21  C   UNK N   1      34.398  16.668   9.320  0.00  0.00     0.029 A 
ENDBRANCH  13  15
ENDBRANCH   7  13
BRANCH   1  22
HETATM   22  N   UNK N   1      36.893  14.189  14.009  0.00  0.00    -0.324 N 
HETATM   23  C   UNK N   1      36.711  13.885  15.317  0.00  0.00     0.244 C 
HETATM   24  O   UNK N   1      36.287  12.791  15.661  0.00  0.00    -0.268 OA
HETATM   25  H   UNK N   1      37.237  15.091  13.816  0.00  0.00     0.169 HD
BRANCH  23  26
HETATM   26  C   UNK N   1      37.039  14.912  16.322  0.00  0.00     0.064 C 
HETATM   27  C   UNK N   1      37.536  16.100  15.987  0.00  0.00     0.017 C 
ENDBRANCH  23  26
ENDBRANCH   1  22
TORSDOF 4
ENDMDL
MODEL 6
REMARK VINA RESULT:      -6.4     12.747     14.517
REMARK  4 active torsions:
REMARK  status: ('A' for Active; 'I' for Inactive)
REMARK    1  A    between atoms: C_2  and  C_3 
REMARK       I    between atoms: C_3  and  N_5 
REMARK    2  A    between atoms: N_5  and  C_6 
REMARK    3  A    between atoms: C_12  and  N_18 
REMARK    4  A    between atoms: N_18  and  C_19 
ROOT
HETATM    1  C   UNK N   1      31.121  17.442   8.563  0.00  0.00     0.036 A 
HETATM    2  C   UNK N   1      30.695  16.759   7.432  0.00  0.00     0.047 A 
HETATM    3  C   UNK N   1      30.287  18.428   9.129  0.00  0.00     0.032 A 
HETATM    4  C   UNK N   1      29.038  18.712   8.550  0.00  0.00     0.033 A 
HETATM    5  C   UNK N   1      28.623  18.014   7.408  0.00  0.00     0.047 A 
HETATM    6  C   UNK N   1      29.458  17.035   6.852  0.00  0.00     0.037 A 
HETATM    7  C   UNK N   1      29.037  16.345   5.717  0.00  0.00     0.119 A 
HETATM    8  N   UNK N   1      27.822  16.638   5.173  0.00  0.00    -0.338 N 
ATOM      9  HN  UNK N   1      27.509  16.136   4.342  1.00  0.00     0.168 HD
HETATM   10  C   UNK N   1      27.020  17.591   5.723  0.00  0.00     0.182 A 
HETATM   11  N   UNK N   1      27.419  18.273   6.832  0.00  0.00    -0.352 N 
ATOM     12  HN  UNK N   1      26.809  18.985   7.235  1.00  0.00     0.166 HD
ENDROOT
BRANCH   7  13
HETATM   13  N   UNK N   1      29.891  15.352   5.158  0.00  0.00    -0.342 N 
HETATM   14  H   UNK N   1      29.637  14.415   5.323  0.00  0.00     0.167 HD
BRANCH  13  15
HETATM   15  C   UNK N   1      31.065  15.557   4.390  0.00  0.00     0.034 A 
HETATM   16  C   UNK N   1      32.116  14.632   4.379  0.00  0.00     0.048 A 
HETATM   17  C   UNK N   1      33.256  14.873   3.609  0.00  0.00     0.013 A 
HETATM   18  C   UNK N   1      33.350  16.040   2.845  0.00  0.00     0.019 A 
HETATM   19 Br   UNK N   1      34.677  13.608   3.602  0.00  0.00    -0.051 Br
HETATM   20  C   UNK N   1      32.305  16.966   2.852  0.00  0.00     0.004 A 
HETATM   21  C   UNK N   1      31.166  16.724   3.623  0.00  0.00     0.029 A 
ENDBRANCH  13  15
ENDBRANCH   7  13
BRANCH   1  22
HETATM   22  N   UNK N   1      32.396  17.099   9.091  0.00  0.00    -0.324 N 
HETATM   23  C   UNK N   1      33.604  17.569   8.700  0.00  0.00     0.244 C 
HETATM   24  O   UNK N   1      33.705  18.386   7.797  0.00  0.00    -0.268 OA
HETATM   25  H   UNK N   1      32.401  16.443   9.825  0.00  0.00     0.169 HD
BRANCH  23  26
HETATM   26  C   UNK N   1      34.803  17.068   9.395  0.00  0.00     0.064 C 
HETATM   27  C   UNK N   1      34.757  16.041  10.239  0.00  0.00     0.017 C 
ENDBRANCH  23  26
ENDBRANCH   1  22
TORSDOF 4
ENDMDL
MODEL 7
REMARK VINA RESULT:      -6.3      3.179      6.507
REMARK  4 active torsions:
REMARK  status: ('A' for Active; 'I' for Inactive)
REMARK    1  A    between atoms: C_2  and  C_3 
REMARK       I    between atoms: C_3  and  N_5 
REMARK    2  A    between atoms: N_5  and  C_6 
REMARK    3  A    between atoms: C_12  and  N_18 
REMARK    4  A    between atoms: N_18  and  C_19 
ROOT
HETATM    1  C   UNK N   1      29.837  22.247  -5.684  0.00  0.00     0.036 A 
HETATM    2  C   UNK N   1      28.820  23.152  -5.416  0.00  0.00     0.047 A 
HETATM    3  C   UNK N   1      29.720  21.386  -6.794  0.00  0.00     0.032 A 
HETATM    4  C   UNK N   1      28.583  21.449  -7.618  0.00  0.00     0.033 A 
HETATM    5  C   UNK N   1      27.565  22.369  -7.334  0.00  0.00     0.047 A 
HETATM    6  C   UNK N   1      27.690  23.221  -6.228  0.00  0.00     0.037 A 
HETATM    7  C   UNK N   1      26.673  24.132  -5.953  0.00  0.00     0.119 A 
HETATM    8  N   UNK N   1      25.579  24.175  -6.766  0.00  0.00    -0.338 N 
ATOM      9  HN  UNK N   1      24.832  24.840  -6.570  1.00  0.00     0.168 HD
HETATM   10  C   UNK N   1      25.470  23.341  -7.838  0.00  0.00     0.182 A 
HETATM   11  N   UNK N   1      26.457  22.445  -8.119  0.00  0.00    -0.352 N 
ATOM     12  HN  UNK N   1      26.365  21.826  -8.924  1.00  0.00     0.166 HD
ENDROOT
BRANCH   7  13
HETATM   13  N   UNK N   1      26.805  24.995  -4.828  0.00  0.00    -0.342 N 
HETATM   14  H   UNK N   1      26.920  24.557  -3.953  0.00  0.00     0.167 HD
BRANCH  13  15
HETATM   15  C   UNK N   1      26.792  26.412  -4.822  0.00  0.00     0.034 A 
HETATM   16  C   UNK N   1      27.629  27.167  -5.655  0.00  0.00     0.048 A 
HETATM   17  C   UNK N   1      27.583  28.562  -5.616  0.00  0.00     0.013 A 
HETATM   18  C   UNK N   1      26.702  29.210  -4.747  0.00  0.00     0.019 A 
HETATM   19 Br   UNK N   1      28.725  29.575  -6.752  0.00  0.00    -0.051 Br
HETATM   20  C   UNK N   1      25.866  28.463  -3.915  0.00  0.00     0.004 A 
HETATM   21  C   UNK N   1      25.912  27.068  -3.953  0.00  0.00     0.029 A 
ENDBRANCH  13  15
ENDBRANCH   7  13
BRANCH   1  22
HETATM   22  N   UNK N   1      30.955  22.243  -4.805  0.00  0.00    -0.324 N 
HETATM   23  C   UNK N   1      31.140  21.470  -3.708  0.00  0.00     0.244 C 
HETATM   24  O   UNK N   1      30.300  20.653  -3.359  0.00  0.00    -0.268 OA
HETATM   25  H   UNK N   1      31.678  22.876  -5.018  0.00  0.00     0.169 HD
BRANCH  23  26
HETATM   26  C   UNK N   1      32.386  21.639  -2.940  0.00  0.00     0.064 C 
HETATM   27  C   UNK N   1      33.477  20.920  -3.191  0.00  0.00     0.017 C 
ENDBRANCH  23  26
ENDBRANCH   1  22
TORSDOF 4
ENDMDL
MODEL 8
REMARK VINA RESULT:      -6.3     11.300     13.308
REMARK  4 active torsions:
REMARK  status: ('A' for Active; 'I' for Inactive)
REMARK    1  A    between atoms: C_2  and  C_3 
REMARK       I    between atoms: C_3  and  N_5 
REMARK    2  A    between atoms: N_5  and  C_6 
REMARK    3  A    between atoms: C_12  and  N_18 
REMARK    4  A    between atoms: N_18  and  C_19 
ROOT
HETATM    1  C   UNK N   1      22.074  14.989   2.267  0.00  0.00     0.036 A 
HETATM    2  C   UNK N   1      22.265  16.158   2.992  0.00  0.00     0.047 A 
HETATM    3  C   UNK N   1      20.929  14.860   1.457  0.00  0.00     0.032 A 
HETATM    4  C   UNK N   1      19.992  15.906   1.387  0.00  0.00     0.033 A 
HETATM    5  C   UNK N   1      20.200  17.079   2.125  0.00  0.00     0.047 A 
HETATM    6  C   UNK N   1      21.342  17.199   2.928  0.00  0.00     0.037 A 
HETATM    7  C   UNK N   1      21.540  18.368   3.659  0.00  0.00     0.119 A 
HETATM    8  N   UNK N   1      20.619  19.369   3.576  0.00  0.00    -0.338 N 
ATOM      9  HN  UNK N   1      20.759  20.228   4.108  1.00  0.00     0.168 HD
HETATM   10  C   UNK N   1      19.513  19.240   2.791  0.00  0.00     0.182 A 
HETATM   11  N   UNK N   1      19.306  18.102   2.071  0.00  0.00    -0.352 N 
ATOM     12  HN  UNK N   1      18.475  18.017   1.487  1.00  0.00     0.166 HD
ENDROOT
BRANCH   7  13
HETATM   13  N   UNK N   1      22.703  18.484   4.473  0.00  0.00    -0.342 N 
HETATM   14  H   UNK N   1      22.635  18.119   5.385  0.00  0.00     0.167 HD
BRANCH  13  15
HETATM   15  C   UNK N   1      23.947  19.065   4.122  0.00  0.00     0.034 A 
HETATM   16  C   UNK N   1      25.150  18.656   4.712  0.00  0.00     0.048 A 
HETATM   17  C   UNK N   1      26.355  19.256   4.337  0.00  0.00     0.013 A 
HETATM   18  C   UNK N   1      26.363  20.266   3.371  0.00  0.00     0.019 A 
HETATM   19 Br   UNK N   1      27.982  18.692   5.146  0.00  0.00    -0.051 Br
HETATM   20  C   UNK N   1      25.167  20.676   2.780  0.00  0.00     0.004 A 
HETATM   21  C   UNK N   1      23.963  20.077   3.155  0.00  0.00     0.029 A 
ENDBRANCH  13  15
ENDBRANCH   7  13
BRANCH   1  22
HETATM   22  N   UNK N   1      23.065  13.977   2.389  0.00  0.00    -0.324 N 
HETATM   23  C   UNK N   1      24.141  13.774   1.591  0.00  0.00     0.244 C 
HETATM   24  O   UNK N   1      24.364  14.497   0.631  0.00  0.00    -0.268 OA
HETATM   25  H   UNK N   1      22.957  13.350   3.141  0.00  0.00     0.169 HD
BRANCH  23  26
HETATM   26  C   UNK N   1      25.042  12.653   1.911  0.00  0.00     0.064 C 
HETATM   27  C   UNK N   1      25.187  11.606   1.102  0.00  0.00     0.017 C 
ENDBRANCH  23  26
ENDBRANCH   1  22
TORSDOF 4
ENDMDL
MODEL 9
REMARK VINA RESULT:      -6.2     11.350     13.955
REMARK  4 active torsions:
REMARK  status: ('A' for Active; 'I' for Inactive)
REMARK    1  A    between atoms: C_2  and  C_3 
REMARK       I    between atoms: C_3  and  N_5 
REMARK    2  A    between atoms: N_5  and  C_6 
REMARK    3  A    between atoms: C_12  and  N_18 
REMARK    4  A    between atoms: N_18  and  C_19 
ROOT
HETATM    1  C   UNK N   1      28.210  18.253   7.073  0.00  0.00     0.036 A 
HETATM    2  C   UNK N   1      29.342  17.780   6.422  0.00  0.00     0.047 A 
HETATM    3  C   UNK N   1      28.178  18.263   8.482  0.00  0.00     0.032 A 
HETATM    4  C   UNK N   1      29.283  17.798   9.216  0.00  0.00     0.033 A 
HETATM    5  C   UNK N   1      30.418  17.324   8.544  0.00  0.00     0.047 A 
HETATM    6  C   UNK N   1      30.442  17.317   7.143  0.00  0.00     0.037 A 
HETATM    7  C   UNK N   1      31.574  16.844   6.483  0.00  0.00     0.119 A 
HETATM    8  N   UNK N   1      32.633  16.398   7.216  0.00  0.00    -0.338 N 
ATOM      9  HN  UNK N   1      33.464  16.051   6.738  1.00  0.00     0.168 HD
HETATM   10  C   UNK N   1      32.598  16.410   8.578  0.00  0.00     0.182 A 
HETATM   11  N   UNK N   1      31.497  16.870   9.235  0.00  0.00    -0.352 N 
ATOM     12  HN  UNK N   1      31.482  16.874  10.255  1.00  0.00     0.166 HD
ENDROOT
BRANCH   7  13
HETATM   13  N   UNK N   1      31.591  16.840   5.059  0.00  0.00    -0.342 N 
HETATM   14  H   UNK N   1      31.236  17.645   4.616  0.00  0.00     0.167 HD
BRANCH  13  15
HETATM   15  C   UNK N   1      32.060  15.810   4.205  0.00  0.00     0.034 A 
HETATM   16  C   UNK N   1      31.326  14.638   3.983  0.00  0.00     0.048 A 
HETATM   17  C   UNK N   1      31.826  13.648   3.134  0.00  0.00     0.013 A 
HETATM   18  C   UNK N   1      33.061  13.825   2.503  0.00  0.00     0.019 A 
HETATM   19 Br   UNK N   1      30.820  12.060   2.840  0.00  0.00    -0.051 Br
HETATM   20  C   UNK N   1      33.796  14.992   2.721  0.00  0.00     0.004 A 
HETATM   21  C   UNK N   1      33.296  15.980   3.570  0.00  0.00     0.029 A 
ENDBRANCH  13  15
ENDBRANCH   7  13
BRANCH   1  22
HETATM   22  N   UNK N   1      27.134  18.706   6.262  0.00  0.00    -0.324 N 
HETATM   23  C   UNK N   1      26.969  19.937   5.723  0.00  0.00     0.244 C 
HETATM   24  O   UNK N   1      27.791  20.824   5.902  0.00  0.00    -0.268 OA
HETATM   25  H   UNK N   1      26.427  18.048   6.070  0.00  0.00     0.169 HD
BRANCH  23  26
HETATM   26  C   UNK N   1      25.765  20.184   4.908  0.00  0.00     0.064 C 
HETATM   27  C   UNK N   1      25.811  20.272   3.582  0.00  0.00     0.017 C 
ENDBRANCH  23  26
ENDBRANCH   1  22
TORSDOF 4
ENDMDL
