MODEL 1
REMARK VINA RESULT:      -8.1      0.000      0.000
REMARK  8 active torsions:
REMARK  status: ('A' for Active; 'I' for Inactive)
REMARK    1  A    between atoms: C_8  and  C_9 
REMARK    2  A    between atoms: C_9  and  O_10 
REMARK    3  A    between atoms: C_15  and  N_12 
REMARK    4  A    between atoms: C_15  and  C_16 
REMARK    5  A    between atoms: C_15  and  C_19 
REMARK    6  A    between atoms: C_16  and  O_17 
REMARK    7  A    between atoms: C_19  and  C_20 
REMARK    8  A    between atoms: C_23  and  O_24 
ROOT
HETATM    1  O   UNK N   1      19.308  14.939   4.537  0.00  0.00    -0.267 OA
HETATM    2  C   UNK N   1      19.916  15.975   4.749  0.00  0.00     0.262 A 
HETATM    3  C   UNK N   1      20.189  17.026   3.760  0.00  0.00     0.048 A 
HETATM    4  C   UNK N   1      20.875  18.012   4.426  0.00  0.00     0.049 A 
HETATM    5  C   UNK N   1      21.267  19.191   3.808  0.00  0.00     0.036 A 
HETATM    6  C   UNK N   1      19.858  17.159   2.412  0.00  0.00     0.019 A 
HETATM    7  C   UNK N   1      20.243  18.348   1.755  0.00  0.00     0.019 A 
HETATM    8  C   UNK N   1      20.944  19.368   2.449  0.00  0.00     0.038 A 
HETATM    9  N   UNK N   1      20.428  16.349   5.956  0.00  0.00    -0.264 N 
HETATM   10  C   UNK N   1      21.020  17.562   5.800  0.00  0.00     0.262 A 
HETATM   11  O   UNK N   1      21.557  18.189   6.701  0.00  0.00    -0.267 OA
ENDROOT
BRANCH   9  12
HETATM   12  C   UNK N   1      20.341  15.663   7.251  0.00  0.00     0.198 C 
BRANCH  12  13
HETATM   13  C   UNK N   1      19.552  16.486   8.251  0.00  0.00     0.164 C 
HETATM   14  O   UNK N   1      18.337  16.386   8.301  0.00  0.00    -0.648 OA
BRANCH  13  15
HETATM   15  O   UNK N   1      20.175  17.371   9.054  0.00  0.00    -0.775 OA
HETATM   16  H   UNK N   1      20.482  18.233   9.254  0.00  0.00     0.167 HD
ENDBRANCH  13  15
ENDBRANCH  12  13
BRANCH  12  17
HETATM   17  C   UNK N   1      21.699  15.120   7.769  0.00  0.00     0.075 C 
BRANCH  17  18
HETATM   18  C   UNK N   1      21.720  14.119   8.891  0.00  0.00    -0.056 A 
HETATM   19  C   UNK N   1      20.531  13.780   9.546  0.00  0.00     0.010 A 
HETATM   20  C   UNK N   1      20.555  12.908  10.642  0.00  0.00     0.037 A 
HETATM   21  C   UNK N   1      21.771  12.381  11.092  0.00  0.00     0.065 A 
HETATM   22  C   UNK N   1      22.962  12.729  10.451  0.00  0.00     0.037 A 
HETATM   23  C   UNK N   1      22.936  13.606   9.364  0.00  0.00     0.010 A 
BRANCH  21  24
HETATM   24  O   UNK N   1      21.797  11.546  12.142  0.00  0.00    -0.361 OA
HETATM   25  H   UNK N   1      22.413  10.874  12.364  0.00  0.00     0.217 HD
ENDBRANCH  21  24
ENDBRANCH  17  18
ENDBRANCH  12  17
ENDBRANCH   9  12
BRANCH   8  26
HETATM   26  C   UNK N   1      21.315  20.623   1.765  0.00  0.00     0.176 C 
HETATM   27  O   UNK N   1      21.346  20.673   0.545  0.00  0.00    -0.646 OA
BRANCH  26  28
HETATM   28  O   UNK N   1      21.634  21.718   2.482  0.00  0.00    -0.773 OA
HETATM   29  H   UNK N   1      21.704  22.572   2.103  0.00  0.00     0.167 HD
ENDBRANCH  26  28
ENDBRANCH   8  26
TORSDOF 8
ENDMDL
MODEL 2
REMARK VINA RESULT:      -8.0     14.303     17.273
REMARK  8 active torsions:
REMARK  status: ('A' for Active; 'I' for Inactive)
REMARK    1  A    between atoms: C_8  and  C_9 
REMARK    2  A    between atoms: C_9  and  O_10 
REMARK    3  A    between atoms: C_15  and  N_12 
REMARK    4  A    between atoms: C_15  and  C_16 
REMARK    5  A    between atoms: C_15  and  C_19 
REMARK    6  A    between atoms: C_16  and  O_17 
REMARK    7  A    between atoms: C_19  and  C_20 
REMARK    8  A    between atoms: C_23  and  O_24 
ROOT
HETATM    1  O   UNK N   1      26.243  24.564  -3.228  0.00  0.00    -0.267 OA
HETATM    2  C   UNK N   1      27.173  24.220  -3.940  0.00  0.00     0.262 A 
HETATM    3  C   UNK N   1      28.443  23.650  -3.473  0.00  0.00     0.048 A 
HETATM    4  C   UNK N   1      29.185  23.390  -4.600  0.00  0.00     0.049 A 
HETATM    5  C   UNK N   1      30.442  22.804  -4.542  0.00  0.00     0.036 A 
HETATM    6  C   UNK N   1      28.926  23.340  -2.202  0.00  0.00     0.019 A 
HETATM    7  C   UNK N   1      30.201  22.742  -2.110  0.00  0.00     0.019 A 
HETATM    8  C   UNK N   1      30.961  22.468  -3.277  0.00  0.00     0.038 A 
HETATM    9  N   UNK N   1      27.182  24.284  -5.302  0.00  0.00    -0.264 N 
HETATM   10  C   UNK N   1      28.377  23.803  -5.734  0.00  0.00     0.262 A 
HETATM   11  O   UNK N   1      28.696  23.702  -6.909  0.00  0.00    -0.267 OA
ENDROOT
BRANCH   9  12
HETATM   12  C   UNK N   1      26.115  24.712  -6.216  0.00  0.00     0.198 C 
BRANCH  12  13
HETATM   13  C   UNK N   1      25.722  23.590  -7.157  0.00  0.00     0.164 C 
HETATM   14  O   UNK N   1      25.085  22.636  -6.739  0.00  0.00    -0.648 OA
BRANCH  13  15
HETATM   15  O   UNK N   1      26.116  23.606  -8.446  0.00  0.00    -0.775 OA
HETATM   16  H   UNK N   1      26.102  23.267  -9.319  0.00  0.00     0.167 HD
ENDBRANCH  13  15
ENDBRANCH  12  13
BRANCH  12  17
HETATM   17  C   UNK N   1      26.380  26.081  -6.896  0.00  0.00     0.075 C 
BRANCH  17  18
HETATM   18  C   UNK N   1      26.442  27.328  -6.057  0.00  0.00    -0.056 A 
HETATM   19  C   UNK N   1      27.423  28.292  -6.311  0.00  0.00     0.010 A 
HETATM   20  C   UNK N   1      27.535  29.417  -5.484  0.00  0.00     0.037 A 
HETATM   21  C   UNK N   1      26.671  29.574  -4.394  0.00  0.00     0.065 A 
HETATM   22  C   UNK N   1      25.700  28.607  -4.128  0.00  0.00     0.037 A 
HETATM   23  C   UNK N   1      25.597  27.481  -4.949  0.00  0.00     0.010 A 
BRANCH  21  24
HETATM   24  O   UNK N   1      26.777  30.652  -3.600  0.00  0.00    -0.361 OA
HETATM   25  H   UNK N   1      27.502  31.230  -3.464  0.00  0.00     0.217 HD
ENDBRANCH  21  24
ENDBRANCH  17  18
ENDBRANCH  12  17
ENDBRANCH   9  12
BRANCH   8  26
HETATM   26  C   UNK N   1      32.280  21.812  -3.177  0.00  0.00     0.176 C 
HETATM   27  O   UNK N   1      33.040  21.808  -4.132  0.00  0.00    -0.646 OA
BRANCH  26  28
HETATM   28  O   UNK N   1      32.649  21.200  -2.034  0.00  0.00    -0.773 OA
HETATM   29  H   UNK N   1      32.033  20.840  -1.427  0.00  0.00     0.167 HD
ENDBRANCH  26  28
ENDBRANCH   8  26
TORSDOF 8
ENDMDL
MODEL 3
REMARK VINA RESULT:      -8.0     14.889     17.469
REMARK  8 active torsions:
REMARK  status: ('A' for Active; 'I' for Inactive)
REMARK    1  A    between atoms: C_8  and  C_9 
REMARK    2  A    between atoms: C_9  and  O_10 
REMARK    3  A    between atoms: C_15  and  N_12 
REMARK    4  A    between atoms: C_15  and  C_16 
REMARK    5  A    between atoms: C_15  and  C_19 
REMARK    6  A    between atoms: C_16  and  O_17 
REMARK    7  A    between atoms: C_19  and  C_20 
REMARK    8  A    between atoms: C_23  and  O_24 
ROOT
HETATM    1  O   UNK N   1      28.233  23.556  -8.453  0.00  0.00    -0.267 OA
HETATM    2  C   UNK N   1      27.994  23.591  -7.256  0.00  0.00     0.262 A 
HETATM    3  C   UNK N   1      28.921  23.198  -6.186  0.00  0.00     0.048 A 
HETATM    4  C   UNK N   1      28.256  23.415  -5.004  0.00  0.00     0.049 A 
HETATM    5  C   UNK N   1      28.847  23.188  -3.768  0.00  0.00     0.036 A 
HETATM    6  C   UNK N   1      30.233  22.727  -6.203  0.00  0.00     0.019 A 
HETATM    7  C   UNK N   1      30.862  22.488  -4.962  0.00  0.00     0.019 A 
HETATM    8  C   UNK N   1      30.175  22.721  -3.742  0.00  0.00     0.038 A 
HETATM    9  N   UNK N   1      26.827  24.027  -6.703  0.00  0.00    -0.264 N 
HETATM   10  C   UNK N   1      26.942  23.927  -5.353  0.00  0.00     0.262 A 
HETATM   11  O   UNK N   1      26.075  24.260  -4.560  0.00  0.00    -0.267 OA
ENDROOT
BRANCH   9  12
HETATM   12  C   UNK N   1      25.640  24.583  -7.365  0.00  0.00     0.198 C 
BRANCH  12  13
HETATM   13  C   UNK N   1      25.188  23.695  -8.508  0.00  0.00     0.164 C 
HETATM   14  O   UNK N   1      24.467  22.735  -8.288  0.00  0.00    -0.648 OA
BRANCH  13  15
HETATM   15  O   UNK N   1      25.619  23.922  -9.764  0.00  0.00    -0.775 OA
HETATM   16  H   UNK N   1      25.498  23.921 -10.694  0.00  0.00     0.167 HD
ENDBRANCH  13  15
ENDBRANCH  12  13
BRANCH  12  17
HETATM   17  C   UNK N   1      25.760  26.092  -7.709  0.00  0.00     0.075 C 
BRANCH  17  18
HETATM   18  C   UNK N   1      25.932  27.095  -6.601  0.00  0.00    -0.056 A 
HETATM   19  C   UNK N   1      27.092  27.875  -6.542  0.00  0.00     0.010 A 
HETATM   20  C   UNK N   1      27.293  28.754  -5.470  0.00  0.00     0.037 A 
HETATM   21  C   UNK N   1      26.339  28.847  -4.450  0.00  0.00     0.065 A 
HETATM   22  C   UNK N   1      25.188  28.059  -4.498  0.00  0.00     0.037 A 
HETATM   23  C   UNK N   1      24.993  27.176  -5.564  0.00  0.00     0.010 A 
BRANCH  21  24
HETATM   24  O   UNK N   1      26.530  29.689  -3.422  0.00  0.00    -0.361 OA
HETATM   25  H   UNK N   1      27.326  30.035  -3.067  0.00  0.00     0.217 HD
ENDBRANCH  21  24
ENDBRANCH  17  18
ENDBRANCH  12  17
ENDBRANCH   9  12
BRANCH   8  26
HETATM   26  C   UNK N   1      30.849  22.501  -2.447  0.00  0.00     0.176 C 
HETATM   27  O   UNK N   1      30.438  23.051  -1.437  0.00  0.00    -0.646 OA
BRANCH  26  28
HETATM   28  O   UNK N   1      31.932  21.702  -2.373  0.00  0.00    -0.773 OA
HETATM   29  H   UNK N   1      32.792  21.988  -2.605  0.00  0.00     0.167 HD
ENDBRANCH  26  28
ENDBRANCH   8  26
TORSDOF 8
ENDMDL
MODEL 4
REMARK VINA RESULT:      -7.7      1.596      8.233
REMARK  8 active torsions:
REMARK  status: ('A' for Active; 'I' for Inactive)
REMARK    1  A    between atoms: C_8  and  C_9 
REMARK    2  A    between atoms: C_9  and  O_10 
REMARK    3  A    between atoms: C_15  and  N_12 
REMARK    4  A    between atoms: C_15  and  C_16 
REMARK    5  A    between atoms: C_15  and  C_19 
REMARK    6  A    between atoms: C_16  and  O_17 
REMARK    7  A    between atoms: C_19  and  C_20 
REMARK    8  A    between atoms: C_23  and  O_24 
ROOT
HETATM    1  O   UNK N   1      21.428  12.945   5.190  0.00  0.00    -0.267 OA
HETATM    2  C   UNK N   1      21.420  13.463   6.295  0.00  0.00     0.262 A 
HETATM    3  C   UNK N   1      22.005  12.888   7.514  0.00  0.00     0.048 A 
HETATM    4  C   UNK N   1      21.789  13.807   8.513  0.00  0.00     0.049 A 
HETATM    5  C   UNK N   1      22.247  13.614   9.809  0.00  0.00     0.036 A 
HETATM    6  C   UNK N   1      22.696  11.703   7.759  0.00  0.00     0.019 A 
HETATM    7  C   UNK N   1      23.175  11.478   9.067  0.00  0.00     0.019 A 
HETATM    8  C   UNK N   1      22.957  12.433  10.095  0.00  0.00     0.038 A 
HETATM    9  N   UNK N   1      20.884  14.683   6.585  0.00  0.00    -0.264 N 
HETATM   10  C   UNK N   1      21.077  14.920   7.909  0.00  0.00     0.262 A 
HETATM   11  O   UNK N   1      20.733  15.941   8.484  0.00  0.00    -0.267 OA
ENDROOT
BRANCH   9  12
HETATM   12  C   UNK N   1      20.258  15.656   5.682  0.00  0.00     0.198 C 
BRANCH  12  13
HETATM   13  C   UNK N   1      18.795  15.326   5.455  0.00  0.00     0.164 C 
HETATM   14  O   UNK N   1      17.927  16.062   5.898  0.00  0.00    -0.648 OA
BRANCH  13  15
HETATM   15  O   UNK N   1      18.438  14.196   4.815  0.00  0.00    -0.775 OA
HETATM   16  H   UNK N   1      18.507  13.274   4.662  0.00  0.00     0.167 HD
ENDBRANCH  13  15
ENDBRANCH  12  13
BRANCH  12  17
HETATM   17  C   UNK N   1      21.077  15.939   4.394  0.00  0.00     0.075 C 
BRANCH  17  18
HETATM   18  C   UNK N   1      21.192  17.348   3.882  0.00  0.00    -0.056 A 
HETATM   19  C   UNK N   1      22.359  18.083   4.118  0.00  0.00     0.010 A 
HETATM   20  C   UNK N   1      22.441  19.421   3.712  0.00  0.00     0.037 A 
HETATM   21  C   UNK N   1      21.353  20.030   3.077  0.00  0.00     0.065 A 
HETATM   22  C   UNK N   1      20.181  19.304   2.853  0.00  0.00     0.037 A 
HETATM   23  C   UNK N   1      20.098  17.973   3.267  0.00  0.00     0.010 A 
BRANCH  21  24
HETATM   24  O   UNK N   1      21.430  21.312   2.687  0.00  0.00    -0.361 OA
HETATM   25  H   UNK N   1      20.880  22.041   2.902  0.00  0.00     0.217 HD
ENDBRANCH  21  24
ENDBRANCH  17  18
ENDBRANCH  12  17
ENDBRANCH   9  12
BRANCH   8  26
HETATM   26  C   UNK N   1      23.490  12.208  11.453  0.00  0.00     0.176 C 
HETATM   27  O   UNK N   1      22.734  11.938  12.374  0.00  0.00    -0.646 OA
BRANCH  26  28
HETATM   28  O   UNK N   1      24.812  12.313  11.690  0.00  0.00    -0.773 OA
HETATM   29  H   UNK N   1      25.462  12.106  11.048  0.00  0.00     0.167 HD
ENDBRANCH  26  28
ENDBRANCH   8  26
TORSDOF 8
ENDMDL
MODEL 5
REMARK VINA RESULT:      -7.7      8.515     11.103
REMARK  8 active torsions:
REMARK  status: ('A' for Active; 'I' for Inactive)
REMARK    1  A    between atoms: C_8  and  C_9 
REMARK    2  A    between atoms: C_9  and  O_10 
REMARK    3  A    between atoms: C_15  and  N_12 
REMARK    4  A    between atoms: C_15  and  C_16 
REMARK    5  A    between atoms: C_15  and  C_19 
REMARK    6  A    between atoms: C_16  and  O_17 
REMARK    7  A    between atoms: C_19  and  C_20 
REMARK    8  A    between atoms: C_23  and  O_24 
ROOT
HETATM    1  O   UNK N   1      30.143  16.417   4.044  0.00  0.00    -0.267 OA
HETATM    2  C   UNK N   1      30.252  16.843   5.182  0.00  0.00     0.262 A 
HETATM    3  C   UNK N   1      31.516  17.039   5.905  0.00  0.00     0.048 A 
HETATM    4  C   UNK N   1      31.179  17.550   7.135  0.00  0.00     0.049 A 
HETATM    5  C   UNK N   1      32.133  17.899   8.080  0.00  0.00     0.036 A 
HETATM    6  C   UNK N   1      32.847  16.838   5.546  0.00  0.00     0.019 A 
HETATM    7  C   UNK N   1      33.842  17.185   6.485  0.00  0.00     0.019 A 
HETATM    8  C   UNK N   1      33.491  17.719   7.752  0.00  0.00     0.038 A 
HETATM    9  N   UNK N   1      29.214  17.233   5.975  0.00  0.00    -0.264 N 
HETATM   10  C   UNK N   1      29.730  17.655   7.160  0.00  0.00     0.262 A 
HETATM   11  O   UNK N   1      29.064  18.093   8.085  0.00  0.00    -0.267 OA
ENDROOT
BRANCH   9  12
HETATM   12  C   UNK N   1      27.781  17.288   5.663  0.00  0.00     0.198 C 
BRANCH  12  13
HETATM   13  C   UNK N   1      27.047  16.104   6.263  0.00  0.00     0.164 C 
HETATM   14  O   UNK N   1      26.773  15.139   5.567  0.00  0.00    -0.648 OA
BRANCH  13  15
HETATM   15  O   UNK N   1      26.645  16.125   7.549  0.00  0.00    -0.775 OA
HETATM   16  H   UNK N   1      25.992  16.246   8.209  0.00  0.00     0.167 HD
ENDBRANCH  13  15
ENDBRANCH  12  13
BRANCH  12  17
HETATM   17  C   UNK N   1      27.471  17.567   4.168  0.00  0.00     0.075 C 
BRANCH  17  18
HETATM   18  C   UNK N   1      26.359  18.512   3.803  0.00  0.00    -0.056 A 
HETATM   19  C   UNK N   1      26.661  19.788   3.316  0.00  0.00     0.010 A 
HETATM   20  C   UNK N   1      25.631  20.700   3.049  0.00  0.00     0.037 A 
HETATM   21  C   UNK N   1      24.298  20.339   3.279  0.00  0.00     0.065 A 
HETATM   22  C   UNK N   1      23.995  19.072   3.780  0.00  0.00     0.037 A 
HETATM   23  C   UNK N   1      25.024  18.168   4.054  0.00  0.00     0.010 A 
BRANCH  21  24
HETATM   24  O   UNK N   1      23.310  21.212   3.024  0.00  0.00    -0.361 OA
HETATM   25  H   UNK N   1      22.493  21.084   2.582  0.00  0.00     0.217 HD
ENDBRANCH  21  24
ENDBRANCH  17  18
ENDBRANCH  12  17
ENDBRANCH   9  12
BRANCH   8  26
HETATM   26  C   UNK N   1      34.537  18.111   8.717  0.00  0.00     0.176 C 
HETATM   27  O   UNK N   1      35.268  19.061   8.482  0.00  0.00    -0.646 OA
BRANCH  26  28
HETATM   28  O   UNK N   1      34.701  17.415   9.860  0.00  0.00    -0.773 OA
HETATM   29  H   UNK N   1      34.433  17.739  10.696  0.00  0.00     0.167 HD
ENDBRANCH  26  28
ENDBRANCH   8  26
TORSDOF 8
ENDMDL
MODEL 6
REMARK VINA RESULT:      -7.6     11.587     15.182
REMARK  8 active torsions:
REMARK  status: ('A' for Active; 'I' for Inactive)
REMARK    1  A    between atoms: C_8  and  C_9 
REMARK    2  A    between atoms: C_9  and  O_10 
REMARK    3  A    between atoms: C_15  and  N_12 
REMARK    4  A    between atoms: C_15  and  C_16 
REMARK    5  A    between atoms: C_15  and  C_19 
REMARK    6  A    between atoms: C_16  and  O_17 
REMARK    7  A    between atoms: C_19  and  C_20 
REMARK    8  A    between atoms: C_23  and  O_24 
ROOT
HETATM    1  O   UNK N   1      35.411  17.562  10.188  0.00  0.00    -0.267 OA
HETATM    2  C   UNK N   1      34.970  16.424  10.211  0.00  0.00     0.262 A 
HETATM    3  C   UNK N   1      35.270  15.410  11.230  0.00  0.00     0.048 A 
HETATM    4  C   UNK N   1      34.554  14.291  10.881  0.00  0.00     0.049 A 
HETATM    5  C   UNK N   1      34.563  13.135  11.648  0.00  0.00     0.036 A 
HETATM    6  C   UNK N   1      36.057  15.435  12.380  0.00  0.00     0.019 A 
HETATM    7  C   UNK N   1      36.087  14.274  13.182  0.00  0.00     0.019 A 
HETATM    8  C   UNK N   1      35.339  13.123  12.823  0.00  0.00     0.038 A 
HETATM    9  N   UNK N   1      34.100  15.904   9.300  0.00  0.00    -0.264 N 
HETATM   10  C   UNK N   1      33.833  14.622   9.663  0.00  0.00     0.262 A 
HETATM   11  O   UNK N   1      33.068  13.880   9.066  0.00  0.00    -0.267 OA
ENDROOT
BRANCH   9  12
HETATM   12  C   UNK N   1      33.463  16.557   8.150  0.00  0.00     0.198 C 
BRANCH  12  13
HETATM   13  C   UNK N   1      34.470  16.822   7.047  0.00  0.00     0.164 C 
HETATM   14  O   UNK N   1      34.562  17.937   6.559  0.00  0.00    -0.648 OA
BRANCH  13  15
HETATM   15  O   UNK N   1      35.232  15.824   6.560  0.00  0.00    -0.775 OA
HETATM   16  H   UNK N   1      35.990  15.505   6.111  0.00  0.00     0.167 HD
ENDBRANCH  13  15
ENDBRANCH  12  13
BRANCH  12  17
HETATM   17  C   UNK N   1      32.566  17.766   8.528  0.00  0.00     0.075 C 
BRANCH  17  18
HETATM   18  C   UNK N   1      31.114  17.765   8.140  0.00  0.00    -0.056 A 
HETATM   19  C   UNK N   1      30.157  18.291   9.014  0.00  0.00     0.010 A 
HETATM   20  C   UNK N   1      28.796  18.221   8.691  0.00  0.00     0.037 A 
HETATM   21  C   UNK N   1      28.388  17.615   7.498  0.00  0.00     0.065 A 
HETATM   22  C   UNK N   1      29.339  17.075   6.630  0.00  0.00     0.037 A 
HETATM   23  C   UNK N   1      30.695  17.138   6.958  0.00  0.00     0.010 A 
BRANCH  21  24
HETATM   24  O   UNK N   1      27.083  17.547   7.187  0.00  0.00    -0.361 OA
HETATM   25  H   UNK N   1      26.667  17.284   6.389  0.00  0.00     0.217 HD
ENDBRANCH  21  24
ENDBRANCH  17  18
ENDBRANCH  12  17
ENDBRANCH   9  12
BRANCH   8  26
HETATM   26  C   UNK N   1      35.348  11.923  13.684  0.00  0.00     0.176 C 
HETATM   27  O   UNK N   1      36.303  11.163  13.671  0.00  0.00    -0.646 OA
BRANCH  26  28
HETATM   28  O   UNK N   1      34.295  11.651  14.480  0.00  0.00    -0.773 OA
HETATM   29  H   UNK N   1      33.912  12.285  15.052  0.00  0.00     0.167 HD
ENDBRANCH  26  28
ENDBRANCH   8  26
TORSDOF 8
ENDMDL
MODEL 7
REMARK VINA RESULT:      -7.5     13.929     16.565
REMARK  8 active torsions:
REMARK  status: ('A' for Active; 'I' for Inactive)
REMARK    1  A    between atoms: C_8  and  C_9 
REMARK    2  A    between atoms: C_9  and  O_10 
REMARK    3  A    between atoms: C_15  and  N_12 
REMARK    4  A    between atoms: C_15  and  C_16 
REMARK    5  A    between atoms: C_15  and  C_19 
REMARK    6  A    between atoms: C_16  and  O_17 
REMARK    7  A    between atoms: C_19  and  C_20 
REMARK    8  A    between atoms: C_23  and  O_24 
ROOT
HETATM    1  O   UNK N   1      34.814  11.545  11.643  0.00  0.00    -0.267 OA
HETATM    2  C   UNK N   1      35.119  12.719  11.785  0.00  0.00     0.262 A 
HETATM    3  C   UNK N   1      34.806  13.804  10.846  0.00  0.00     0.048 A 
HETATM    4  C   UNK N   1      35.314  14.952  11.404  0.00  0.00     0.049 A 
HETATM    5  C   UNK N   1      35.167  16.196  10.805  0.00  0.00     0.036 A 
HETATM    6  C   UNK N   1      34.118  13.832   9.634  0.00  0.00     0.019 A 
HETATM    7  C   UNK N   1      33.952  15.082   9.000  0.00  0.00     0.019 A 
HETATM    8  C   UNK N   1      34.470  16.267   9.584  0.00  0.00     0.038 A 
HETATM    9  N   UNK N   1      35.787  13.230  12.858  0.00  0.00    -0.264 N 
HETATM   10  C   UNK N   1      35.932  14.566  12.661  0.00  0.00     0.262 A 
HETATM   11  O   UNK N   1      36.469  15.326  13.452  0.00  0.00    -0.267 OA
ENDROOT
BRANCH   9  12
HETATM   12  C   UNK N   1      36.242  12.547  14.076  0.00  0.00     0.198 C 
BRANCH  12  13
HETATM   13  C   UNK N   1      37.357  11.567  13.767  0.00  0.00     0.164 C 
HETATM   14  O   UNK N   1      37.959  11.020  14.677  0.00  0.00    -0.648 OA
BRANCH  13  15
HETATM   15  O   UNK N   1      37.730  11.331  12.494  0.00  0.00    -0.775 OA
HETATM   16  H   UNK N   1      38.338  11.016  11.854  0.00  0.00     0.167 HD
ENDBRANCH  13  15
ENDBRANCH  12  13
BRANCH  12  17
HETATM   17  C   UNK N   1      35.090  11.982  14.948  0.00  0.00     0.075 C 
BRANCH  17  18
HETATM   18  C   UNK N   1      35.110  12.198  16.436  0.00  0.00    -0.056 A 
HETATM   19  C   UNK N   1      35.062  13.497  16.954  0.00  0.00     0.010 A 
HETATM   20  C   UNK N   1      35.160  13.707  18.335  0.00  0.00     0.037 A 
HETATM   21  C   UNK N   1      35.316  12.619  19.201  0.00  0.00     0.065 A 
HETATM   22  C   UNK N   1      35.380  11.322  18.687  0.00  0.00     0.037 A 
HETATM   23  C   UNK N   1      35.291  11.115  17.309  0.00  0.00     0.010 A 
BRANCH  21  24
HETATM   24  O   UNK N   1      35.410  12.819  20.525  0.00  0.00    -0.361 OA
HETATM   25  H   UNK N   1      35.184  12.253  21.238  0.00  0.00     0.217 HD
ENDBRANCH  21  24
ENDBRANCH  17  18
ENDBRANCH  12  17
ENDBRANCH   9  12
BRANCH   8  26
HETATM   26  C   UNK N   1      34.264  17.577   8.933  0.00  0.00     0.176 C 
HETATM   27  O   UNK N   1      33.206  17.828   8.378  0.00  0.00    -0.646 OA
BRANCH  26  28
HETATM   28  O   UNK N   1      35.247  18.499   8.936  0.00  0.00    -0.773 OA
HETATM   29  H   UNK N   1      36.155  18.274   8.921  0.00  0.00     0.167 HD
ENDBRANCH  26  28
ENDBRANCH   8  26
TORSDOF 8
ENDMDL
MODEL 8
REMARK VINA RESULT:      -7.5      9.098     11.286
REMARK  8 active torsions:
REMARK  status: ('A' for Active; 'I' for Inactive)
REMARK    1  A    between atoms: C_8  and  C_9 
REMARK    2  A    between atoms: C_9  and  O_10 
REMARK    3  A    between atoms: C_15  and  N_12 
REMARK    4  A    between atoms: C_15  and  C_16 
REMARK    5  A    between atoms: C_15  and  C_19 
REMARK    6  A    between atoms: C_16  and  O_17 
REMARK    7  A    between atoms: C_19  and  C_20 
REMARK    8  A    between atoms: C_23  and  O_24 
ROOT
HETATM    1  O   UNK N   1      30.779  16.377   2.980  0.00  0.00    -0.267 OA
HETATM    2  C   UNK N   1      30.691  16.534   4.187  0.00  0.00     0.262 A 
HETATM    3  C   UNK N   1      31.793  16.905   5.085  0.00  0.00     0.048 A 
HETATM    4  C   UNK N   1      31.249  16.991   6.344  0.00  0.00     0.049 A 
HETATM    5  C   UNK N   1      31.998  17.364   7.451  0.00  0.00     0.036 A 
HETATM    6  C   UNK N   1      33.140  17.182   4.858  0.00  0.00     0.019 A 
HETATM    7  C   UNK N   1      33.928  17.565   5.965  0.00  0.00     0.019 A 
HETATM    8  C   UNK N   1      33.362  17.661   7.262  0.00  0.00     0.038 A 
HETATM    9  N   UNK N   1      29.541  16.413   4.911  0.00  0.00    -0.264 N 
HETATM   10  C   UNK N   1      29.838  16.671   6.211  0.00  0.00     0.262 A 
HETATM   11  O   UNK N   1      29.021  16.669   7.119  0.00  0.00    -0.267 OA
ENDROOT
BRANCH   9  12
HETATM   12  C   UNK N   1      28.179  16.129   4.443  0.00  0.00     0.198 C 
BRANCH  12  13
HETATM   13  C   UNK N   1      28.097  14.756   3.805  0.00  0.00     0.164 C 
HETATM   14  O   UNK N   1      27.982  13.763   4.506  0.00  0.00    -0.648 OA
BRANCH  13  15
HETATM   15  O   UNK N   1      28.206  14.612   2.470  0.00  0.00    -0.775 OA
HETATM   16  H   UNK N   1      28.624  14.265   1.706  0.00  0.00     0.167 HD
ENDBRANCH  13  15
ENDBRANCH  12  13
BRANCH  12  17
HETATM   17  C   UNK N   1      27.545  17.279   3.616  0.00  0.00     0.075 C 
BRANCH  17  18
HETATM   18  C   UNK N   1      27.159  18.562   4.301  0.00  0.00    -0.056 A 
HETATM   19  C   UNK N   1      28.151  19.460   4.708  0.00  0.00     0.010 A 
HETATM   20  C   UNK N   1      27.802  20.618   5.415  0.00  0.00     0.037 A 
HETATM   21  C   UNK N   1      26.462  20.874   5.726  0.00  0.00     0.065 A 
HETATM   22  C   UNK N   1      25.471  19.972   5.334  0.00  0.00     0.037 A 
HETATM   23  C   UNK N   1      25.822  18.813   4.637  0.00  0.00     0.010 A 
BRANCH  21  24
HETATM   24  O   UNK N   1      26.126  21.983   6.404  0.00  0.00    -0.361 OA
HETATM   25  H   UNK N   1      26.382  22.266   7.261  0.00  0.00     0.217 HD
ENDBRANCH  21  24
ENDBRANCH  17  18
ENDBRANCH  12  17
ENDBRANCH   9  12
BRANCH   8  26
HETATM   26  C   UNK N   1      34.183  18.094   8.410  0.00  0.00     0.176 C 
HETATM   27  O   UNK N   1      34.924  19.060   8.307  0.00  0.00    -0.646 OA
BRANCH  26  28
HETATM   28  O   UNK N   1      34.132  17.419   9.575  0.00  0.00    -0.773 OA
HETATM   29  H   UNK N   1      34.176  16.485   9.625  0.00  0.00     0.167 HD
ENDBRANCH  26  28
ENDBRANCH   8  26
TORSDOF 8
ENDMDL
MODEL 9
REMARK VINA RESULT:      -7.3     11.735     15.110
REMARK  8 active torsions:
REMARK  status: ('A' for Active; 'I' for Inactive)
REMARK    1  A    between atoms: C_8  and  C_9 
REMARK    2  A    between atoms: C_9  and  O_10 
REMARK    3  A    between atoms: C_15  and  N_12 
REMARK    4  A    between atoms: C_15  and  C_16 
REMARK    5  A    between atoms: C_15  and  C_19 
REMARK    6  A    between atoms: C_16  and  O_17 
REMARK    7  A    between atoms: C_19  and  C_20 
REMARK    8  A    between atoms: C_23  and  O_24 
ROOT
HETATM    1  O   UNK N   1      33.128  13.503   8.435  0.00  0.00    -0.267 OA
HETATM    2  C   UNK N   1      33.702  14.243   9.217  0.00  0.00     0.262 A 
HETATM    3  C   UNK N   1      34.416  13.820  10.429  0.00  0.00     0.048 A 
HETATM    4  C   UNK N   1      34.924  14.965  10.994  0.00  0.00     0.049 A 
HETATM    5  C   UNK N   1      35.700  14.943  12.144  0.00  0.00     0.036 A 
HETATM    6  C   UNK N   1      34.651  12.568  10.995  0.00  0.00     0.019 A 
HETATM    7  C   UNK N   1      35.437  12.513  12.166  0.00  0.00     0.019 A 
HETATM    8  C   UNK N   1      35.967  13.696  12.742  0.00  0.00     0.038 A 
HETATM    9  N   UNK N   1      33.799  15.597   9.085  0.00  0.00    -0.264 N 
HETATM   10  C   UNK N   1      34.518  16.067  10.138  0.00  0.00     0.262 A 
HETATM   11  O   UNK N   1      34.806  17.242  10.307  0.00  0.00    -0.267 OA
ENDROOT
BRANCH   9  12
HETATM   12  C   UNK N   1      33.310  16.459   8.003  0.00  0.00     0.198 C 
BRANCH  12  13
HETATM   13  C   UNK N   1      34.433  16.832   7.054  0.00  0.00     0.164 C 
HETATM   14  O   UNK N   1      34.581  17.994   6.710  0.00  0.00    -0.648 OA
BRANCH  13  15
HETATM   15  O   UNK N   1      35.242  15.884   6.542  0.00  0.00    -0.775 OA
HETATM   16  H   UNK N   1      35.839  15.168   6.633  0.00  0.00     0.167 HD
ENDBRANCH  13  15
ENDBRANCH  12  13
BRANCH  12  17
HETATM   17  C   UNK N   1      32.436  17.646   8.489  0.00  0.00     0.075 C 
BRANCH  17  18
HETATM   18  C   UNK N   1      30.993  17.725   8.073  0.00  0.00    -0.056 A 
HETATM   19  C   UNK N   1      30.590  17.187   6.846  0.00  0.00     0.010 A 
HETATM   20  C   UNK N   1      29.263  17.327   6.418  0.00  0.00     0.037 A 
HETATM   21  C   UNK N   1      28.339  18.013   7.213  0.00  0.00     0.065 A 
HETATM   22  C   UNK N   1      28.741  18.564   8.432  0.00  0.00     0.037 A 
HETATM   23  C   UNK N   1      30.066  18.432   8.852  0.00  0.00     0.010 A 
BRANCH  21  24
HETATM   24  O   UNK N   1      27.067  18.148   6.805  0.00  0.00    -0.361 OA
HETATM   25  H   UNK N   1      26.506  18.899   6.820  0.00  0.00     0.217 HD
ENDBRANCH  21  24
ENDBRANCH  17  18
ENDBRANCH  12  17
ENDBRANCH   9  12
BRANCH   8  26
HETATM   26  C   UNK N   1      36.816  13.629  13.948  0.00  0.00     0.176 C 
HETATM   27  O   UNK N   1      36.801  14.537  14.764  0.00  0.00    -0.646 OA
BRANCH  26  28
HETATM   28  O   UNK N   1      37.626  12.570  14.150  0.00  0.00    -0.773 OA
HETATM   29  H   UNK N   1      38.559  12.640  14.172  0.00  0.00     0.167 HD
ENDBRANCH  26  28
ENDBRANCH   8  26
TORSDOF 8
ENDMDL
