REMARK  6 active torsions:
REMARK  status: ('A' for Active; 'I' for Inactive)
REMARK    1  A    between atoms: C_8  and  N_9 
REMARK    2  A    between atoms: N_9  and  C_10 
REMARK    3  A    between atoms: C_10  and  N_12 
REMARK       I    between atoms: C_15  and  N_16 
REMARK       I    between atoms: C_19  and  N_20 
REMARK    4  A    between atoms: N_20  and  C_21 
REMARK    5  A    between atoms: C_26  and  S_27 
REMARK    6  A    between atoms: S_27  and  N_30 
ROOT
HETATM    1  N   UNK N   1       0.870   1.331   0.353  0.00  0.00    -0.044 N 
HETATM    2  N   UNK N   1       1.989   0.628   0.245  0.00  0.00    -0.108 N 
ATOM      3  HN  UNK N   1       2.943   0.967   0.365  1.00  0.00     0.207 HD
HETATM    4  C   UNK N   1      -0.165   0.498   0.136  0.00  0.00     0.714 A 
HETATM    5  N   UNK N   1      -1.528   0.853   0.204  0.00  0.00    -0.232 N 
HETATM    6  N   UNK N   1       0.255  -0.741  -0.109  0.00  0.00    -0.019 N 
ATOM      7  HN  UNK N   1      -0.304  -1.575  -0.291  1.00  0.00     0.203 HD
HETATM    8  C   UNK N   1       1.601  -0.629  -0.057  0.00  0.00     0.712 A 
HETATM    9  N   UNK N   1       2.475  -1.740  -0.206  0.00  0.00    -0.190 N 
HETATM   10  H   UNK N   1      -1.789   1.801   0.251  0.00  0.00     0.174 HD
HETATM   11  H   UNK N   1      -2.219   0.152   0.204  0.00  0.00     0.174 HD
HETATM   12  H   UNK N   1       3.452  -1.623  -0.197  0.00  0.00     0.184 HD
ENDROOT
BRANCH   9  13
HETATM   13  C   UNK N   1       1.894  -3.024  -0.368  0.00  0.00     0.049 A 
HETATM   14  C   UNK N   1       2.214  -4.024   0.548  0.00  0.00     0.031 A 
HETATM   15  C   UNK N   1       1.390  -5.145   0.680  0.00  0.00     0.027 A 
HETATM   16  C   UNK N   1       0.226  -5.281  -0.094  0.00  0.00     0.079 A 
HETATM   17  C   UNK N   1      -0.046  -4.288  -1.081  0.00  0.00     0.027 A 
HETATM   18  C   UNK N   1       0.780  -3.182  -1.206  0.00  0.00     0.031 A 
BRANCH  16  19
HETATM   19  S   UNK N   1      -0.930  -6.650   0.381  0.00  0.00     0.256 S 
HETATM   20  O   UNK N   1      -2.302  -6.812  -0.291  0.00  0.00    -0.201 OA
HETATM   21  O   UNK N   1      -1.627  -5.305   0.661  0.00  0.00    -0.201 OA
BRANCH  19  22
HETATM   22  N   UNK N   1      -0.577  -6.828  -1.341  0.00  0.00    -0.324 N 
HETATM   23  H   UNK N   1      -0.564  -7.056  -2.335  0.00  0.00     0.169 HD
HETATM   24  H   UNK N   1       0.276  -6.268  -1.341  0.00  0.00     0.169 HD
ENDBRANCH  19  22
ENDBRANCH  16  19
ENDBRANCH   9  13
BRANCH   1  25
HETATM   25  C   UNK N   1       0.773   2.740   0.628  0.00  0.00     0.216 C 
HETATM   26  S   UNK N   1       1.880   3.419   1.249  0.00  0.00    -0.038 SA
BRANCH  25  27
HETATM   27  N   UNK N   1      -0.478   3.383   0.372  0.00  0.00    -0.326 N 
HETATM   28  H   UNK N   1      -1.223   2.742   0.318  0.00  0.00     0.168 HD
BRANCH  27  29
HETATM   29  C   UNK N   1      -0.908   4.731   0.176  0.00  0.00     0.112 A 
HETATM   30  C   UNK N   1      -2.295   4.937   0.052  0.00  0.00     0.146 A 
HETATM   31  F   UNK N   1      -3.148   3.884   0.126  0.00  0.00    -0.204 F 
HETATM   32  C   UNK N   1      -2.812   6.214  -0.168  0.00  0.00     0.045 A 
HETATM   33  C   UNK N   1      -1.956   7.306  -0.270  0.00  0.00     0.006 A 
HETATM   34  C   UNK N   1      -0.578   7.121  -0.173  0.00  0.00     0.045 A 
HETATM   35  C   UNK N   1      -0.043   5.848   0.042  0.00  0.00     0.146 A 
HETATM   36  F   UNK N   1       1.301   5.743   0.072  0.00  0.00    -0.204 F 
ENDBRANCH  27  29
ENDBRANCH  25  27
ENDBRANCH   1  25
TORSDOF 6
