MODEL 1
REMARK VINA RESULT:      -8.3      0.000      0.000
REMARK  6 active torsions:
REMARK  status: ('A' for Active; 'I' for Inactive)
REMARK    1  A    between atoms: C_8  and  N_9 
REMARK    2  A    between atoms: N_9  and  C_10 
REMARK    3  A    between atoms: C_10  and  N_12 
REMARK       I    between atoms: C_15  and  N_16 
REMARK       I    between atoms: C_19  and  N_20 
REMARK    4  A    between atoms: N_20  and  C_21 
REMARK    5  A    between atoms: C_26  and  S_27 
REMARK    6  A    between atoms: S_27  and  N_30 
ROOT
HETATM    1  N   UNK N   1      35.795  14.801  10.815  0.00  0.00    -0.044 N 
HETATM    2  N   UNK N   1      35.938  16.089  10.534  0.00  0.00    -0.108 N 
ATOM      3  HN  UNK N   1      36.669  16.715  10.870  1.00  0.00     0.207 HD
HETATM    4  C   UNK N   1      34.714  14.350  10.153  0.00  0.00     0.714 A 
HETATM    5  N   UNK N   1      34.250  13.018  10.157  0.00  0.00    -0.232 N 
HETATM    6  N   UNK N   1      34.145  15.318   9.439  0.00  0.00    -0.019 N 
ATOM      7  HN  UNK N   1      33.327  15.261   8.832  1.00  0.00     0.203 HD
HETATM    8  C   UNK N   1      34.914  16.396   9.710  0.00  0.00     0.712 A 
HETATM    9  N   UNK N   1      34.705  17.666   9.106  0.00  0.00    -0.190 N 
HETATM   10  H   UNK N   1      34.615  12.370  10.803  0.00  0.00     0.174 HD
HETATM   11  H   UNK N   1      33.560  12.736   9.514  0.00  0.00     0.174 HD
HETATM   12  H   UNK N   1      35.260  18.442   9.348  0.00  0.00     0.184 HD
ENDROOT
BRANCH   9  13
HETATM   13  C   UNK N   1      33.671  17.779   8.141  0.00  0.00     0.049 A 
HETATM   14  C   UNK N   1      33.988  17.607   6.796  0.00  0.00     0.031 A 
HETATM   15  C   UNK N   1      32.984  17.309   5.870  0.00  0.00     0.027 A 
HETATM   16  C   UNK N   1      31.647  17.167   6.276  0.00  0.00     0.079 A 
HETATM   17  C   UNK N   1      31.327  17.422   7.642  0.00  0.00     0.027 A 
HETATM   18  C   UNK N   1      32.330  17.721   8.551  0.00  0.00     0.031 A 
BRANCH  16  19
HETATM   19  S   UNK N   1      30.469  16.482   5.020  0.00  0.00     0.256 S 
HETATM   20  O   UNK N   1      29.379  17.356   4.380  0.00  0.00    -0.201 OA
HETATM   21  O   UNK N   1      29.655  16.983   6.228  0.00  0.00    -0.201 OA
BRANCH  19  22
HETATM   22  N   UNK N   1      31.342  17.813   4.255  0.00  0.00    -0.324 N 
HETATM   23  H   UNK N   1      31.982  18.415   3.737  0.00  0.00     0.169 HD
HETATM   24  H   UNK N   1      30.738  18.559   4.600  0.00  0.00     0.169 HD
ENDBRANCH  19  22
ENDBRANCH  16  19
ENDBRANCH   9  13
BRANCH   1  25
HETATM   25  C   UNK N   1      36.630  14.024  11.692  0.00  0.00     0.216 C 
HETATM   26  S   UNK N   1      37.347  12.890  11.168  0.00  0.00    -0.038 SA
BRANCH  25  27
HETATM   27  N   UNK N   1      36.619  14.350  13.084  0.00  0.00    -0.326 N 
HETATM   28  H   UNK N   1      37.146  15.157  13.283  0.00  0.00     0.168 HD
BRANCH  27  29
HETATM   29  C   UNK N   1      36.026  13.788  14.256  0.00  0.00     0.112 A 
HETATM   30  C   UNK N   1      36.551  14.213  15.491  0.00  0.00     0.146 A 
HETATM   31  F   UNK N   1      37.563  15.116  15.526  0.00  0.00    -0.204 F 
HETATM   32  C   UNK N   1      36.057  13.702  16.692  0.00  0.00     0.045 A 
HETATM   33  C   UNK N   1      35.035  12.758  16.682  0.00  0.00     0.006 A 
HETATM   34  C   UNK N   1      34.517  12.307  15.469  0.00  0.00     0.045 A 
HETATM   35  C   UNK N   1      35.004  12.804  14.257  0.00  0.00     0.146 A 
HETATM   36  F   UNK N   1      34.489  12.280  13.127  0.00  0.00    -0.204 F 
ENDBRANCH  27  29
ENDBRANCH  25  27
ENDBRANCH   1  25
TORSDOF 6
ENDMDL
MODEL 2
REMARK VINA RESULT:      -8.1      1.599      2.336
REMARK  6 active torsions:
REMARK  status: ('A' for Active; 'I' for Inactive)
REMARK    1  A    between atoms: C_8  and  N_9 
REMARK    2  A    between atoms: N_9  and  C_10 
REMARK    3  A    between atoms: C_10  and  N_12 
REMARK       I    between atoms: C_15  and  N_16 
REMARK       I    between atoms: C_19  and  N_20 
REMARK    4  A    between atoms: N_20  and  C_21 
REMARK    5  A    between atoms: C_26  and  S_27 
REMARK    6  A    between atoms: S_27  and  N_30 
ROOT
HETATM    1  N   UNK N   1      34.821  14.293  10.896  0.00  0.00    -0.044 N 
HETATM    2  N   UNK N   1      34.738  15.615  10.956  0.00  0.00    -0.108 N 
ATOM      3  HN  UNK N   1      35.122  16.224  11.678  1.00  0.00     0.207 HD
HETATM    4  C   UNK N   1      34.197  13.889   9.774  0.00  0.00     0.714 A 
HETATM    5  N   UNK N   1      34.102  12.555   9.327  0.00  0.00    -0.232 N 
HETATM    6  N   UNK N   1      33.708  14.923   9.094  0.00  0.00    -0.019 N 
ATOM      7  HN  UNK N   1      33.206  14.917   8.206  1.00  0.00     0.203 HD
HETATM    8  C   UNK N   1      34.039  15.985   9.862  0.00  0.00     0.712 A 
HETATM    9  N   UNK N   1      33.761  17.327   9.485  0.00  0.00    -0.190 N 
HETATM   10  H   UNK N   1      34.354  11.815   9.925  0.00  0.00     0.174 HD
HETATM   11  H   UNK N   1      33.783  12.364   8.416  0.00  0.00     0.174 HD
HETATM   12  H   UNK N   1      33.984  18.079  10.080  0.00  0.00     0.184 HD
ENDROOT
BRANCH   9  13
HETATM   13  C   UNK N   1      33.152  17.550   8.224  0.00  0.00     0.049 A 
HETATM   14  C   UNK N   1      33.961  17.615   7.092  0.00  0.00     0.031 A 
HETATM   15  C   UNK N   1      33.408  17.427   5.822  0.00  0.00     0.027 A 
HETATM   16  C   UNK N   1      32.038  17.160   5.663  0.00  0.00     0.079 A 
HETATM   17  C   UNK N   1      31.210  17.174   6.824  0.00  0.00     0.027 A 
HETATM   18  C   UNK N   1      31.769  17.365   8.078  0.00  0.00     0.031 A 
BRANCH  16  19
HETATM   19  S   UNK N   1      31.487  16.637   3.972  0.00  0.00     0.256 S 
HETATM   20  O   UNK N   1      32.497  16.235   2.887  0.00  0.00    -0.201 OA
HETATM   21  O   UNK N   1      32.376  17.887   3.829  0.00  0.00    -0.201 OA
BRANCH  19  22
HETATM   22  N   UNK N   1      32.398  15.295   4.671  0.00  0.00    -0.324 N 
HETATM   23  H   UNK N   1      32.743  14.397   5.011  0.00  0.00     0.169 HD
HETATM   24  H   UNK N   1      33.210  15.844   4.955  0.00  0.00     0.169 HD
ENDBRANCH  19  22
ENDBRANCH  16  19
ENDBRANCH   9  13
BRANCH   1  25
HETATM   25  C   UNK N   1      35.444  13.435  11.868  0.00  0.00     0.216 C 
HETATM   26  S   UNK N   1      36.850  13.143  11.758  0.00  0.00    -0.038 SA
BRANCH  25  27
HETATM   27  N   UNK N   1      34.603  12.814  12.844  0.00  0.00    -0.326 N 
HETATM   28  H   UNK N   1      33.661  12.788  12.561  0.00  0.00     0.168 HD
BRANCH  27  29
HETATM   29  C   UNK N   1      34.801  12.222  14.128  0.00  0.00     0.112 A 
HETATM   30  C   UNK N   1      34.167  10.985  14.355  0.00  0.00     0.146 A 
HETATM   31  F   UNK N   1      33.420  10.415  13.377  0.00  0.00    -0.204 F 
HETATM   32  C   UNK N   1      34.278  10.340  15.587  0.00  0.00     0.045 A 
HETATM   33  C   UNK N   1      35.020  10.916  16.613  0.00  0.00     0.006 A 
HETATM   34  C   UNK N   1      35.636  12.151  16.418  0.00  0.00     0.045 A 
HETATM   35  C   UNK N   1      35.531  12.813  15.192  0.00  0.00     0.146 A 
HETATM   36  F   UNK N   1      36.111  14.027  15.097  0.00  0.00    -0.204 F 
ENDBRANCH  27  29
ENDBRANCH  25  27
ENDBRANCH   1  25
TORSDOF 6
ENDMDL
MODEL 3
REMARK VINA RESULT:      -8.0      4.772      8.725
REMARK  6 active torsions:
REMARK  status: ('A' for Active; 'I' for Inactive)
REMARK    1  A    between atoms: C_8  and  N_9 
REMARK    2  A    between atoms: N_9  and  C_10 
REMARK    3  A    between atoms: C_10  and  N_12 
REMARK       I    between atoms: C_15  and  N_16 
REMARK       I    between atoms: C_19  and  N_20 
REMARK    4  A    between atoms: N_20  and  C_21 
REMARK    5  A    between atoms: C_26  and  S_27 
REMARK    6  A    between atoms: S_27  and  N_30 
ROOT
HETATM    1  N   UNK N   1      33.903  16.488   9.584  0.00  0.00    -0.044 N 
HETATM    2  N   UNK N   1      35.005  16.764  10.268  0.00  0.00    -0.108 N 
ATOM      3  HN  UNK N   1      35.510  17.649  10.291  1.00  0.00     0.207 HD
HETATM    4  C   UNK N   1      33.559  15.214   9.849  0.00  0.00     0.714 A 
HETATM    5  N   UNK N   1      32.419  14.554   9.346  0.00  0.00    -0.232 N 
HETATM    6  N   UNK N   1      34.414  14.649  10.698  0.00  0.00    -0.019 N 
ATOM      7  HN  UNK N   1      34.393  13.705  11.084  1.00  0.00     0.203 HD
HETATM    8  C   UNK N   1      35.317  15.628  10.927  0.00  0.00     0.712 A 
HETATM    9  N   UNK N   1      36.400  15.483  11.837  0.00  0.00    -0.190 N 
HETATM   10  H   UNK N   1      31.894  14.960   8.619  0.00  0.00     0.174 HD
HETATM   11  H   UNK N   1      32.148  13.686   9.723  0.00  0.00     0.174 HD
HETATM   12  H   UNK N   1      37.062  16.201  11.958  0.00  0.00     0.184 HD
ENDROOT
BRANCH   9  13
HETATM   13  C   UNK N   1      36.497  14.270  12.565  0.00  0.00     0.049 A 
HETATM   14  C   UNK N   1      35.826  14.164  13.782  0.00  0.00     0.031 A 
HETATM   15  C   UNK N   1      35.554  12.906  14.326  0.00  0.00     0.027 A 
HETATM   16  C   UNK N   1      35.937  11.731  13.658  0.00  0.00     0.079 A 
HETATM   17  C   UNK N   1      36.690  11.857  12.454  0.00  0.00     0.027 A 
HETATM   18  C   UNK N   1      36.958  13.110  11.924  0.00  0.00     0.031 A 
BRANCH  16  19
HETATM   19  S   UNK N   1      35.261  10.140  14.326  0.00  0.00     0.256 S 
HETATM   20  O   UNK N   1      34.117  10.120  15.351  0.00  0.00    -0.201 OA
HETATM   21  O   UNK N   1      35.820  10.963  15.502  0.00  0.00    -0.201 OA
BRANCH  19  22
HETATM   22  N   UNK N   1      33.929  10.993  13.540  0.00  0.00    -0.324 N 
HETATM   23  H   UNK N   1      33.272  11.672  13.155  0.00  0.00     0.169 HD
HETATM   24  H   UNK N   1      33.427  10.160  13.230  0.00  0.00     0.169 HD
ENDBRANCH  19  22
ENDBRANCH  16  19
ENDBRANCH   9  13
BRANCH   1  25
HETATM   25  C   UNK N   1      33.207  17.380   8.695  0.00  0.00     0.216 C 
HETATM   26  S   UNK N   1      33.887  17.900   7.537  0.00  0.00    -0.038 SA
BRANCH  25  27
HETATM   27  N   UNK N   1      31.894  17.803   9.070  0.00  0.00    -0.326 N 
HETATM   28  H   UNK N   1      31.884  18.257   9.944  0.00  0.00     0.168 HD
BRANCH  27  29
HETATM   29  C   UNK N   1      30.594  17.727   8.484  0.00  0.00     0.112 A 
HETATM   30  C   UNK N   1      29.571  18.450   9.126  0.00  0.00     0.146 A 
HETATM   31  F   UNK N   1      29.847  19.176  10.239  0.00  0.00    -0.204 F 
HETATM   32  C   UNK N   1      28.262  18.418   8.645  0.00  0.00     0.045 A 
HETATM   33  C   UNK N   1      27.950  17.664   7.519  0.00  0.00     0.006 A 
HETATM   34  C   UNK N   1      28.943  16.922   6.881  0.00  0.00     0.045 A 
HETATM   35  C   UNK N   1      30.258  16.939   7.353  0.00  0.00     0.146 A 
HETATM   36  F   UNK N   1      31.150  16.155   6.714  0.00  0.00    -0.204 F 
ENDBRANCH  27  29
ENDBRANCH  25  27
ENDBRANCH   1  25
TORSDOF 6
ENDMDL
MODEL 4
REMARK VINA RESULT:      -7.9      1.440      2.162
REMARK  6 active torsions:
REMARK  status: ('A' for Active; 'I' for Inactive)
REMARK    1  A    between atoms: C_8  and  N_9 
REMARK    2  A    between atoms: N_9  and  C_10 
REMARK    3  A    between atoms: C_10  and  N_12 
REMARK       I    between atoms: C_15  and  N_16 
REMARK       I    between atoms: C_19  and  N_20 
REMARK    4  A    between atoms: N_20  and  C_21 
REMARK    5  A    between atoms: C_26  and  S_27 
REMARK    6  A    between atoms: S_27  and  N_30 
ROOT
HETATM    1  N   UNK N   1      34.294  13.952  10.173  0.00  0.00    -0.044 N 
HETATM    2  N   UNK N   1      34.465  15.267  10.172  0.00  0.00    -0.108 N 
ATOM      3  HN  UNK N   1      35.191  15.794  10.657  1.00  0.00     0.207 HD
HETATM    4  C   UNK N   1      33.232  13.672   9.394  0.00  0.00     0.714 A 
HETATM    5  N   UNK N   1      32.751  12.379   9.103  0.00  0.00    -0.232 N 
HETATM    6  N   UNK N   1      32.705  14.780   8.879  0.00  0.00    -0.019 N 
ATOM      7  HN  UNK N   1      31.911  14.868   8.245  1.00  0.00     0.203 HD
HETATM    8  C   UNK N   1      33.478  15.762   9.396  0.00  0.00     0.712 A 
HETATM    9  N   UNK N   1      33.309  17.133   9.063  0.00  0.00    -0.190 N 
HETATM   10  H   UNK N   1      33.081  11.604   9.611  0.00  0.00     0.174 HD
HETATM   11  H   UNK N   1      32.082  12.252   8.391  0.00  0.00     0.174 HD
HETATM   12  H   UNK N   1      33.865  17.829   9.482  0.00  0.00     0.184 HD
ENDROOT
BRANCH   9  13
HETATM   13  C   UNK N   1      32.315  17.467   8.109  0.00  0.00     0.049 A 
HETATM   14  C   UNK N   1      32.587  17.262   6.758  0.00  0.00     0.031 A 
HETATM   15  C   UNK N   1      31.542  17.186   5.834  0.00  0.00     0.027 A 
HETATM   16  C   UNK N   1      30.204  17.303   6.246  0.00  0.00     0.079 A 
HETATM   17  C   UNK N   1      29.945  17.590   7.619  0.00  0.00     0.027 A 
HETATM   18  C   UNK N   1      30.990  17.667   8.526  0.00  0.00     0.031 A 
BRANCH  16  19
HETATM   19  S   UNK N   1      28.909  16.888   4.986  0.00  0.00     0.256 S 
HETATM   20  O   UNK N   1      28.146  17.985   4.228  0.00  0.00    -0.201 OA
HETATM   21  O   UNK N   1      28.249  17.708   6.111  0.00  0.00    -0.201 OA
BRANCH  19  22
HETATM   22  N   UNK N   1      30.159  17.834   4.170  0.00  0.00    -0.324 N 
HETATM   23  H   UNK N   1      31.014  18.202   3.754  0.00  0.00     0.169 HD
HETATM   24  H   UNK N   1      29.564  18.626   3.929  0.00  0.00     0.169 HD
ENDBRANCH  19  22
ENDBRANCH  16  19
ENDBRANCH   9  13
BRANCH   1  25
HETATM   25  C   UNK N   1      35.084  12.991  10.897  0.00  0.00     0.216 C 
HETATM   26  S   UNK N   1      36.281  12.463  10.298  0.00  0.00    -0.038 SA
BRANCH  25  27
HETATM   27  N   UNK N   1      34.574  12.516  12.145  0.00  0.00    -0.326 N 
HETATM   28  H   UNK N   1      33.739  12.006  12.036  0.00  0.00     0.168 HD
BRANCH  27  29
HETATM   29  C   UNK N   1      34.983  12.602  13.510  0.00  0.00     0.112 A 
HETATM   30  C   UNK N   1      34.394  11.685  14.402  0.00  0.00     0.146 A 
HETATM   31  F   UNK N   1      33.493  10.778  13.948  0.00  0.00    -0.204 F 
HETATM   32  C   UNK N   1      34.709  11.706  15.761  0.00  0.00     0.045 A 
HETATM   33  C   UNK N   1      35.614  12.641  16.254  0.00  0.00     0.006 A 
HETATM   34  C   UNK N   1      36.190  13.572  15.392  0.00  0.00     0.045 A 
HETATM   35  C   UNK N   1      35.882  13.569  14.029  0.00  0.00     0.146 A 
HETATM   36  F   UNK N   1      36.440  14.534  13.270  0.00  0.00    -0.204 F 
ENDBRANCH  27  29
ENDBRANCH  25  27
ENDBRANCH   1  25
TORSDOF 6
ENDMDL
MODEL 5
REMARK VINA RESULT:      -7.7      2.154      2.776
REMARK  6 active torsions:
REMARK  status: ('A' for Active; 'I' for Inactive)
REMARK    1  A    between atoms: C_8  and  N_9 
REMARK    2  A    between atoms: N_9  and  C_10 
REMARK    3  A    between atoms: C_10  and  N_12 
REMARK       I    between atoms: C_15  and  N_16 
REMARK       I    between atoms: C_19  and  N_20 
REMARK    4  A    between atoms: N_20  and  C_21 
REMARK    5  A    between atoms: C_26  and  S_27 
REMARK    6  A    between atoms: S_27  and  N_30 
ROOT
HETATM    1  N   UNK N   1      33.760  14.909   9.762  0.00  0.00    -0.044 N 
HETATM    2  N   UNK N   1      33.567  16.197   9.516  0.00  0.00    -0.108 N 
ATOM      3  HN  UNK N   1      34.162  16.974   9.802  1.00  0.00     0.207 HD
HETATM    4  C   UNK N   1      32.751  14.222   9.194  0.00  0.00     0.714 A 
HETATM    5  N   UNK N   1      32.615  12.819   9.194  0.00  0.00    -0.232 N 
HETATM    6  N   UNK N   1      31.899  15.038   8.577  0.00  0.00    -0.019 N 
ATOM      7  HN  UNK N   1      31.058  14.797   8.052  1.00  0.00     0.203 HD
HETATM    8  C   UNK N   1      32.418  16.264   8.811  0.00  0.00     0.712 A 
HETATM    9  N   UNK N   1      31.855  17.456   8.279  0.00  0.00    -0.190 N 
HETATM   10  H   UNK N   1      33.188  12.268   9.775  0.00  0.00     0.174 HD
HETATM   11  H   UNK N   1      31.947  12.390   8.612  0.00  0.00     0.174 HD
HETATM   12  H   UNK N   1      32.235  18.338   8.493  0.00  0.00     0.184 HD
ENDROOT
BRANCH   9  13
HETATM   13  C   UNK N   1      30.727  17.334   7.427  0.00  0.00     0.049 A 
HETATM   14  C   UNK N   1      29.464  17.618   7.943  0.00  0.00     0.031 A 
HETATM   15  C   UNK N   1      28.402  17.905   7.082  0.00  0.00     0.027 A 
HETATM   16  C   UNK N   1      28.585  17.923   5.690  0.00  0.00     0.079 A 
HETATM   17  C   UNK N   1      29.863  17.554   5.174  0.00  0.00     0.027 A 
HETATM   18  C   UNK N   1      30.909  17.268   6.038  0.00  0.00     0.031 A 
BRANCH  16  19
HETATM   19  S   UNK N   1      27.189  18.605   4.679  0.00  0.00     0.256 S 
HETATM   20  O   UNK N   1      27.414  19.725   3.651  0.00  0.00    -0.201 OA
HETATM   21  O   UNK N   1      27.785  19.749   5.521  0.00  0.00    -0.201 OA
BRANCH  19  22
HETATM   22  N   UNK N   1      28.392  17.960   3.556  0.00  0.00    -0.324 N 
HETATM   23  H   UNK N   1      29.207  17.769   2.974  0.00  0.00     0.169 HD
HETATM   24  H   UNK N   1      27.847  17.150   3.258  0.00  0.00     0.169 HD
ENDBRANCH  19  22
ENDBRANCH  16  19
ENDBRANCH   9  13
BRANCH   1  25
HETATM   25  C   UNK N   1      34.842  14.340  10.521  0.00  0.00     0.216 C 
HETATM   26  S   UNK N   1      36.062  13.972   9.852  0.00  0.00    -0.038 SA
BRANCH  25  27
HETATM   27  N   UNK N   1      34.608  14.058  11.903  0.00  0.00    -0.326 N 
HETATM   28  H   UNK N   1      33.805  14.512  12.246  0.00  0.00     0.168 HD
BRANCH  27  29
HETATM   29  C   UNK N   1      35.259  13.277  12.907  0.00  0.00     0.112 A 
HETATM   30  C   UNK N   1      36.163  13.956  13.745  0.00  0.00     0.146 A 
HETATM   31  F   UNK N   1      36.374  15.287  13.580  0.00  0.00    -0.204 F 
HETATM   32  C   UNK N   1      36.867  13.276  14.739  0.00  0.00     0.045 A 
HETATM   33  C   UNK N   1      36.684  11.908  14.912  0.00  0.00     0.006 A 
HETATM   34  C   UNK N   1      35.811  11.212  14.078  0.00  0.00     0.045 A 
HETATM   35  C   UNK N   1      35.101  11.877  13.075  0.00  0.00     0.146 A 
HETATM   36  F   UNK N   1      34.316  11.125  12.276  0.00  0.00    -0.204 F 
ENDBRANCH  27  29
ENDBRANCH  25  27
ENDBRANCH   1  25
TORSDOF 6
ENDMDL
MODEL 6
REMARK VINA RESULT:      -7.6      2.299      3.586
REMARK  6 active torsions:
REMARK  status: ('A' for Active; 'I' for Inactive)
REMARK    1  A    between atoms: C_8  and  N_9 
REMARK    2  A    between atoms: N_9  and  C_10 
REMARK    3  A    between atoms: C_10  and  N_12 
REMARK       I    between atoms: C_15  and  N_16 
REMARK       I    between atoms: C_19  and  N_20 
REMARK    4  A    between atoms: N_20  and  C_21 
REMARK    5  A    between atoms: C_26  and  S_27 
REMARK    6  A    between atoms: S_27  and  N_30 
ROOT
HETATM    1  N   UNK N   1      35.508  14.762  11.209  0.00  0.00    -0.044 N 
HETATM    2  N   UNK N   1      35.572  16.071  11.012  0.00  0.00    -0.108 N 
ATOM      3  HN  UNK N   1      36.170  16.738  11.499  1.00  0.00     0.207 HD
HETATM    4  C   UNK N   1      34.606  14.257  10.347  0.00  0.00     0.714 A 
HETATM    5  N   UNK N   1      34.279  12.892  10.211  0.00  0.00    -0.232 N 
HETATM    6  N   UNK N   1      34.079  15.212   9.584  0.00  0.00    -0.019 N 
ATOM      7  HN  UNK N   1      33.388  15.120   8.839  1.00  0.00     0.203 HD
HETATM    8  C   UNK N   1      34.681  16.336  10.033  0.00  0.00     0.712 A 
HETATM    9  N   UNK N   1      34.459  17.616   9.456  0.00  0.00    -0.190 N 
HETATM   10  H   UNK N   1      34.588  12.242  10.883  0.00  0.00     0.174 HD
HETATM   11  H   UNK N   1      33.742  12.589   9.444  0.00  0.00     0.174 HD
HETATM   12  H   UNK N   1      34.886  18.421   9.826  0.00  0.00     0.184 HD
ENDROOT
BRANCH   9  13
HETATM   13  C   UNK N   1      33.601  17.695   8.329  0.00  0.00     0.049 A 
HETATM   14  C   UNK N   1      34.142  17.497   7.060  0.00  0.00     0.031 A 
HETATM   15  C   UNK N   1      33.312  17.165   5.987  0.00  0.00     0.027 A 
HETATM   16  C   UNK N   1      31.926  17.015   6.164  0.00  0.00     0.079 A 
HETATM   17  C   UNK N   1      31.378  17.297   7.450  0.00  0.00     0.027 A 
HETATM   18  C   UNK N   1      32.211  17.629   8.508  0.00  0.00     0.031 A 
BRANCH  16  19
HETATM   19  S   UNK N   1      30.983  16.288   4.744  0.00  0.00     0.256 S 
HETATM   20  O   UNK N   1      29.778  17.013   4.125  0.00  0.00    -0.201 OA
HETATM   21  O   UNK N   1      30.018  16.460   5.933  0.00  0.00    -0.201 OA
BRANCH  19  22
HETATM   22  N   UNK N   1      31.613  17.851   4.216  0.00  0.00    -0.324 N 
HETATM   23  H   UNK N   1      32.143  18.709   4.061  0.00  0.00     0.169 HD
HETATM   24  H   UNK N   1      30.872  18.052   3.544  0.00  0.00     0.169 HD
ENDBRANCH  19  22
ENDBRANCH  16  19
ENDBRANCH   9  13
BRANCH   1  25
HETATM   25  C   UNK N   1      36.250  14.010  12.187  0.00  0.00     0.216 C 
HETATM   26  S   UNK N   1      35.733  13.883  13.524  0.00  0.00    -0.038 SA
BRANCH  25  27
HETATM   27  N   UNK N   1      37.537  13.515  11.809  0.00  0.00    -0.326 N 
HETATM   28  H   UNK N   1      38.240  13.784  12.442  0.00  0.00     0.168 HD
BRANCH  27  29
HETATM   29  C   UNK N   1      38.048  12.725  10.734  0.00  0.00     0.112 A 
HETATM   30  C   UNK N   1      38.656  13.423   9.674  0.00  0.00     0.146 A 
HETATM   31  F   UNK N   1      38.739  14.777   9.710  0.00  0.00    -0.204 F 
HETATM   32  C   UNK N   1      39.163  12.742   8.567  0.00  0.00     0.045 A 
HETATM   33  C   UNK N   1      39.069  11.355   8.496  0.00  0.00     0.006 A 
HETATM   34  C   UNK N   1      38.450  10.647   9.525  0.00  0.00     0.045 A 
HETATM   35  C   UNK N   1      37.933  11.313  10.639  0.00  0.00     0.146 A 
HETATM   36  F   UNK N   1      37.303  10.564  11.566  0.00  0.00    -0.204 F 
ENDBRANCH  27  29
ENDBRANCH  25  27
ENDBRANCH   1  25
TORSDOF 6
ENDMDL
MODEL 7
REMARK VINA RESULT:      -7.6      6.199     11.047
REMARK  6 active torsions:
REMARK  status: ('A' for Active; 'I' for Inactive)
REMARK    1  A    between atoms: C_8  and  N_9 
REMARK    2  A    between atoms: N_9  and  C_10 
REMARK    3  A    between atoms: C_10  and  N_12 
REMARK       I    between atoms: C_15  and  N_16 
REMARK       I    between atoms: C_19  and  N_20 
REMARK    4  A    between atoms: N_20  and  C_21 
REMARK    5  A    between atoms: C_26  and  S_27 
REMARK    6  A    between atoms: S_27  and  N_30 
ROOT
HETATM    1  N   UNK N   1      28.071  18.559   6.114  0.00  0.00    -0.044 N 
HETATM    2  N   UNK N   1      29.098  17.908   5.585  0.00  0.00    -0.108 N 
ATOM      3  HN  UNK N   1      29.258  17.708   4.599  1.00  0.00     0.207 HD
HETATM    4  C   UNK N   1      28.258  18.617   7.446  0.00  0.00     0.714 A 
HETATM    5  N   UNK N   1      27.407  19.266   8.364  0.00  0.00    -0.232 N 
HETATM    6  N   UNK N   1      29.394  18.020   7.800  0.00  0.00    -0.019 N 
ATOM      7  HN  UNK N   1      29.796  17.926   8.733  1.00  0.00     0.203 HD
HETATM    8  C   UNK N   1      29.887  17.567   6.626  0.00  0.00     0.712 A 
HETATM    9  N   UNK N   1      31.139  16.904   6.518  0.00  0.00    -0.190 N 
HETATM   10  H   UNK N   1      26.516  19.572   8.078  0.00  0.00     0.174 HD
HETATM   11  H   UNK N   1      27.703  19.411   9.291  0.00  0.00     0.174 HD
HETATM   12  H   UNK N   1      31.457  16.555   5.655  0.00  0.00     0.184 HD
ENDROOT
BRANCH   9  13
HETATM   13  C   UNK N   1      31.917  16.759   7.696  0.00  0.00     0.049 A 
HETATM   14  C   UNK N   1      31.806  15.581   8.431  0.00  0.00     0.031 A 
HETATM   15  C   UNK N   1      32.809  15.221   9.335  0.00  0.00     0.027 A 
HETATM   16  C   UNK N   1      33.945  16.027   9.513  0.00  0.00     0.079 A 
HETATM   17  C   UNK N   1      34.006  17.267   8.812  0.00  0.00     0.027 A 
HETATM   18  C   UNK N   1      33.004  17.617   7.920  0.00  0.00     0.031 A 
BRANCH  16  19
HETATM   19  S   UNK N   1      35.330  15.300  10.507  0.00  0.00     0.256 S 
HETATM   20  O   UNK N   1      36.751  15.881  10.450  0.00  0.00    -0.201 OA
HETATM   21  O   UNK N   1      35.698  15.201   9.014  0.00  0.00    -0.201 OA
BRANCH  19  22
HETATM   22  N   UNK N   1      35.153  16.987  11.000  0.00  0.00    -0.324 N 
HETATM   23  H   UNK N   1      34.933  17.979  11.091  0.00  0.00     0.169 HD
HETATM   24  H   UNK N   1      35.680  16.907  11.871  0.00  0.00     0.169 HD
ENDBRANCH  19  22
ENDBRANCH  16  19
ENDBRANCH   9  13
BRANCH   1  25
HETATM   25  C   UNK N   1      26.939  19.089   5.400  0.00  0.00     0.216 C 
HETATM   26  S   UNK N   1      27.040  20.379   4.770  0.00  0.00    -0.038 SA
BRANCH  25  27
HETATM   27  N   UNK N   1      25.717  18.348   5.446  0.00  0.00    -0.326 N 
HETATM   28  H   UNK N   1      25.192  18.547   6.255  0.00  0.00     0.168 HD
BRANCH  27  29
HETATM   29  C   UNK N   1      25.074  17.391   4.604  0.00  0.00     0.112 A 
HETATM   30  C   UNK N   1      23.695  17.198   4.809  0.00  0.00     0.146 A 
HETATM   31  F   UNK N   1      23.044  17.908   5.765  0.00  0.00    -0.204 F 
HETATM   32  C   UNK N   1      22.983  16.266   4.054  0.00  0.00     0.045 A 
HETATM   33  C   UNK N   1      23.633  15.510   3.083  0.00  0.00     0.006 A 
HETATM   34  C   UNK N   1      25.002  15.669   2.880  0.00  0.00     0.045 A 
HETATM   35  C   UNK N   1      25.732  16.594   3.631  0.00  0.00     0.146 A 
HETATM   36  F   UNK N   1      27.061  16.653   3.411  0.00  0.00    -0.204 F 
ENDBRANCH  27  29
ENDBRANCH  25  27
ENDBRANCH   1  25
TORSDOF 6
ENDMDL
MODEL 8
REMARK VINA RESULT:      -7.6      2.751      4.154
REMARK  6 active torsions:
REMARK  status: ('A' for Active; 'I' for Inactive)
REMARK    1  A    between atoms: C_8  and  N_9 
REMARK    2  A    between atoms: N_9  and  C_10 
REMARK    3  A    between atoms: C_10  and  N_12 
REMARK       I    between atoms: C_15  and  N_16 
REMARK       I    between atoms: C_19  and  N_20 
REMARK    4  A    between atoms: N_20  and  C_21 
REMARK    5  A    between atoms: C_26  and  S_27 
REMARK    6  A    between atoms: S_27  and  N_30 
ROOT
HETATM    1  N   UNK N   1      36.133  11.538  13.466  0.00  0.00    -0.044 N 
HETATM    2  N   UNK N   1      37.051  12.462  13.219  0.00  0.00    -0.108 N 
ATOM      3  HN  UNK N   1      37.976  12.540  13.641  1.00  0.00     0.207 HD
HETATM    4  C   UNK N   1      35.067  11.793  12.684  0.00  0.00     0.714 A 
HETATM    5  N   UNK N   1      33.895  11.012  12.619  0.00  0.00    -0.232 N 
HETATM    6  N   UNK N   1      35.271  12.868  11.926  0.00  0.00    -0.019 N 
ATOM      7  HN  UNK N   1      34.647  13.282  11.233  1.00  0.00     0.203 HD
HETATM    8  C   UNK N   1      36.505  13.279  12.294  0.00  0.00     0.712 A 
HETATM    9  N   UNK N   1      37.164  14.383  11.688  0.00  0.00    -0.190 N 
HETATM   10  H   UNK N   1      33.732  10.312  13.291  0.00  0.00     0.174 HD
HETATM   11  H   UNK N   1      33.240  11.168  11.901  0.00  0.00     0.174 HD
HETATM   12  H   UNK N   1      38.049  14.680  11.999  0.00  0.00     0.184 HD
ENDROOT
BRANCH   9  13
HETATM   13  C   UNK N   1      36.506  15.044  10.619  0.00  0.00     0.049 A 
HETATM   14  C   UNK N   1      36.318  14.356   9.421  0.00  0.00     0.031 A 
HETATM   15  C   UNK N   1      35.351  14.787   8.509  0.00  0.00     0.027 A 
HETATM   16  C   UNK N   1      34.548  15.907   8.782  0.00  0.00     0.079 A 
HETATM   17  C   UNK N   1      34.805  16.645   9.975  0.00  0.00     0.027 A 
HETATM   18  C   UNK N   1      35.769  16.211  10.872  0.00  0.00     0.031 A 
BRANCH  16  19
HETATM   19  S   UNK N   1      33.115  16.196   7.643  0.00  0.00     0.256 S 
HETATM   20  O   UNK N   1      31.923  17.072   8.058  0.00  0.00    -0.201 OA
HETATM   21  O   UNK N   1      32.592  15.509   8.919  0.00  0.00    -0.201 OA
BRANCH  19  22
HETATM   22  N   UNK N   1      33.817  17.772   8.022  0.00  0.00    -0.324 N 
HETATM   23  H   UNK N   1      34.070  18.758   8.089  0.00  0.00     0.169 HD
HETATM   24  H   UNK N   1      34.499  17.433   8.701  0.00  0.00     0.169 HD
ENDBRANCH  19  22
ENDBRANCH  16  19
ENDBRANCH   9  13
BRANCH   1  25
HETATM   25  C   UNK N   1      36.241  10.464  14.417  0.00  0.00     0.216 C 
HETATM   26  S   UNK N   1      37.053   9.317  14.103  0.00  0.00    -0.038 SA
BRANCH  25  27
HETATM   27  N   UNK N   1      35.435  10.536  15.596  0.00  0.00    -0.326 N 
HETATM   28  H   UNK N   1      34.758   9.822  15.630  0.00  0.00     0.168 HD
BRANCH  27  29
HETATM   29  C   UNK N   1      35.376  11.393  16.737  0.00  0.00     0.112 A 
HETATM   30  C   UNK N   1      35.566  10.784  17.992  0.00  0.00     0.146 A 
HETATM   31  F   UNK N   1      35.797   9.449  18.072  0.00  0.00    -0.204 F 
HETATM   32  C   UNK N   1      35.501  11.533  19.167  0.00  0.00     0.045 A 
HETATM   33  C   UNK N   1      35.243  12.899  19.113  0.00  0.00     0.006 A 
HETATM   34  C   UNK N   1      35.029  13.517  17.882  0.00  0.00     0.045 A 
HETATM   35  C   UNK N   1      35.086  12.782  16.695  0.00  0.00     0.146 A 
HETATM   36  F   UNK N   1      34.816  13.441  15.550  0.00  0.00    -0.204 F 
ENDBRANCH  27  29
ENDBRANCH  25  27
ENDBRANCH   1  25
TORSDOF 6
ENDMDL
MODEL 9
REMARK VINA RESULT:      -7.5      6.742     11.696
REMARK  6 active torsions:
REMARK  status: ('A' for Active; 'I' for Inactive)
REMARK    1  A    between atoms: C_8  and  N_9 
REMARK    2  A    between atoms: N_9  and  C_10 
REMARK    3  A    between atoms: C_10  and  N_12 
REMARK       I    between atoms: C_15  and  N_16 
REMARK       I    between atoms: C_19  and  N_20 
REMARK    4  A    between atoms: N_20  and  C_21 
REMARK    5  A    between atoms: C_26  and  S_27 
REMARK    6  A    between atoms: S_27  and  N_30 
ROOT
HETATM    1  N   UNK N   1      27.776  17.057   5.026  0.00  0.00    -0.044 N 
HETATM    2  N   UNK N   1      29.024  17.266   4.629  0.00  0.00    -0.108 N 
ATOM      3  HN  UNK N   1      29.330  17.612   3.721  1.00  0.00     0.207 HD
HETATM    4  C   UNK N   1      27.815  16.615   6.297  0.00  0.00     0.714 A 
HETATM    5  N   UNK N   1      26.690  16.318   7.094  0.00  0.00    -0.232 N 
HETATM    6  N   UNK N   1      29.066  16.534   6.743  0.00  0.00    -0.019 N 
ATOM      7  HN  UNK N   1      29.393  16.248   7.666  1.00  0.00     0.203 HD
HETATM    8  C   UNK N   1      29.801  16.924   5.678  0.00  0.00     0.712 A 
HETATM    9  N   UNK N   1      31.217  17.047   5.719  0.00  0.00    -0.190 N 
HETATM   10  H   UNK N   1      25.797  16.260   6.685  0.00  0.00     0.174 HD
HETATM   11  H   UNK N   1      26.798  16.169   8.061  0.00  0.00     0.174 HD
HETATM   12  H   UNK N   1      31.729  17.300   4.918  0.00  0.00     0.184 HD
ENDROOT
BRANCH   9  13
HETATM   13  C   UNK N   1      31.869  16.792   6.953  0.00  0.00     0.049 A 
HETATM   14  C   UNK N   1      32.361  15.511   7.198  0.00  0.00     0.031 A 
HETATM   15  C   UNK N   1      33.337  15.310   8.178  0.00  0.00     0.027 A 
HETATM   16  C   UNK N   1      33.846  16.386   8.923  0.00  0.00     0.079 A 
HETATM   17  C   UNK N   1      33.276  17.677   8.715  0.00  0.00     0.027 A 
HETATM   18  C   UNK N   1      32.306  17.865   7.743  0.00  0.00     0.031 A 
BRANCH  16  19
HETATM   19  S   UNK N   1      35.335  16.039   9.971  0.00  0.00     0.256 S 
HETATM   20  O   UNK N   1      35.461  16.598  11.396  0.00  0.00    -0.201 OA
HETATM   21  O   UNK N   1      35.225  17.563   9.770  0.00  0.00    -0.201 OA
BRANCH  19  22
HETATM   22  N   UNK N   1      33.924  15.416  10.832  0.00  0.00    -0.324 N 
HETATM   23  H   UNK N   1      33.166  15.215  11.484  0.00  0.00     0.169 HD
HETATM   24  H   UNK N   1      33.672  14.709  10.141  0.00  0.00     0.169 HD
ENDBRANCH  19  22
ENDBRANCH  16  19
ENDBRANCH   9  13
BRANCH   1  25
HETATM   25  C   UNK N   1      26.588  17.243   4.236  0.00  0.00     0.216 C 
HETATM   26  S   UNK N   1      26.304  16.331   3.159  0.00  0.00    -0.038 SA
BRANCH  25  27
HETATM   27  N   UNK N   1      25.796  18.406   4.489  0.00  0.00    -0.326 N 
HETATM   28  H   UNK N   1      26.191  18.983   5.182  0.00  0.00     0.168 HD
BRANCH  27  29
HETATM   29  C   UNK N   1      24.571  18.934   3.978  0.00  0.00     0.112 A 
HETATM   30  C   UNK N   1      24.659  20.136   3.251  0.00  0.00     0.146 A 
HETATM   31  F   UNK N   1      25.864  20.729   3.061  0.00  0.00    -0.204 F 
HETATM   32  C   UNK N   1      23.515  20.744   2.734  0.00  0.00     0.045 A 
HETATM   33  C   UNK N   1      22.265  20.167   2.935  0.00  0.00     0.006 A 
HETATM   34  C   UNK N   1      22.153  18.989   3.671  0.00  0.00     0.045 A 
HETATM   35  C   UNK N   1      23.288  18.369   4.201  0.00  0.00     0.146 A 
HETATM   36  F   UNK N   1      23.093  17.262   4.946  0.00  0.00    -0.204 F 
ENDBRANCH  27  29
ENDBRANCH  25  27
ENDBRANCH   1  25
TORSDOF 6
ENDMDL
