MODEL 1
REMARK VINA RESULT:      -7.7      0.000      0.000
REMARK  10 active torsions:
REMARK  status: ('A' for Active; 'I' for Inactive)
REMARK       I    between atoms: C_1  and  N_17 
REMARK       I    between atoms: C_1  and  N_18 
REMARK    1  A    between atoms: O_2  and  N_18 
REMARK    2  A    between atoms: O_2  and  C_19 
REMARK    3  A    between atoms: C_3  and  C_19 
REMARK    4  A    between atoms: C_3  and  N_20 
REMARK    5  A    between atoms: C_4  and  C_5 
REMARK       I    between atoms: C_4  and  N_20 
REMARK    6  A    between atoms: C_5  and  C_6 
REMARK    7  A    between atoms: C_10  and  N_25 
REMARK    8  A    between atoms: C_12  and  N_25 
REMARK    9  A    between atoms: C_12  and  C_26 
REMARK   10  A    between atoms: C_26  and  C_29 
ROOT
HETATM    1  C   UNK N   1      32.038  17.183   6.576  0.00  0.00     0.012 C 
HETATM    2  C   UNK N   1      32.313  17.815   7.801  0.00  0.00     0.054 C 
HETATM    3  C   UNK N   1      31.270  18.056   8.700  0.00  0.00     0.026 C 
HETATM    4  C   UNK N   1      29.947  17.810   8.317  0.00  0.00     0.034 C 
HETATM    5  C   UNK N   1      29.683  17.244   7.069  0.00  0.00     0.068 C 
HETATM    6  C   UNK N   1      33.628  18.328   8.082  0.00  0.00     0.100 C 
HETATM    7  C   UNK N   1      30.749  16.840   6.248  0.00  0.00     0.150 C 
HETATM    8  F   UNK N   1      30.536  16.206   5.063  0.00  0.00    -0.203 F 
HETATM    9  N   UNK N   1      34.701  18.723   8.269  0.00  0.00    -0.191 NA
ENDROOT
BRANCH   1  10
HETATM   10  C   UNK N   1      33.053  17.010   5.509  0.00  0.00     0.146 C 
BRANCH  10  11
HETATM   11  C   UNK N   1      33.953  15.937   5.888  0.00  0.00     0.222 C 
HETATM   12  N   UNK N   1      33.445  14.748   6.270  0.00  0.00    -0.359 N 
HETATM   13  H   UNK N   1      32.470  14.629   6.332  0.00  0.00     0.162 HD
HETATM   14  O   UNK N   1      35.156  16.135   5.855  0.00  0.00    -0.273 OA
BRANCH  12  15
HETATM   15  C   UNK N   1      34.317  13.659   6.588  0.00  0.00     0.151 C 
BRANCH  15  16
HETATM   16  C   UNK N   1      34.560  13.622   8.094  0.00  0.00     0.221 C 
BRANCH  16  17
HETATM   17  O   UNK N   1      35.688  14.363   8.524  0.00  0.00    -0.265 OA
BRANCH  17  18
HETATM   18  N   UNK N   1      35.253  15.482   9.143  0.00  0.00    -0.097 N 
HETATM   19  C   UNK N   1      35.760  15.931  10.390  0.00  0.00     0.689 C 
HETATM   20  N   UNK N   1      36.601  15.219  11.041  0.00  0.00    -0.233 N 
HETATM   21  N   UNK N   1      35.237  17.103  10.978  0.00  0.00    -0.233 N 
HETATM   22  H   UNK N   1      37.245  15.645  11.652  0.00  0.00     0.174 HD
ATOM     23  HN  UNK N   1      36.604  14.205  10.927  1.00  0.00     0.174 HD
HETATM   24  H   UNK N   1      34.313  17.440  10.931  0.00  0.00     0.174 HD
HETATM   25  H   UNK N   1      35.872  17.649  11.497  0.00  0.00     0.174 HD
HETATM   26  H   UNK N   1      34.548  16.013   8.707  0.00  0.00     0.213 HD
ENDBRANCH  17  18
ENDBRANCH  16  17
ENDBRANCH  15  16
ENDBRANCH  12  15
ENDBRANCH  10  11
ENDBRANCH   1  10
BRANCH   5  27
HETATM   27  N   UNK N   1      28.368  17.261   6.542  0.00  0.00    -0.381 N 
HETATM   28  H   UNK N   1      27.855  16.430   6.417  0.00  0.00     0.160 HD
BRANCH  27  29
HETATM   29  C   UNK N   1      27.810  18.554   6.197  0.00  0.00     0.206 C 
BRANCH  29  30
HETATM   30  C   UNK N   1      27.873  19.031   4.742  0.00  0.00     0.301 C 
HETATM   31  F   UNK N   1      28.317  18.004   3.913  0.00  0.00    -0.197 F 
HETATM   32  F   UNK N   1      28.700  20.129   4.556  0.00  0.00    -0.197 F 
BRANCH  30  33
HETATM   33  C   UNK N   1      26.447  19.327   4.463  0.00  0.00     0.083 A 
HETATM   34  C   UNK N   1      26.122  20.214   3.418  0.00  0.00     0.031 A 
HETATM   35  C   UNK N   1      24.800  20.334   3.010  0.00  0.00     0.003 A 
HETATM   36  C   UNK N   1      23.819  19.567   3.636  0.00  0.00     0.017 A 
HETATM   37  C   UNK N   1      24.175  18.710   4.681  0.00  0.00     0.088 A 
HETATM   38  N   UNK N   1      25.472  18.603   5.068  0.00  0.00    -0.364 N 
ATOM     39  HN  UNK N   1      25.719  17.969   5.828  1.00  0.00     0.165 HD
ENDBRANCH  30  33
ENDBRANCH  29  30
ENDBRANCH  27  29
ENDBRANCH   5  27
TORSDOF 10
ENDMDL
MODEL 2
REMARK VINA RESULT:      -7.5      4.542     10.575
REMARK  10 active torsions:
REMARK  status: ('A' for Active; 'I' for Inactive)
REMARK       I    between atoms: C_1  and  N_17 
REMARK       I    between atoms: C_1  and  N_18 
REMARK    1  A    between atoms: O_2  and  N_18 
REMARK    2  A    between atoms: O_2  and  C_19 
REMARK    3  A    between atoms: C_3  and  C_19 
REMARK    4  A    between atoms: C_3  and  N_20 
REMARK    5  A    between atoms: C_4  and  C_5 
REMARK       I    between atoms: C_4  and  N_20 
REMARK    6  A    between atoms: C_5  and  C_6 
REMARK    7  A    between atoms: C_10  and  N_25 
REMARK    8  A    between atoms: C_12  and  N_25 
REMARK    9  A    between atoms: C_12  and  C_26 
REMARK   10  A    between atoms: C_26  and  C_29 
ROOT
HETATM    1  C   UNK N   1      26.034  18.689   4.352  0.00  0.00     0.012 C 
HETATM    2  C   UNK N   1      25.885  20.054   4.054  0.00  0.00     0.054 C 
HETATM    3  C   UNK N   1      26.567  21.004   4.820  0.00  0.00     0.026 C 
HETATM    4  C   UNK N   1      27.267  20.606   5.964  0.00  0.00     0.034 C 
HETATM    5  C   UNK N   1      27.350  19.251   6.287  0.00  0.00     0.068 C 
HETATM    6  C   UNK N   1      24.943  20.488   3.055  0.00  0.00     0.100 C 
HETATM    7  C   UNK N   1      26.814  18.293   5.412  0.00  0.00     0.150 C 
HETATM    8  F   UNK N   1      26.948  16.959   5.645  0.00  0.00    -0.203 F 
HETATM    9  N   UNK N   1      24.176  20.793   2.243  0.00  0.00    -0.191 NA
ENDROOT
BRANCH   1  10
HETATM   10  C   UNK N   1      25.248  17.624   3.684  0.00  0.00     0.146 C 
BRANCH  10  11
HETATM   11  C   UNK N   1      23.962  17.506   4.346  0.00  0.00     0.222 C 
HETATM   12  N   UNK N   1      22.871  18.058   3.778  0.00  0.00    -0.359 N 
HETATM   13  H   UNK N   1      22.960  18.574   2.945  0.00  0.00     0.162 HD
HETATM   14  O   UNK N   1      23.895  16.908   5.406  0.00  0.00    -0.273 OA
BRANCH  12  15
HETATM   15  C   UNK N   1      21.584  17.898   4.383  0.00  0.00     0.151 C 
BRANCH  15  16
HETATM   16  C   UNK N   1      20.522  17.760   3.296  0.00  0.00     0.221 C 
BRANCH  16  17
HETATM   17  O   UNK N   1      19.671  18.884   3.162  0.00  0.00    -0.265 OA
BRANCH  17  18
HETATM   18  N   UNK N   1      19.801  19.371   1.909  0.00  0.00    -0.097 N 
HETATM   19  C   UNK N   1      20.548  20.538   1.599  0.00  0.00     0.689 C 
HETATM   20  N   UNK N   1      21.056  21.249   2.535  0.00  0.00    -0.233 N 
HETATM   21  N   UNK N   1      20.619  20.991   0.264  0.00  0.00    -0.233 N 
HETATM   22  H   UNK N   1      21.866  21.783   2.369  0.00  0.00     0.174 HD
ATOM     23  HN  UNK N   1      20.620  21.261   3.458  1.00  0.00     0.174 HD
HETATM   24  H   UNK N   1      19.924  20.929  -0.431  0.00  0.00     0.174 HD
HETATM   25  H   UNK N   1      21.463  21.420  -0.004  0.00  0.00     0.174 HD
HETATM   26  H   UNK N   1      19.356  18.893   1.173  0.00  0.00     0.213 HD
ENDBRANCH  17  18
ENDBRANCH  16  17
ENDBRANCH  15  16
ENDBRANCH  12  15
ENDBRANCH  10  11
ENDBRANCH   1  10
BRANCH   5  27
HETATM   27  N   UNK N   1      27.786  18.850   7.574  0.00  0.00    -0.381 N 
HETATM   28  H   UNK N   1      27.152  18.741   8.319  0.00  0.00     0.160 HD
BRANCH  27  29
HETATM   29  C   UNK N   1      29.205  18.606   7.745  0.00  0.00     0.206 C 
BRANCH  29  30
HETATM   30  C   UNK N   1      29.680  17.205   8.147  0.00  0.00     0.301 C 
HETATM   31  F   UNK N   1      29.052  16.238   7.366  0.00  0.00    -0.197 F 
HETATM   32  F   UNK N   1      29.449  16.906   9.481  0.00  0.00    -0.197 F 
BRANCH  30  33
HETATM   33  C   UNK N   1      31.122  17.271   7.809  0.00  0.00     0.083 A 
HETATM   34  C   UNK N   1      31.522  17.114   6.468  0.00  0.00     0.031 A 
HETATM   35  C   UNK N   1      32.836  17.383   6.110  0.00  0.00     0.003 A 
HETATM   36  C   UNK N   1      33.735  17.813   7.084  0.00  0.00     0.017 A 
HETATM   37  C   UNK N   1      33.309  17.942   8.409  0.00  0.00     0.088 A 
HETATM   38  N   UNK N   1      32.020  17.675   8.743  0.00  0.00    -0.364 N 
ATOM     39  HN  UNK N   1      31.721  17.779   9.713  1.00  0.00     0.165 HD
ENDBRANCH  30  33
ENDBRANCH  29  30
ENDBRANCH  27  29
ENDBRANCH   5  27
TORSDOF 10
ENDMDL
MODEL 3
REMARK VINA RESULT:      -7.2      1.859      2.390
REMARK  10 active torsions:
REMARK  status: ('A' for Active; 'I' for Inactive)
REMARK       I    between atoms: C_1  and  N_17 
REMARK       I    between atoms: C_1  and  N_18 
REMARK    1  A    between atoms: O_2  and  N_18 
REMARK    2  A    between atoms: O_2  and  C_19 
REMARK    3  A    between atoms: C_3  and  C_19 
REMARK    4  A    between atoms: C_3  and  N_20 
REMARK    5  A    between atoms: C_4  and  C_5 
REMARK       I    between atoms: C_4  and  N_20 
REMARK    6  A    between atoms: C_5  and  C_6 
REMARK    7  A    between atoms: C_10  and  N_25 
REMARK    8  A    between atoms: C_12  and  N_25 
REMARK    9  A    between atoms: C_12  and  C_26 
REMARK   10  A    between atoms: C_26  and  C_29 
ROOT
HETATM    1  C   UNK N   1      33.322  16.428   7.051  0.00  0.00     0.012 C 
HETATM    2  C   UNK N   1      33.154  17.548   7.881  0.00  0.00     0.054 C 
HETATM    3  C   UNK N   1      31.870  17.907   8.300  0.00  0.00     0.026 C 
HETATM    4  C   UNK N   1      30.754  17.250   7.773  0.00  0.00     0.034 C 
HETATM    5  C   UNK N   1      30.933  16.180   6.894  0.00  0.00     0.068 C 
HETATM    6  C   UNK N   1      34.271  18.399   8.199  0.00  0.00     0.100 C 
HETATM    7  C   UNK N   1      32.229  15.713   6.622  0.00  0.00     0.150 C 
HETATM    8  F   UNK N   1      32.444  14.620   5.841  0.00  0.00    -0.203 F 
HETATM    9  N   UNK N   1      35.196  19.055   8.431  0.00  0.00    -0.191 NA
ENDROOT
BRANCH   1  10
HETATM   10  C   UNK N   1      34.625  16.053   6.449  0.00  0.00     0.146 C 
BRANCH  10  11
HETATM   11  C   UNK N   1      35.262  15.061   7.294  0.00  0.00     0.222 C 
HETATM   12  N   UNK N   1      35.198  13.758   6.953  0.00  0.00    -0.359 N 
HETATM   13  H   UNK N   1      34.683  13.484   6.160  0.00  0.00     0.162 HD
HETATM   14  O   UNK N   1      35.845  15.428   8.301  0.00  0.00    -0.273 OA
BRANCH  12  15
HETATM   15  C   UNK N   1      35.874  12.772   7.739  0.00  0.00     0.151 C 
BRANCH  15  16
HETATM   16  C   UNK N   1      34.887  12.126   8.707  0.00  0.00     0.221 C 
BRANCH  16  17
HETATM   17  O   UNK N   1      34.737  12.811   9.937  0.00  0.00    -0.265 OA
BRANCH  17  18
HETATM   18  N   UNK N   1      33.488  13.323   9.991  0.00  0.00    -0.097 N 
HETATM   19  C   UNK N   1      33.210  14.666  10.355  0.00  0.00     0.689 C 
HETATM   20  N   UNK N   1      34.152  15.436  10.754  0.00  0.00    -0.233 N 
HETATM   21  N   UNK N   1      31.874  15.117  10.405  0.00  0.00    -0.233 N 
HETATM   22  H   UNK N   1      34.085  16.410  10.625  0.00  0.00     0.174 HD
ATOM     23  HN  UNK N   1      34.975  15.039  11.208  1.00  0.00     0.174 HD
HETATM   24  H   UNK N   1      31.073  14.603  10.660  0.00  0.00     0.174 HD
HETATM   25  H   UNK N   1      31.723  16.057  10.155  0.00  0.00     0.174 HD
HETATM   26  H   UNK N   1      32.732  12.734   9.767  0.00  0.00     0.213 HD
ENDBRANCH  17  18
ENDBRANCH  16  17
ENDBRANCH  15  16
ENDBRANCH  12  15
ENDBRANCH  10  11
ENDBRANCH   1  10
BRANCH   5  27
HETATM   27  N   UNK N   1      29.844  15.698   6.126  0.00  0.00    -0.381 N 
HETATM   28  H   UNK N   1      29.781  14.752   5.863  0.00  0.00     0.160 HD
BRANCH  27  29
HETATM   29  C   UNK N   1      28.827  16.659   5.745  0.00  0.00     0.206 C 
BRANCH  29  30
HETATM   30  C   UNK N   1      29.100  17.614   4.577  0.00  0.00     0.301 C 
HETATM   31  F   UNK N   1      28.776  17.004   3.367  0.00  0.00    -0.197 F 
HETATM   32  F   UNK N   1      30.417  18.042   4.511  0.00  0.00    -0.197 F 
BRANCH  30  33
HETATM   33  C   UNK N   1      28.148  18.714   4.861  0.00  0.00     0.083 A 
HETATM   34  C   UNK N   1      27.974  19.145   6.191  0.00  0.00     0.031 A 
HETATM   35  C   UNK N   1      27.254  20.305   6.444  0.00  0.00     0.003 A 
HETATM   36  C   UNK N   1      26.723  21.027   5.377  0.00  0.00     0.017 A 
HETATM   37  C   UNK N   1      26.900  20.560   4.071  0.00  0.00     0.088 A 
HETATM   38  N   UNK N   1      27.607  19.425   3.840  0.00  0.00    -0.364 N 
ATOM     39  HN  UNK N   1      27.734  19.098   2.881  1.00  0.00     0.165 HD
ENDBRANCH  30  33
ENDBRANCH  29  30
ENDBRANCH  27  29
ENDBRANCH   5  27
TORSDOF 10
ENDMDL
MODEL 4
REMARK VINA RESULT:      -7.1      4.642     10.038
REMARK  10 active torsions:
REMARK  status: ('A' for Active; 'I' for Inactive)
REMARK       I    between atoms: C_1  and  N_17 
REMARK       I    between atoms: C_1  and  N_18 
REMARK    1  A    between atoms: O_2  and  N_18 
REMARK    2  A    between atoms: O_2  and  C_19 
REMARK    3  A    between atoms: C_3  and  C_19 
REMARK    4  A    between atoms: C_3  and  N_20 
REMARK    5  A    between atoms: C_4  and  C_5 
REMARK       I    between atoms: C_4  and  N_20 
REMARK    6  A    between atoms: C_5  and  C_6 
REMARK    7  A    between atoms: C_10  and  N_25 
REMARK    8  A    between atoms: C_12  and  N_25 
REMARK    9  A    between atoms: C_12  and  C_26 
REMARK   10  A    between atoms: C_26  and  C_29 
ROOT
HETATM    1  C   UNK N   1      26.013  18.546   4.355  0.00  0.00     0.012 C 
HETATM    2  C   UNK N   1      25.795  19.932   4.279  0.00  0.00     0.054 C 
HETATM    3  C   UNK N   1      26.480  20.784   5.151  0.00  0.00     0.026 C 
HETATM    4  C   UNK N   1      27.255  20.250   6.185  0.00  0.00     0.034 C 
HETATM    5  C   UNK N   1      27.408  18.866   6.290  0.00  0.00     0.068 C 
HETATM    6  C   UNK N   1      24.785  20.469   3.405  0.00  0.00     0.100 C 
HETATM    7  C   UNK N   1      26.863  18.029   5.303  0.00  0.00     0.150 C 
HETATM    8  F   UNK N   1      27.062  16.683   5.320  0.00  0.00    -0.203 F 
HETATM    9  N   UNK N   1      23.965  20.858   2.687  0.00  0.00    -0.191 NA
ENDROOT
BRANCH   1  10
HETATM   10  C   UNK N   1      25.235  17.559   3.568  0.00  0.00     0.146 C 
BRANCH  10  11
HETATM   11  C   UNK N   1      24.261  16.928   4.439  0.00  0.00     0.222 C 
HETATM   12  N   UNK N   1      23.456  17.697   5.200  0.00  0.00    -0.359 N 
HETATM   13  H   UNK N   1      23.564  18.675   5.194  0.00  0.00     0.162 HD
HETATM   14  O   UNK N   1      24.191  15.711   4.466  0.00  0.00    -0.273 OA
BRANCH  12  15
HETATM   15  C   UNK N   1      22.448  17.096   6.018  0.00  0.00     0.151 C 
BRANCH  15  16
HETATM   16  C   UNK N   1      21.256  18.042   6.137  0.00  0.00     0.221 C 
BRANCH  16  17
HETATM   17  O   UNK N   1      20.946  18.431   7.463  0.00  0.00    -0.265 OA
BRANCH  17  18
HETATM   18  N   UNK N   1      19.987  17.607   7.937  0.00  0.00    -0.097 N 
HETATM   19  C   UNK N   1      19.174  17.919   9.058  0.00  0.00     0.689 C 
HETATM   20  N   UNK N   1      19.394  18.979   9.741  0.00  0.00    -0.233 N 
HETATM   21  N   UNK N   1      18.206  16.993   9.501  0.00  0.00    -0.233 N 
HETATM   22  H   UNK N   1      18.659  19.418  10.228  0.00  0.00     0.174 HD
ATOM     23  HN  UNK N   1      20.335  19.372   9.782  1.00  0.00     0.174 HD
HETATM   24  H   UNK N   1      18.256  16.010   9.477  0.00  0.00     0.174 HD
HETATM   25  H   UNK N   1      17.381  17.375   9.880  0.00  0.00     0.174 HD
HETATM   26  H   UNK N   1      19.845  16.746   7.482  0.00  0.00     0.213 HD
ENDBRANCH  17  18
ENDBRANCH  16  17
ENDBRANCH  15  16
ENDBRANCH  12  15
ENDBRANCH  10  11
ENDBRANCH   1  10
BRANCH   5  27
HETATM   27  N   UNK N   1      27.927  18.294   7.478  0.00  0.00    -0.381 N 
HETATM   28  H   UNK N   1      27.391  18.247   8.301  0.00  0.00     0.160 HD
BRANCH  27  29
HETATM   29  C   UNK N   1      29.283  17.781   7.427  0.00  0.00     0.206 C 
BRANCH  29  30
HETATM   30  C   UNK N   1      30.171  17.889   8.671  0.00  0.00     0.301 C 
HETATM   31  F   UNK N   1      29.807  16.928   9.611  0.00  0.00    -0.197 F 
HETATM   32  F   UNK N   1      30.119  19.135   9.279  0.00  0.00    -0.197 F 
BRANCH  30  33
HETATM   33  C   UNK N   1      31.507  17.572   8.113  0.00  0.00     0.083 A 
HETATM   34  C   UNK N   1      31.609  17.141   6.777  0.00  0.00     0.031 A 
HETATM   35  C   UNK N   1      32.860  17.047   6.182  0.00  0.00     0.003 A 
HETATM   36  C   UNK N   1      33.993  17.392   6.916  0.00  0.00     0.017 A 
HETATM   37  C   UNK N   1      33.857  17.800   8.246  0.00  0.00     0.088 A 
HETATM   38  N   UNK N   1      32.627  17.886   8.813  0.00  0.00    -0.364 N 
ATOM     39  HN  UNK N   1      32.541  18.192   9.783  1.00  0.00     0.165 HD
ENDBRANCH  30  33
ENDBRANCH  29  30
ENDBRANCH  27  29
ENDBRANCH   5  27
TORSDOF 10
ENDMDL
MODEL 5
REMARK VINA RESULT:      -6.9      2.725      4.233
REMARK  10 active torsions:
REMARK  status: ('A' for Active; 'I' for Inactive)
REMARK       I    between atoms: C_1  and  N_17 
REMARK       I    between atoms: C_1  and  N_18 
REMARK    1  A    between atoms: O_2  and  N_18 
REMARK    2  A    between atoms: O_2  and  C_19 
REMARK    3  A    between atoms: C_3  and  C_19 
REMARK    4  A    between atoms: C_3  and  N_20 
REMARK    5  A    between atoms: C_4  and  C_5 
REMARK       I    between atoms: C_4  and  N_20 
REMARK    6  A    between atoms: C_5  and  C_6 
REMARK    7  A    between atoms: C_10  and  N_25 
REMARK    8  A    between atoms: C_12  and  N_25 
REMARK    9  A    between atoms: C_12  and  C_26 
REMARK   10  A    between atoms: C_26  and  C_29 
ROOT
HETATM    1  C   UNK N   1      32.547  16.211   7.514  0.00  0.00     0.012 C 
HETATM    2  C   UNK N   1      32.695  17.408   8.234  0.00  0.00     0.054 C 
HETATM    3  C   UNK N   1      31.561  18.159   8.562  0.00  0.00     0.026 C 
HETATM    4  C   UNK N   1      30.312  17.799   8.046  0.00  0.00     0.034 C 
HETATM    5  C   UNK N   1      30.190  16.642   7.274  0.00  0.00     0.068 C 
HETATM    6  C   UNK N   1      34.004  17.932   8.525  0.00  0.00     0.100 C 
HETATM    7  C   UNK N   1      31.301  15.800   7.102  0.00  0.00     0.150 C 
HETATM    8  F   UNK N   1      31.205  14.620   6.431  0.00  0.00    -0.203 F 
HETATM    9  N   UNK N   1      35.075  18.316   8.739  0.00  0.00    -0.191 NA
ENDROOT
BRANCH   1  10
HETATM   10  C   UNK N   1      33.696  15.423   7.007  0.00  0.00     0.146 C 
BRANCH  10  11
HETATM   11  C   UNK N   1      34.251  14.648   8.101  0.00  0.00     0.222 C 
HETATM   12  N   UNK N   1      35.526  14.860   8.483  0.00  0.00    -0.359 N 
HETATM   13  H   UNK N   1      36.085  15.504   7.992  0.00  0.00     0.162 HD
HETATM   14  O   UNK N   1      33.550  13.817   8.653  0.00  0.00    -0.273 OA
BRANCH  12  15
HETATM   15  C   UNK N   1      36.071  14.150   9.600  0.00  0.00     0.151 C 
BRANCH  15  16
HETATM   16  C   UNK N   1      36.475  15.143  10.687  0.00  0.00     0.221 C 
BRANCH  16  17
HETATM   17  O   UNK N   1      35.635  15.138  11.827  0.00  0.00    -0.265 OA
BRANCH  17  18
HETATM   18  N   UNK N   1      36.412  15.196  12.930  0.00  0.00    -0.097 N 
HETATM   19  C   UNK N   1      36.340  14.250  13.986  0.00  0.00     0.689 C 
HETATM   20  N   UNK N   1      35.441  13.338  13.978  0.00  0.00    -0.233 N 
HETATM   21  N   UNK N   1      37.175  14.394  15.114  0.00  0.00    -0.233 N 
HETATM   22  H   UNK N   1      35.602  12.479  14.431  0.00  0.00     0.174 HD
ATOM     23  HN  UNK N   1      34.555  13.502  13.499  1.00  0.00     0.174 HD
HETATM   24  H   UNK N   1      37.490  15.230  15.530  0.00  0.00     0.174 HD
HETATM   25  H   UNK N   1      37.482  13.559  15.537  0.00  0.00     0.174 HD
HETATM   26  H   UNK N   1      37.061  15.932  13.007  0.00  0.00     0.213 HD
ENDBRANCH  17  18
ENDBRANCH  16  17
ENDBRANCH  15  16
ENDBRANCH  12  15
ENDBRANCH  10  11
ENDBRANCH   1  10
BRANCH   5  27
HETATM   27  N   UNK N   1      29.023  16.418   6.504  0.00  0.00    -0.381 N 
HETATM   28  H   UNK N   1      28.315  15.806   6.810  0.00  0.00     0.160 HD
BRANCH  27  29
HETATM   29  C   UNK N   1      28.915  17.131   5.245  0.00  0.00     0.206 C 
BRANCH  29  30
HETATM   30  C   UNK N   1      28.960  16.341   3.932  0.00  0.00     0.301 C 
HETATM   31  F   UNK N   1      28.260  17.017   2.936  0.00  0.00    -0.197 F 
HETATM   32  F   UNK N   1      28.438  15.061   4.041  0.00  0.00    -0.197 F 
BRANCH  30  33
HETATM   33  C   UNK N   1      30.411  16.351   3.628  0.00  0.00     0.083 A 
HETATM   34  C   UNK N   1      31.175  17.487   3.960  0.00  0.00     0.031 A 
HETATM   35  C   UNK N   1      32.559  17.426   3.878  0.00  0.00     0.003 A 
HETATM   36  C   UNK N   1      33.170  16.240   3.476  0.00  0.00     0.017 A 
HETATM   37  C   UNK N   1      32.380  15.138   3.138  0.00  0.00     0.088 A 
HETATM   38  N   UNK N   1      31.027  15.212   3.224  0.00  0.00    -0.364 N 
ATOM     39  HN  UNK N   1      30.463  14.397   2.980  1.00  0.00     0.165 HD
ENDBRANCH  30  33
ENDBRANCH  29  30
ENDBRANCH  27  29
ENDBRANCH   5  27
TORSDOF 10
ENDMDL
MODEL 6
REMARK VINA RESULT:      -6.8      3.077      4.402
REMARK  10 active torsions:
REMARK  status: ('A' for Active; 'I' for Inactive)
REMARK       I    between atoms: C_1  and  N_17 
REMARK       I    between atoms: C_1  and  N_18 
REMARK    1  A    between atoms: O_2  and  N_18 
REMARK    2  A    between atoms: O_2  and  C_19 
REMARK    3  A    between atoms: C_3  and  C_19 
REMARK    4  A    between atoms: C_3  and  N_20 
REMARK    5  A    between atoms: C_4  and  C_5 
REMARK       I    between atoms: C_4  and  N_20 
REMARK    6  A    between atoms: C_5  and  C_6 
REMARK    7  A    between atoms: C_10  and  N_25 
REMARK    8  A    between atoms: C_12  and  N_25 
REMARK    9  A    between atoms: C_12  and  C_26 
REMARK   10  A    between atoms: C_26  and  C_29 
ROOT
HETATM    1  C   UNK N   1      33.641  15.260   8.061  0.00  0.00     0.012 C 
HETATM    2  C   UNK N   1      34.381  16.048   7.163  0.00  0.00     0.054 C 
HETATM    3  C   UNK N   1      34.101  17.413   7.054  0.00  0.00     0.026 C 
HETATM    4  C   UNK N   1      32.997  17.955   7.719  0.00  0.00     0.034 C 
HETATM    5  C   UNK N   1      32.228  17.145   8.556  0.00  0.00     0.068 C 
HETATM    6  C   UNK N   1      35.332  15.442   6.268  0.00  0.00     0.100 C 
HETATM    7  C   UNK N   1      32.625  15.820   8.798  0.00  0.00     0.150 C 
HETATM    8  F   UNK N   1      31.955  15.023   9.674  0.00  0.00    -0.203 F 
HETATM    9  N   UNK N   1      36.087  14.914   5.567  0.00  0.00    -0.191 NA
ENDROOT
BRANCH   1  10
HETATM   10  C   UNK N   1      33.775  13.786   8.146  0.00  0.00     0.146 C 
BRANCH  10  11
HETATM   11  C   UNK N   1      34.665  13.459   9.244  0.00  0.00     0.222 C 
HETATM   12  N   UNK N   1      34.150  12.985  10.396  0.00  0.00    -0.359 N 
HETATM   13  H   UNK N   1      33.175  12.907  10.502  0.00  0.00     0.162 HD
HETATM   14  O   UNK N   1      35.865  13.620   9.101  0.00  0.00    -0.273 OA
BRANCH  12  15
HETATM   15  C   UNK N   1      35.017  12.597  11.467  0.00  0.00     0.151 C 
BRANCH  15  16
HETATM   16  C   UNK N   1      35.171  13.759  12.445  0.00  0.00     0.221 C 
BRANCH  16  17
HETATM   17  O   UNK N   1      34.867  13.437  13.791  0.00  0.00    -0.265 OA
BRANCH  17  18
HETATM   18  N   UNK N   1      35.496  12.284  14.106  0.00  0.00    -0.097 N 
HETATM   19  C   UNK N   1      36.745  12.235  14.778  0.00  0.00     0.689 C 
HETATM   20  N   UNK N   1      37.388  13.313  15.028  0.00  0.00    -0.233 N 
HETATM   21  N   UNK N   1      37.344  10.987  15.053  0.00  0.00    -0.233 N 
HETATM   22  H   UNK N   1      38.001  13.358  15.797  0.00  0.00     0.174 HD
ATOM     23  HN  UNK N   1      37.266  14.128  14.426  1.00  0.00     0.174 HD
HETATM   24  H   UNK N   1      37.302  10.165  14.512  0.00  0.00     0.174 HD
HETATM   25  H   UNK N   1      37.865  10.930  15.887  0.00  0.00     0.174 HD
HETATM   26  H   UNK N   1      35.066  11.434  13.856  0.00  0.00     0.213 HD
ENDBRANCH  17  18
ENDBRANCH  16  17
ENDBRANCH  15  16
ENDBRANCH  12  15
ENDBRANCH  10  11
ENDBRANCH   1  10
BRANCH   5  27
HETATM   27  N   UNK N   1      30.954  17.580   8.997  0.00  0.00    -0.381 N 
HETATM   28  H   UNK N   1      30.838  18.033   9.864  0.00  0.00     0.160 HD
BRANCH  27  29
HETATM   29  C   UNK N   1      29.829  17.333   8.116  0.00  0.00     0.206 C 
BRANCH  29  30
HETATM   30  C   UNK N   1      28.480  17.994   8.422  0.00  0.00     0.301 C 
HETATM   31  F   UNK N   1      28.632  18.980   9.393  0.00  0.00    -0.197 F 
HETATM   32  F   UNK N   1      27.514  17.099   8.857  0.00  0.00    -0.197 F 
BRANCH  30  33
HETATM   33  C   UNK N   1      28.149  18.614   7.117  0.00  0.00     0.083 A 
HETATM   34  C   UNK N   1      27.647  19.930   7.090  0.00  0.00     0.031 A 
HETATM   35  C   UNK N   1      27.535  20.594   5.876  0.00  0.00     0.003 A 
HETATM   36  C   UNK N   1      27.931  19.950   4.705  0.00  0.00     0.017 A 
HETATM   37  C   UNK N   1      28.409  18.638   4.767  0.00  0.00     0.088 A 
HETATM   38  N   UNK N   1      28.512  18.002   5.962  0.00  0.00    -0.364 N 
ATOM     39  HN  UNK N   1      28.868  17.046   5.993  1.00  0.00     0.165 HD
ENDBRANCH  30  33
ENDBRANCH  29  30
ENDBRANCH  27  29
ENDBRANCH   5  27
TORSDOF 10
ENDMDL
MODEL 7
REMARK VINA RESULT:      -6.7     10.932     15.154
REMARK  10 active torsions:
REMARK  status: ('A' for Active; 'I' for Inactive)
REMARK       I    between atoms: C_1  and  N_17 
REMARK       I    between atoms: C_1  and  N_18 
REMARK    1  A    between atoms: O_2  and  N_18 
REMARK    2  A    between atoms: O_2  and  C_19 
REMARK    3  A    between atoms: C_3  and  C_19 
REMARK    4  A    between atoms: C_3  and  N_20 
REMARK    5  A    between atoms: C_4  and  C_5 
REMARK       I    between atoms: C_4  and  N_20 
REMARK    6  A    between atoms: C_5  and  C_6 
REMARK    7  A    between atoms: C_10  and  N_25 
REMARK    8  A    between atoms: C_12  and  N_25 
REMARK    9  A    between atoms: C_12  and  C_26 
REMARK   10  A    between atoms: C_26  and  C_29 
ROOT
HETATM    1  C   UNK N   1      35.160  10.910  17.507  0.00  0.00     0.012 C 
HETATM    2  C   UNK N   1      35.100  12.296  17.287  0.00  0.00     0.054 C 
HETATM    3  C   UNK N   1      35.199  13.170  18.375  0.00  0.00     0.026 C 
HETATM    4  C   UNK N   1      35.202  12.664  19.678  0.00  0.00     0.034 C 
HETATM    5  C   UNK N   1      35.193  11.284  19.885  0.00  0.00     0.068 C 
HETATM    6  C   UNK N   1      34.812  12.820  15.977  0.00  0.00     0.100 C 
HETATM    7  C   UNK N   1      35.276  10.416  18.784  0.00  0.00     0.150 C 
HETATM    8  F   UNK N   1      35.357   9.067  18.944  0.00  0.00    -0.203 F 
HETATM    9  N   UNK N   1      34.580  13.197  14.908  0.00  0.00    -0.191 NA
ENDROOT
BRANCH   1  10
HETATM   10  C   UNK N   1      34.930   9.910  16.437  0.00  0.00     0.146 C 
BRANCH  10  11
HETATM   11  C   UNK N   1      36.152   9.753  15.671  0.00  0.00     0.222 C 
HETATM   12  N   UNK N   1      36.181  10.144  14.381  0.00  0.00    -0.359 N 
HETATM   13  H   UNK N   1      35.365  10.490  13.956  0.00  0.00     0.162 HD
HETATM   14  O   UNK N   1      37.131   9.268  16.213  0.00  0.00    -0.273 OA
BRANCH  12  15
HETATM   15  C   UNK N   1      37.395  10.056  13.629  0.00  0.00     0.151 C 
BRANCH  15  16
HETATM   16  C   UNK N   1      37.443  11.185  12.603  0.00  0.00     0.221 C 
BRANCH  16  17
HETATM   17  O   UNK N   1      37.098  12.459  13.116  0.00  0.00    -0.265 OA
BRANCH  17  18
HETATM   18  N   UNK N   1      37.377  13.388  12.176  0.00  0.00    -0.097 N 
HETATM   19  C   UNK N   1      36.431  14.341  11.717  0.00  0.00     0.689 C 
HETATM   20  N   UNK N   1      35.215  14.291  12.117  0.00  0.00    -0.233 N 
HETATM   21  N   UNK N   1      36.797  15.267  10.716  0.00  0.00    -0.233 N 
HETATM   22  H   UNK N   1      34.671  15.111  12.153  0.00  0.00     0.174 HD
ATOM     23  HN  UNK N   1      34.809  13.398  12.398  1.00  0.00     0.174 HD
HETATM   24  H   UNK N   1      37.418  15.128   9.965  0.00  0.00     0.174 HD
HETATM   25  H   UNK N   1      36.383  16.158  10.777  0.00  0.00     0.174 HD
HETATM   26  H   UNK N   1      38.281  13.403  11.788  0.00  0.00     0.213 HD
ENDBRANCH  17  18
ENDBRANCH  16  17
ENDBRANCH  15  16
ENDBRANCH  12  15
ENDBRANCH  10  11
ENDBRANCH   1  10
BRANCH   5  27
HETATM   27  N   UNK N   1      34.898  10.756  21.166  0.00  0.00    -0.381 N 
HETATM   28  H   UNK N   1      35.613  10.532  21.805  0.00  0.00     0.160 HD
BRANCH  27  29
HETATM   29  C   UNK N   1      33.499  10.562  21.495  0.00  0.00     0.206 C 
BRANCH  29  30
HETATM   30  C   UNK N   1      33.127   9.636  22.658  0.00  0.00     0.301 C 
HETATM   31  F   UNK N   1      32.442  10.344  23.643  0.00  0.00    -0.197 F 
HETATM   32  F   UNK N   1      34.222   9.021  23.247  0.00  0.00    -0.197 F 
BRANCH  30  33
HETATM   33  C   UNK N   1      32.212   8.676  21.995  0.00  0.00     0.083 A 
HETATM   34  C   UNK N   1      31.667   9.004  20.738  0.00  0.00     0.031 A 
HETATM   35  C   UNK N   1      30.986   8.034  20.015  0.00  0.00     0.003 A 
HETATM   36  C   UNK N   1      30.861   6.750  20.542  0.00  0.00     0.017 A 
HETATM   37  C   UNK N   1      31.399   6.464  21.800  0.00  0.00     0.088 A 
HETATM   38  N   UNK N   1      32.063   7.423  22.495  0.00  0.00    -0.364 N 
ATOM     39  HN  UNK N   1      32.457   7.200  23.409  1.00  0.00     0.165 HD
ENDBRANCH  30  33
ENDBRANCH  29  30
ENDBRANCH  27  29
ENDBRANCH   5  27
TORSDOF 10
ENDMDL
MODEL 8
REMARK VINA RESULT:      -6.7      6.184     11.016
REMARK  10 active torsions:
REMARK  status: ('A' for Active; 'I' for Inactive)
REMARK       I    between atoms: C_1  and  N_17 
REMARK       I    between atoms: C_1  and  N_18 
REMARK    1  A    between atoms: O_2  and  N_18 
REMARK    2  A    between atoms: O_2  and  C_19 
REMARK    3  A    between atoms: C_3  and  C_19 
REMARK    4  A    between atoms: C_3  and  N_20 
REMARK    5  A    between atoms: C_4  and  C_5 
REMARK       I    between atoms: C_4  and  N_20 
REMARK    6  A    between atoms: C_5  and  C_6 
REMARK    7  A    between atoms: C_10  and  N_25 
REMARK    8  A    between atoms: C_12  and  N_25 
REMARK    9  A    between atoms: C_12  and  C_26 
REMARK   10  A    between atoms: C_26  and  C_29 
ROOT
HETATM    1  C   UNK N   1      22.645  16.559   4.869  0.00  0.00     0.012 C 
HETATM    2  C   UNK N   1      22.799  17.905   4.499  0.00  0.00     0.054 C 
HETATM    3  C   UNK N   1      24.081  18.410   4.260  0.00  0.00     0.026 C 
HETATM    4  C   UNK N   1      25.204  17.624   4.535  0.00  0.00     0.034 C 
HETATM    5  C   UNK N   1      25.037  16.307   4.967  0.00  0.00     0.068 C 
HETATM    6  C   UNK N   1      21.669  18.797   4.489  0.00  0.00     0.100 C 
HETATM    7  C   UNK N   1      23.748  15.754   5.031  0.00  0.00     0.150 C 
HETATM    8  F   UNK N   1      23.547  14.451   5.365  0.00  0.00    -0.203 F 
HETATM    9  N   UNK N   1      20.733  19.478   4.492  0.00  0.00    -0.191 NA
ENDROOT
BRANCH   1  10
HETATM   10  C   UNK N   1      21.344  15.973   5.273  0.00  0.00     0.146 C 
BRANCH  10  11
HETATM   11  C   UNK N   1      21.169  16.161   6.701  0.00  0.00     0.222 C 
HETATM   12  N   UNK N   1      20.387  17.165   7.147  0.00  0.00    -0.359 N 
HETATM   13  H   UNK N   1      19.977  17.788   6.506  0.00  0.00     0.162 HD
HETATM   14  O   UNK N   1      21.737  15.405   7.472  0.00  0.00    -0.273 OA
BRANCH  12  15
HETATM   15  C   UNK N   1      20.152  17.327   8.549  0.00  0.00     0.151 C 
BRANCH  15  16
HETATM   16  C   UNK N   1      18.752  16.825   8.894  0.00  0.00     0.221 C 
BRANCH  16  17
HETATM   17  O   UNK N   1      17.751  17.827   8.887  0.00  0.00    -0.265 OA
BRANCH  17  18
HETATM   18  N   UNK N   1      17.233  17.920  10.131  0.00  0.00    -0.097 N 
HETATM   19  C   UNK N   1      17.620  18.915  11.066  0.00  0.00     0.689 C 
HETATM   20  N   UNK N   1      18.575  19.723  10.793  0.00  0.00    -0.233 N 
HETATM   21  N   UNK N   1      17.042  18.930  12.354  0.00  0.00    -0.233 N 
HETATM   22  H   UNK N   1      18.597  20.620  11.197  0.00  0.00     0.174 HD
ATOM     23  HN  UNK N   1      19.317  19.435  10.153  1.00  0.00     0.174 HD
HETATM   24  H   UNK N   1      16.751  18.159  12.893  0.00  0.00     0.174 HD
HETATM   25  H   UNK N   1      16.914  19.817  12.761  0.00  0.00     0.174 HD
HETATM   26  H   UNK N   1      16.552  17.263  10.403  0.00  0.00     0.213 HD
ENDBRANCH  17  18
ENDBRANCH  16  17
ENDBRANCH  15  16
ENDBRANCH  12  15
ENDBRANCH  10  11
ENDBRANCH   1  10
BRANCH   5  27
HETATM   27  N   UNK N   1      26.127  15.598   5.530  0.00  0.00    -0.381 N 
HETATM   28  H   UNK N   1      26.004  14.713   5.943  0.00  0.00     0.160 HD
BRANCH  27  29
HETATM   29  C   UNK N   1      27.430  16.232   5.471  0.00  0.00     0.206 C 
BRANCH  29  30
HETATM   30  C   UNK N   1      28.011  16.867   6.739  0.00  0.00     0.301 C 
HETATM   31  F   UNK N   1      29.334  16.469   6.918  0.00  0.00    -0.197 F 
HETATM   32  F   UNK N   1      27.302  16.552   7.888  0.00  0.00    -0.197 F 
BRANCH  30  33
HETATM   33  C   UNK N   1      27.957  18.310   6.402  0.00  0.00     0.083 A 
HETATM   34  C   UNK N   1      28.354  18.731   5.118  0.00  0.00     0.031 A 
HETATM   35  C   UNK N   1      28.108  20.039   4.722  0.00  0.00     0.003 A 
HETATM   36  C   UNK N   1      27.464  20.910   5.599  0.00  0.00     0.017 A 
HETATM   37  C   UNK N   1      27.099  20.463   6.872  0.00  0.00     0.088 A 
HETATM   38  N   UNK N   1      27.346  19.181   7.245  0.00  0.00    -0.364 N 
ATOM     39  HN  UNK N   1      27.069  18.866   8.175  1.00  0.00     0.165 HD
ENDBRANCH  30  33
ENDBRANCH  29  30
ENDBRANCH  27  29
ENDBRANCH   5  27
TORSDOF 10
ENDMDL
MODEL 9
REMARK VINA RESULT:      -6.7      4.268     10.106
REMARK  10 active torsions:
REMARK  status: ('A' for Active; 'I' for Inactive)
REMARK       I    between atoms: C_1  and  N_17 
REMARK       I    between atoms: C_1  and  N_18 
REMARK    1  A    between atoms: O_2  and  N_18 
REMARK    2  A    between atoms: O_2  and  C_19 
REMARK    3  A    between atoms: C_3  and  C_19 
REMARK    4  A    between atoms: C_3  and  N_20 
REMARK    5  A    between atoms: C_4  and  C_5 
REMARK       I    between atoms: C_4  and  N_20 
REMARK    6  A    between atoms: C_5  and  C_6 
REMARK    7  A    between atoms: C_10  and  N_25 
REMARK    8  A    between atoms: C_12  and  N_25 
REMARK    9  A    between atoms: C_12  and  C_26 
REMARK   10  A    between atoms: C_26  and  C_29 
ROOT
HETATM    1  C   UNK N   1      34.479  16.068   8.234  0.00  0.00     0.012 C 
HETATM    2  C   UNK N   1      34.799  15.368   7.059  0.00  0.00     0.054 C 
HETATM    3  C   UNK N   1      35.719  14.317   7.113  0.00  0.00     0.026 C 
HETATM    4  C   UNK N   1      36.426  14.068   8.293  0.00  0.00     0.034 C 
HETATM    5  C   UNK N   1      36.147  14.818   9.438  0.00  0.00     0.068 C 
HETATM    6  C   UNK N   1      34.287  15.802   5.785  0.00  0.00     0.100 C 
HETATM    7  C   UNK N   1      35.095  15.748   9.420  0.00  0.00     0.150 C 
HETATM    8  F   UNK N   1      34.733  16.436  10.537  0.00  0.00    -0.203 F 
HETATM    9  N   UNK N   1      33.853  16.184   4.782  0.00  0.00    -0.191 NA
ENDROOT
BRANCH   1  10
HETATM   10  C   UNK N   1      33.621  17.278   8.249  0.00  0.00     0.146 C 
BRANCH  10  11
HETATM   11  C   UNK N   1      32.255  16.879   8.528  0.00  0.00     0.222 C 
HETATM   12  N   UNK N   1      31.372  17.799   8.966  0.00  0.00    -0.359 N 
HETATM   13  H   UNK N   1      31.669  18.722   9.136  0.00  0.00     0.162 HD
HETATM   14  O   UNK N   1      31.932  15.715   8.360  0.00  0.00    -0.273 OA
BRANCH  12  15
HETATM   15  C   UNK N   1      30.004  17.439   9.185  0.00  0.00     0.151 C 
BRANCH  15  16
HETATM   16  C   UNK N   1      29.124  18.108   8.133  0.00  0.00     0.221 C 
BRANCH  16  17
HETATM   17  O   UNK N   1      28.824  17.292   7.015  0.00  0.00    -0.265 OA
BRANCH  17  18
HETATM   18  N   UNK N   1      29.472  17.789   5.938  0.00  0.00    -0.097 N 
HETATM   19  C   UNK N   1      30.395  17.036   5.167  0.00  0.00     0.689 C 
HETATM   20  N   UNK N   1      30.733  15.856   5.532  0.00  0.00    -0.233 N 
HETATM   21  N   UNK N   1      31.044  17.637   4.067  0.00  0.00    -0.233 N 
HETATM   22  H   UNK N   1      31.019  15.193   4.863  0.00  0.00     0.174 HD
ATOM     23  HN  UNK N   1      30.706  15.603   6.520  1.00  0.00     0.174 HD
HETATM   24  H   UNK N   1      31.324  18.576   3.971  0.00  0.00     0.174 HD
HETATM   25  H   UNK N   1      31.239  17.047   3.303  0.00  0.00     0.174 HD
HETATM   26  H   UNK N   1      29.295  18.721   5.676  0.00  0.00     0.213 HD
ENDBRANCH  17  18
ENDBRANCH  16  17
ENDBRANCH  15  16
ENDBRANCH  12  15
ENDBRANCH  10  11
ENDBRANCH   1  10
BRANCH   5  27
HETATM   27  N   UNK N   1      37.036  14.794  10.540  0.00  0.00    -0.381 N 
HETATM   28  H   UNK N   1      37.789  15.424  10.605  0.00  0.00     0.160 HD
BRANCH  27  29
HETATM   29  C   UNK N   1      36.787  13.802  11.569  0.00  0.00     0.206 C 
BRANCH  29  30
HETATM   30  C   UNK N   1      35.885  14.164  12.754  0.00  0.00     0.301 C 
HETATM   31  F   UNK N   1      34.553  14.219  12.350  0.00  0.00    -0.197 F 
HETATM   32  F   UNK N   1      36.210  15.376  13.345  0.00  0.00    -0.197 F 
BRANCH  30  33
HETATM   33  C   UNK N   1      36.094  13.006  13.654  0.00  0.00     0.083 A 
HETATM   34  C   UNK N   1      37.201  12.162  13.441  0.00  0.00     0.031 A 
HETATM   35  C   UNK N   1      37.528  11.208  14.396  0.00  0.00     0.003 A 
HETATM   36  C   UNK N   1      36.759  11.109  15.554  0.00  0.00     0.017 A 
HETATM   37  C   UNK N   1      35.657  11.951  15.725  0.00  0.00     0.088 A 
HETATM   38  N   UNK N   1      35.351  12.879  14.782  0.00  0.00    -0.364 N 
ATOM     39  HN  UNK N   1      34.547  13.492  14.923  1.00  0.00     0.165 HD
ENDBRANCH  30  33
ENDBRANCH  29  30
ENDBRANCH  27  29
ENDBRANCH   5  27
TORSDOF 10
ENDMDL
