MODEL 1
REMARK VINA RESULT:      -8.6      0.000      0.000
REMARK  5 active torsions:
REMARK  status: ('A' for Active; 'I' for Inactive)
REMARK    1  A    between atoms: C_4  and  C_14 
REMARK    2  A    between atoms: C_9  and  C_26 
REMARK    3  A    between atoms: C_11  and  S_31 
REMARK    4  A    between atoms: C_15  and  N_27 
REMARK    5  A    between atoms: N_17  and  C_20 
ROOT
HETATM    1  C   UNK N   1      27.409  17.263   6.668  0.00  0.00     0.182 A 
HETATM    2  C   UNK N   1      25.124  16.672   5.321  0.00  0.00     0.078 A 
HETATM    3  C   UNK N   1      25.647  15.754   6.202  0.00  0.00     0.106 A 
HETATM    4  N   UNK N   1      26.782  16.064   6.885  0.00  0.00    -0.339 N 
ATOM      5  HN  UNK N   1      27.166  15.403   7.559  1.00  0.00     0.168 HD
HETATM    6  N   UNK N   1      26.884  18.177   5.790  0.00  0.00    -0.352 N 
ATOM      7  HN  UNK N   1      27.355  19.070   5.639  1.00  0.00     0.166 HD
HETATM    8  C   UNK N   1      25.733  17.894   5.121  0.00  0.00     0.046 A 
ENDROOT
BRANCH   3   9
HETATM    9  N   UNK N   1      24.931  14.537   6.394  0.00  0.00    -0.364 N 
HETATM   10  C   UNK N   1      23.880  14.495   7.374  0.00  0.00     0.136 C 
HETATM   11  C   UNK N   1      24.299  13.327   8.226  0.00  0.00     0.063 C 
HETATM   12  C   UNK N   1      24.737  12.335   7.125  0.00  0.00     0.102 C 
HETATM   13  C   UNK N   1      25.526  13.245   6.164  0.00  0.00     0.149 C 
BRANCH  11  14
HETATM   14  C   UNK N   1      23.258  12.982   9.276  0.00  0.00    -0.009 A 
HETATM   15  C   UNK N   1      23.502  12.146  10.388  0.00  0.00     0.126 A 
HETATM   16  F   UNK N   1      24.720  11.599  10.610  0.00  0.00    -0.205 F 
HETATM   17  C   UNK N   1      22.479  11.896  11.311  0.00  0.00     0.088 A 
HETATM   18  C   UNK N   1      21.213  12.464  11.141  0.00  0.00     0.157 A 
HETATM   19  F   UNK N   1      20.232  12.207  12.040  0.00  0.00    -0.203 F 
HETATM   20  C   UNK N   1      20.966  13.298  10.052  0.00  0.00     0.155 A 
HETATM   21  C   UNK N   1      21.983  13.560   9.134  0.00  0.00     0.056 A 
HETATM   22  F   UNK N   1      19.742  13.855   9.879  0.00  0.00    -0.203 F 
ENDBRANCH  11  14
BRANCH  12  23
HETATM   23  N   UNK N   1      23.574  11.826   6.405  0.00  0.00    -0.424 N 
HETATM   24  H   UNK N   1      22.583  11.590   6.374  0.00  0.00     0.150 HD
HETATM   25  H   UNK N   1      23.927  11.591   5.477  0.00  0.00     0.150 HD
ENDBRANCH  12  23
ENDBRANCH   3   9
BRANCH   8  26
HETATM   26  C   UNK N   1      25.032  18.848   4.237  0.00  0.00    -0.008 A 
HETATM   27  C   UNK N   1      23.659  18.649   4.058  0.00  0.00     0.037 A 
HETATM   28  C   UNK N   1      22.881  19.502   3.306  0.00  0.00     0.059 A 
HETATM   29  C   UNK N   1      23.481  20.601   2.681  0.00  0.00     0.023 A 
HETATM   30  C   UNK N   1      24.864  20.819   2.834  0.00  0.00     0.002 A 
HETATM   31  C   UNK N   1      25.641  19.952   3.629  0.00  0.00     0.014 A 
BRANCH  28  32
HETATM   32  S   UNK N   1      21.113  19.196   3.254  0.00  0.00     0.171 S 
HETATM   33  C   UNK N   1      20.188  17.725   3.767  0.00  0.00     0.167 C 
HETATM   34  O   UNK N   1      20.494  20.341   4.076  0.00  0.00    -0.223 OA
HETATM   35  O   UNK N   1      20.599  19.645   1.879  0.00  0.00    -0.223 OA
ENDBRANCH  28  32
ENDBRANCH   8  26
TORSDOF 5
ENDMDL
MODEL 2
REMARK VINA RESULT:      -8.6      4.486      5.994
REMARK  5 active torsions:
REMARK  status: ('A' for Active; 'I' for Inactive)
REMARK    1  A    between atoms: C_4  and  C_14 
REMARK    2  A    between atoms: C_9  and  C_26 
REMARK    3  A    between atoms: C_11  and  S_31 
REMARK    4  A    between atoms: C_15  and  N_27 
REMARK    5  A    between atoms: N_17  and  C_20 
ROOT
HETATM    1  C   UNK N   1      26.134  18.290   5.118  0.00  0.00     0.182 A 
HETATM    2  C   UNK N   1      27.145  16.276   6.638  0.00  0.00     0.078 A 
HETATM    3  C   UNK N   1      25.922  16.115   6.028  0.00  0.00     0.106 A 
HETATM    4  N   UNK N   1      25.431  17.121   5.255  0.00  0.00    -0.339 N 
ATOM      5  HN  UNK N   1      24.537  17.004   4.777  1.00  0.00     0.168 HD
HETATM    6  N   UNK N   1      27.353  18.446   5.726  0.00  0.00    -0.352 N 
ATOM      7  HN  UNK N   1      27.872  19.318   5.614  1.00  0.00     0.166 HD
HETATM    8  C   UNK N   1      27.872  17.438   6.479  0.00  0.00     0.046 A 
ENDROOT
BRANCH   3   9
HETATM    9  N   UNK N   1      25.257  14.867   6.196  0.00  0.00    -0.364 N 
HETATM   10  C   UNK N   1      24.178  14.774   7.142  0.00  0.00     0.136 C 
HETATM   11  C   UNK N   1      24.622  13.624   8.005  0.00  0.00     0.063 C 
HETATM   12  C   UNK N   1      25.140  12.656   6.918  0.00  0.00     0.102 C 
HETATM   13  C   UNK N   1      25.917  13.603   5.983  0.00  0.00     0.149 C 
BRANCH  11  14
HETATM   14  C   UNK N   1      23.566  13.230   9.021  0.00  0.00    -0.009 A 
HETATM   15  C   UNK N   1      23.804  12.373  10.119  0.00  0.00     0.126 A 
HETATM   16  F   UNK N   1      25.029  11.849  10.357  0.00  0.00    -0.205 F 
HETATM   17  C   UNK N   1      22.765  12.077  11.010  0.00  0.00     0.088 A 
HETATM   18  C   UNK N   1      21.490  12.618  10.824  0.00  0.00     0.157 A 
HETATM   19  F   UNK N   1      20.495  12.317  11.693  0.00  0.00    -0.203 F 
HETATM   20  C   UNK N   1      21.249  13.473   9.749  0.00  0.00     0.155 A 
HETATM   21  C   UNK N   1      22.281  13.780   8.862  0.00  0.00     0.056 A 
HETATM   22  F   UNK N   1      20.016  14.005   9.560  0.00  0.00    -0.203 F 
ENDBRANCH  11  14
BRANCH  12  23
HETATM   23  N   UNK N   1      24.025  12.096   6.160  0.00  0.00    -0.424 N 
HETATM   24  H   UNK N   1      23.613  11.800   5.276  0.00  0.00     0.150 HD
HETATM   25  H   UNK N   1      23.304  11.910   6.858  0.00  0.00     0.150 HD
ENDBRANCH  12  23
ENDBRANCH   3   9
BRANCH   8  26
HETATM   26  C   UNK N   1      29.219  17.466   7.087  0.00  0.00    -0.008 A 
HETATM   27  C   UNK N   1      30.297  17.182   6.243  0.00  0.00     0.037 A 
HETATM   28  C   UNK N   1      31.605  17.232   6.674  0.00  0.00     0.059 A 
HETATM   29  C   UNK N   1      31.873  17.562   8.006  0.00  0.00     0.023 A 
HETATM   30  C   UNK N   1      30.805  17.841   8.882  0.00  0.00     0.002 A 
HETATM   31  C   UNK N   1      29.475  17.812   8.419  0.00  0.00     0.014 A 
BRANCH  28  32
HETATM   32  S   UNK N   1      32.897  16.958   5.458  0.00  0.00     0.171 S 
HETATM   33  C   UNK N   1      33.455  15.408   4.705  0.00  0.00     0.167 C 
HETATM   34  O   UNK N   1      32.501  17.842   4.261  0.00  0.00    -0.223 OA
HETATM   35  O   UNK N   1      34.129  17.764   5.894  0.00  0.00    -0.223 OA
ENDBRANCH  28  32
ENDBRANCH   8  26
TORSDOF 5
ENDMDL
MODEL 3
REMARK VINA RESULT:      -8.4      8.712     11.781
REMARK  5 active torsions:
REMARK  status: ('A' for Active; 'I' for Inactive)
REMARK    1  A    between atoms: C_4  and  C_14 
REMARK    2  A    between atoms: C_9  and  C_26 
REMARK    3  A    between atoms: C_11  and  S_31 
REMARK    4  A    between atoms: C_15  and  N_27 
REMARK    5  A    between atoms: N_17  and  C_20 
ROOT
HETATM    1  C   UNK N   1      33.980  18.031   8.207  0.00  0.00     0.182 A 
HETATM    2  C   UNK N   1      32.355  15.988   8.965  0.00  0.00     0.078 A 
HETATM    3  C   UNK N   1      31.800  17.164   8.515  0.00  0.00     0.106 A 
HETATM    4  N   UNK N   1      32.620  18.176   8.122  0.00  0.00    -0.339 N 
ATOM      5  HN  UNK N   1      32.221  19.043   7.763  1.00  0.00     0.168 HD
HETATM    6  N   UNK N   1      34.531  16.857   8.654  0.00  0.00    -0.352 N 
ATOM      7  HN  UNK N   1      35.545  16.756   8.708  1.00  0.00     0.166 HD
HETATM    8  C   UNK N   1      33.724  15.825   9.024  0.00  0.00     0.046 A 
ENDROOT
BRANCH   3   9
HETATM    9  N   UNK N   1      30.379  17.238   8.433  0.00  0.00    -0.364 N 
HETATM   10  C   UNK N   1      29.764  17.404   7.145  0.00  0.00     0.136 C 
HETATM   11  C   UNK N   1      28.909  18.622   7.366  0.00  0.00     0.063 C 
HETATM   12  C   UNK N   1      28.331  18.297   8.761  0.00  0.00     0.102 C 
HETATM   13  C   UNK N   1      29.568  17.756   9.506  0.00  0.00     0.149 C 
BRANCH  11  14
HETATM   14  C   UNK N   1      28.033  18.932   6.165  0.00  0.00    -0.009 A 
HETATM   15  C   UNK N   1      27.429  20.187   5.928  0.00  0.00     0.126 A 
HETATM   16  F   UNK N   1      27.615  21.233   6.767  0.00  0.00    -0.205 F 
HETATM   17  C   UNK N   1      26.645  20.379   4.783  0.00  0.00     0.088 A 
HETATM   18  C   UNK N   1      26.450  19.338   3.872  0.00  0.00     0.157 A 
HETATM   19  F   UNK N   1      25.684  19.538   2.772  0.00  0.00    -0.203 F 
HETATM   20  C   UNK N   1      27.050  18.099   4.093  0.00  0.00     0.155 A 
HETATM   21  C   UNK N   1      27.839  17.903   5.225  0.00  0.00     0.056 A 
HETATM   22  F   UNK N   1      26.867  17.083   3.213  0.00  0.00    -0.203 F 
ENDBRANCH  11  14
BRANCH  12  23
HETATM   23  N   UNK N   1      27.357  17.215   8.670  0.00  0.00    -0.424 N 
HETATM   24  H   UNK N   1      26.533  16.730   9.025  0.00  0.00     0.150 HD
HETATM   25  H   UNK N   1      27.636  16.682   7.846  0.00  0.00     0.150 HD
ENDBRANCH  12  23
ENDBRANCH   3   9
BRANCH   8  26
HETATM   26  C   UNK N   1      34.216  14.488   9.417  0.00  0.00    -0.008 A 
HETATM   27  C   UNK N   1      34.756  14.368  10.702  0.00  0.00     0.037 A 
HETATM   28  C   UNK N   1      35.196  13.165  11.209  0.00  0.00     0.059 A 
HETATM   29  C   UNK N   1      35.118  12.019  10.411  0.00  0.00     0.023 A 
HETATM   30  C   UNK N   1      34.589  12.112   9.109  0.00  0.00     0.002 A 
HETATM   31  C   UNK N   1      34.119  13.345   8.615  0.00  0.00     0.014 A 
BRANCH  28  32
HETATM   32  S   UNK N   1      35.759  13.131  12.913  0.00  0.00     0.171 S 
HETATM   33  C   UNK N   1      37.050  12.114  13.675  0.00  0.00     0.167 C 
HETATM   34  O   UNK N   1      36.188  14.578  13.212  0.00  0.00    -0.223 OA
HETATM   35  O   UNK N   1      34.518  13.107  13.817  0.00  0.00    -0.223 OA
ENDBRANCH  28  32
ENDBRANCH   8  26
TORSDOF 5
ENDMDL
MODEL 4
REMARK VINA RESULT:      -8.2     10.753     12.703
REMARK  5 active torsions:
REMARK  status: ('A' for Active; 'I' for Inactive)
REMARK    1  A    between atoms: C_4  and  C_14 
REMARK    2  A    between atoms: C_9  and  C_26 
REMARK    3  A    between atoms: C_11  and  S_31 
REMARK    4  A    between atoms: C_15  and  N_27 
REMARK    5  A    between atoms: N_17  and  C_20 
ROOT
HETATM    1  C   UNK N   1      33.864  11.888   9.819  0.00  0.00     0.182 A 
HETATM    2  C   UNK N   1      34.582  14.268  10.917  0.00  0.00     0.078 A 
HETATM    3  C   UNK N   1      34.928  13.097  11.553  0.00  0.00     0.106 A 
HETATM    4  N   UNK N   1      34.579  11.910  10.989  0.00  0.00    -0.339 N 
ATOM      5  HN  UNK N   1      34.851  11.035  11.437  1.00  0.00     0.168 HD
HETATM    6  N   UNK N   1      33.523  13.056   9.187  0.00  0.00    -0.352 N 
ATOM      7  HN  UNK N   1      32.996  13.029   8.314  1.00  0.00     0.166 HD
HETATM    8  C   UNK N   1      33.890  14.252   9.725  0.00  0.00     0.046 A 
ENDROOT
BRANCH   3   9
HETATM    9  N   UNK N   1      35.689  13.195  12.754  0.00  0.00    -0.364 N 
HETATM   10  C   UNK N   1      35.556  12.166  13.748  0.00  0.00     0.136 C 
HETATM   11  C   UNK N   1      35.209  12.965  14.975  0.00  0.00     0.063 C 
HETATM   12  C   UNK N   1      36.198  14.141  14.820  0.00  0.00     0.102 C 
HETATM   13  C   UNK N   1      36.088  14.460  13.316  0.00  0.00     0.149 C 
BRANCH  11  14
HETATM   14  C   UNK N   1      35.147  12.101  16.222  0.00  0.00    -0.009 A 
HETATM   15  C   UNK N   1      35.173  12.610  17.540  0.00  0.00     0.126 A 
HETATM   16  F   UNK N   1      35.232  13.939  17.785  0.00  0.00    -0.205 F 
HETATM   17  C   UNK N   1      35.100  11.731  18.628  0.00  0.00     0.088 A 
HETATM   18  C   UNK N   1      35.006  10.352  18.424  0.00  0.00     0.157 A 
HETATM   19  F   UNK N   1      34.942   9.515  19.488  0.00  0.00    -0.203 F 
HETATM   20  C   UNK N   1      34.970   9.842  17.127  0.00  0.00     0.155 A 
HETATM   21  C   UNK N   1      35.033  10.710  16.038  0.00  0.00     0.056 A 
HETATM   22  F   UNK N   1      34.878   8.505  16.919  0.00  0.00    -0.203 F 
ENDBRANCH  11  14
BRANCH  12  23
HETATM   23  N   UNK N   1      37.563  13.697  15.083  0.00  0.00    -0.424 N 
HETATM   24  H   UNK N   1      38.457  13.333  14.755  0.00  0.00     0.150 HD
HETATM   25  H   UNK N   1      37.681  13.804  16.091  0.00  0.00     0.150 HD
ENDBRANCH  12  23
ENDBRANCH   3   9
BRANCH   8  26
HETATM   26  C   UNK N   1      33.664  15.558   9.071  0.00  0.00    -0.008 A 
HETATM   27  C   UNK N   1      32.341  16.007   9.001  0.00  0.00     0.037 A 
HETATM   28  C   UNK N   1      32.005  17.233   8.469  0.00  0.00     0.059 A 
HETATM   29  C   UNK N   1      33.015  18.058   7.963  0.00  0.00     0.023 A 
HETATM   30  C   UNK N   1      34.355  17.626   8.010  0.00  0.00     0.002 A 
HETATM   31  C   UNK N   1      34.685  16.381   8.581  0.00  0.00     0.014 A 
BRANCH  28  32
HETATM   32  S   UNK N   1      30.283  17.735   8.547  0.00  0.00     0.171 S 
HETATM   33  C   UNK N   1      29.019  17.705   7.249  0.00  0.00     0.167 C 
HETATM   34  O   UNK N   1      29.681  16.891   9.684  0.00  0.00    -0.223 OA
HETATM   35  O   UNK N   1      30.222  19.093   9.260  0.00  0.00    -0.223 OA
ENDBRANCH  28  32
ENDBRANCH   8  26
TORSDOF 5
ENDMDL
MODEL 5
REMARK VINA RESULT:      -8.2      4.746      7.665
REMARK  5 active torsions:
REMARK  status: ('A' for Active; 'I' for Inactive)
REMARK    1  A    between atoms: C_4  and  C_14 
REMARK    2  A    between atoms: C_9  and  C_26 
REMARK    3  A    between atoms: C_11  and  S_31 
REMARK    4  A    between atoms: C_15  and  N_27 
REMARK    5  A    between atoms: N_17  and  C_20 
ROOT
HETATM    1  C   UNK N   1      21.691  19.239   3.635  0.00  0.00     0.182 A 
HETATM    2  C   UNK N   1      23.474  17.933   5.217  0.00  0.00     0.078 A 
HETATM    3  C   UNK N   1      23.927  18.869   4.316  0.00  0.00     0.106 A 
HETATM    4  N   UNK N   1      23.028  19.530   3.540  0.00  0.00    -0.339 N 
ATOM      5  HN  UNK N   1      23.348  20.245   2.887  1.00  0.00     0.168 HD
HETATM    6  N   UNK N   1      21.242  18.307   4.535  0.00  0.00    -0.352 N 
ATOM      7  HN  UNK N   1      20.245  18.101   4.602  1.00  0.00     0.166 HD
HETATM    8  C   UNK N   1      22.127  17.657   5.339  0.00  0.00     0.046 A 
ENDROOT
BRANCH   3   9
HETATM    9  N   UNK N   1      25.326  19.137   4.286  0.00  0.00    -0.364 N 
HETATM   10  C   UNK N   1      26.217  18.272   5.012  0.00  0.00     0.136 C 
HETATM   11  C   UNK N   1      26.966  19.253   5.873  0.00  0.00     0.063 C 
HETATM   12  C   UNK N   1      27.216  20.378   4.844  0.00  0.00     0.102 C 
HETATM   13  C   UNK N   1      25.856  20.467   4.125  0.00  0.00     0.149 C 
BRANCH  11  14
HETATM   14  C   UNK N   1      28.086  18.589   6.654  0.00  0.00    -0.009 A 
HETATM   15  C   UNK N   1      28.927  17.581   6.132  0.00  0.00     0.126 A 
HETATM   16  F   UNK N   1      28.801  17.142   4.858  0.00  0.00    -0.205 F 
HETATM   17  C   UNK N   1      29.941  17.037   6.929  0.00  0.00     0.088 A 
HETATM   18  C   UNK N   1      30.131  17.479   8.241  0.00  0.00     0.157 A 
HETATM   19  F   UNK N   1      31.113  16.938   9.001  0.00  0.00    -0.203 F 
HETATM   20  C   UNK N   1      29.312  18.481   8.761  0.00  0.00     0.155 A 
HETATM   21  C   UNK N   1      28.305  19.034   7.971  0.00  0.00     0.056 A 
HETATM   22  F   UNK N   1      29.488  18.918  10.033  0.00  0.00    -0.203 F 
ENDBRANCH  11  14
BRANCH  12  23
HETATM   23  N   UNK N   1      28.213  19.961   3.864  0.00  0.00    -0.424 N 
HETATM   24  H   UNK N   1      29.176  19.729   3.621  0.00  0.00     0.150 HD
HETATM   25  H   UNK N   1      27.691  19.844   2.996  0.00  0.00     0.150 HD
ENDBRANCH  12  23
ENDBRANCH   3   9
BRANCH   8  26
HETATM   26  C   UNK N   1      21.738  16.716   6.410  0.00  0.00    -0.008 A 
HETATM   27  C   UNK N   1      20.594  17.039   7.148  0.00  0.00     0.037 A 
HETATM   28  C   UNK N   1      20.094  16.216   8.133  0.00  0.00     0.059 A 
HETATM   29  C   UNK N   1      20.757  15.019   8.424  0.00  0.00     0.023 A 
HETATM   30  C   UNK N   1      21.918  14.674   7.706  0.00  0.00     0.002 A 
HETATM   31  C   UNK N   1      22.401  15.514   6.682  0.00  0.00     0.014 A 
BRANCH  28  32
HETATM   32  S   UNK N   1      18.554  16.695   8.922  0.00  0.00     0.171 S 
HETATM   33  C   UNK N   1      18.170  18.185   9.878  0.00  0.00     0.167 C 
HETATM   34  O   UNK N   1      17.516  16.694   7.785  0.00  0.00    -0.223 OA
HETATM   35  O   UNK N   1      18.015  15.473   9.678  0.00  0.00    -0.223 OA
ENDBRANCH  28  32
ENDBRANCH   8  26
TORSDOF 5
ENDMDL
MODEL 6
REMARK VINA RESULT:      -8.1      8.457     11.438
REMARK  5 active torsions:
REMARK  status: ('A' for Active; 'I' for Inactive)
REMARK    1  A    between atoms: C_4  and  C_14 
REMARK    2  A    between atoms: C_9  and  C_26 
REMARK    3  A    between atoms: C_11  and  S_31 
REMARK    4  A    between atoms: C_15  and  N_27 
REMARK    5  A    between atoms: N_17  and  C_20 
ROOT
HETATM    1  C   UNK N   1      32.589  15.091   6.322  0.00  0.00     0.182 A 
HETATM    2  C   UNK N   1      32.120  16.318   8.702  0.00  0.00     0.078 A 
HETATM    3  C   UNK N   1      31.166  16.375   7.711  0.00  0.00     0.106 A 
HETATM    4  N   UNK N   1      31.402  15.744   6.529  0.00  0.00    -0.339 N 
ATOM      5  HN  UNK N   1      30.693  15.757   5.796  1.00  0.00     0.168 HD
HETATM    6  N   UNK N   1      33.537  15.035   7.312  0.00  0.00    -0.352 N 
ATOM      7  HN  UNK N   1      34.415  14.542   7.151  1.00  0.00     0.166 HD
HETATM    8  C   UNK N   1      33.304  15.636   8.511  0.00  0.00     0.046 A 
ENDROOT
BRANCH   3   9
HETATM    9  N   UNK N   1      29.947  17.052   8.003  0.00  0.00    -0.364 N 
HETATM   10  C   UNK N   1      28.961  17.189   6.966  0.00  0.00     0.136 C 
HETATM   11  C   UNK N   1      28.730  18.675   6.954  0.00  0.00     0.063 C 
HETATM   12  C   UNK N   1      28.689  18.954   8.472  0.00  0.00     0.102 C 
HETATM   13  C   UNK N   1      29.861  18.097   8.991  0.00  0.00     0.149 C 
BRANCH  11  14
HETATM   14  C   UNK N   1      27.605  19.072   6.014  0.00  0.00    -0.009 A 
HETATM   15  C   UNK N   1      27.195  20.404   5.787  0.00  0.00     0.126 A 
HETATM   16  F   UNK N   1      27.809  21.448   6.393  0.00  0.00    -0.205 F 
HETATM   17  C   UNK N   1      26.152  20.670   4.892  0.00  0.00     0.088 A 
HETATM   18  C   UNK N   1      25.508  19.628   4.219  0.00  0.00     0.157 A 
HETATM   19  F   UNK N   1      24.496  19.902   3.359  0.00  0.00    -0.203 F 
HETATM   20  C   UNK N   1      25.913  18.310   4.429  0.00  0.00     0.155 A 
HETATM   21  C   UNK N   1      26.956  18.038   5.313  0.00  0.00     0.056 A 
HETATM   22  F   UNK N   1      25.295  17.292   3.780  0.00  0.00    -0.203 F 
ENDBRANCH  11  14
BRANCH  12  23
HETATM   23  N   UNK N   1      27.458  18.428   9.054  0.00  0.00    -0.424 N 
HETATM   24  H   UNK N   1      26.719  17.726   9.083  0.00  0.00     0.150 HD
HETATM   25  H   UNK N   1      27.222  19.084   9.798  0.00  0.00     0.150 HD
ENDBRANCH  12  23
ENDBRANCH   3   9
BRANCH   8  26
HETATM   26  C   UNK N   1      34.212  15.545   9.674  0.00  0.00    -0.008 A 
HETATM   27  C   UNK N   1      34.222  14.333  10.372  0.00  0.00     0.037 A 
HETATM   28  C   UNK N   1      35.064  14.101  11.437  0.00  0.00     0.059 A 
HETATM   29  C   UNK N   1      35.932  15.115  11.854  0.00  0.00     0.023 A 
HETATM   30  C   UNK N   1      35.935  16.350  11.177  0.00  0.00     0.002 A 
HETATM   31  C   UNK N   1      35.087  16.562  10.073  0.00  0.00     0.014 A 
BRANCH  28  32
HETATM   32  S   UNK N   1      35.056  12.461  12.168  0.00  0.00     0.171 S 
HETATM   33  C   UNK N   1      34.495  10.891  11.459  0.00  0.00     0.167 C 
HETATM   34  O   UNK N   1      36.522  12.201  12.558  0.00  0.00    -0.223 OA
HETATM   35  O   UNK N   1      34.496  12.585  13.592  0.00  0.00    -0.223 OA
ENDBRANCH  28  32
ENDBRANCH   8  26
TORSDOF 5
ENDMDL
MODEL 7
REMARK VINA RESULT:      -8.1     13.346     16.517
REMARK  5 active torsions:
REMARK  status: ('A' for Active; 'I' for Inactive)
REMARK    1  A    between atoms: C_4  and  C_14 
REMARK    2  A    between atoms: C_9  and  C_26 
REMARK    3  A    between atoms: C_11  and  S_31 
REMARK    4  A    between atoms: C_15  and  N_27 
REMARK    5  A    between atoms: N_17  and  C_20 
ROOT
HETATM    1  C   UNK N   1      33.821  10.523  13.348  0.00  0.00     0.182 A 
HETATM    2  C   UNK N   1      35.530  12.456  14.203  0.00  0.00     0.078 A 
HETATM    3  C   UNK N   1      35.379  12.234  12.853  0.00  0.00     0.106 A 
HETATM    4  N   UNK N   1      34.510  11.277  12.433  0.00  0.00    -0.339 N 
ATOM      5  HN  UNK N   1      34.369  11.119  11.435  1.00  0.00     0.168 HD
HETATM    6  N   UNK N   1      33.972  10.748  14.693  0.00  0.00    -0.352 N 
ATOM      7  HN  UNK N   1      33.451  10.185  15.367  1.00  0.00     0.166 HD
HETATM    8  C   UNK N   1      34.817  11.722  15.128  0.00  0.00     0.046 A 
ENDROOT
BRANCH   3   9
HETATM    9  N   UNK N   1      36.109  13.069  11.959  0.00  0.00    -0.364 N 
HETATM   10  C   UNK N   1      35.402  14.061  11.198  0.00  0.00     0.136 C 
HETATM   11  C   UNK N   1      35.820  13.728   9.791  0.00  0.00     0.063 C 
HETATM   12  C   UNK N   1      37.326  13.465  10.013  0.00  0.00     0.102 C 
HETATM   13  C   UNK N   1      37.321  12.634  11.311  0.00  0.00     0.149 C 
BRANCH  11  14
HETATM   14  C   UNK N   1      35.301  14.740   8.785  0.00  0.00    -0.009 A 
HETATM   15  C   UNK N   1      35.480  14.630   7.388  0.00  0.00     0.126 A 
HETATM   16  F   UNK N   1      36.122  13.575   6.836  0.00  0.00    -0.205 F 
HETATM   17  C   UNK N   1      34.954  15.612   6.539  0.00  0.00     0.088 A 
HETATM   18  C   UNK N   1      34.255  16.705   7.060  0.00  0.00     0.157 A 
HETATM   19  F   UNK N   1      33.757  17.649   6.225  0.00  0.00    -0.203 F 
HETATM   20  C   UNK N   1      34.066  16.816   8.437  0.00  0.00     0.155 A 
HETATM   21  C   UNK N   1      34.579  15.838   9.288  0.00  0.00     0.056 A 
HETATM   22  F   UNK N   1      33.389  17.871   8.952  0.00  0.00    -0.203 F 
ENDBRANCH  11  14
BRANCH  12  23
HETATM   23  N   UNK N   1      38.028  14.715  10.284  0.00  0.00    -0.424 N 
HETATM   24  H   UNK N   1      38.159  15.555  10.848  0.00  0.00     0.150 HD
HETATM   25  H   UNK N   1      38.733  14.781   9.550  0.00  0.00     0.150 HD
ENDBRANCH  12  23
ENDBRANCH   3   9
BRANCH   8  26
HETATM   26  C   UNK N   1      34.971  12.113  16.546  0.00  0.00    -0.008 A 
HETATM   27  C   UNK N   1      35.213  11.082  17.460  0.00  0.00     0.037 A 
HETATM   28  C   UNK N   1      35.432  11.321  18.799  0.00  0.00     0.059 A 
HETATM   29  C   UNK N   1      35.397  12.636  19.274  0.00  0.00     0.023 A 
HETATM   30  C   UNK N   1      35.143  13.692  18.377  0.00  0.00     0.002 A 
HETATM   31  C   UNK N   1      34.948  13.434  17.006  0.00  0.00     0.014 A 
BRANCH  28  32
HETATM   32  S   UNK N   1      35.846   9.919  19.842  0.00  0.00     0.171 S 
HETATM   33  C   UNK N   1      35.040   9.338  21.357  0.00  0.00     0.167 C 
HETATM   34  O   UNK N   1      35.803   8.704  18.898  0.00  0.00    -0.223 OA
HETATM   35  O   UNK N   1      37.364   9.935  20.069  0.00  0.00    -0.223 OA
ENDBRANCH  28  32
ENDBRANCH   8  26
TORSDOF 5
ENDMDL
MODEL 8
REMARK VINA RESULT:      -8.0     11.802     13.561
REMARK  5 active torsions:
REMARK  status: ('A' for Active; 'I' for Inactive)
REMARK    1  A    between atoms: C_4  and  C_14 
REMARK    2  A    between atoms: C_9  and  C_26 
REMARK    3  A    between atoms: C_11  and  S_31 
REMARK    4  A    between atoms: C_15  and  N_27 
REMARK    5  A    between atoms: N_17  and  C_20 
ROOT
HETATM    1  C   UNK N   1      38.522  13.427  10.650  0.00  0.00     0.182 A 
HETATM    2  C   UNK N   1      35.884  13.034  10.130  0.00  0.00     0.078 A 
HETATM    3  C   UNK N   1      36.396  12.658  11.350  0.00  0.00     0.106 A 
HETATM    4  N   UNK N   1      37.714  12.873  11.609  0.00  0.00    -0.339 N 
ATOM      5  HN  UNK N   1      38.101  12.622  12.518  1.00  0.00     0.168 HD
HETATM    6  N   UNK N   1      38.007  13.802   9.435  0.00  0.00    -0.352 N 
ATOM      7  HN  UNK N   1      38.615  14.219   8.729  1.00  0.00     0.166 HD
HETATM    8  C   UNK N   1      36.684  13.620   9.172  0.00  0.00     0.046 A 
ENDROOT
BRANCH   3   9
HETATM    9  N   UNK N   1      35.495  12.108  12.307  0.00  0.00    -0.364 N 
HETATM   10  C   UNK N   1      35.453  12.673  13.628  0.00  0.00     0.136 C 
HETATM   11  C   UNK N   1      35.680  11.460  14.490  0.00  0.00     0.063 C 
HETATM   12  C   UNK N   1      34.775  10.441  13.764  0.00  0.00     0.102 C 
HETATM   13  C   UNK N   1      35.089  10.726  12.282  0.00  0.00     0.149 C 
BRANCH  11  14
HETATM   14  C   UNK N   1      35.543  11.775  15.969  0.00  0.00    -0.009 A 
HETATM   15  C   UNK N   1      35.634  10.810  16.996  0.00  0.00     0.126 A 
HETATM   16  F   UNK N   1      35.878   9.507  16.724  0.00  0.00    -0.205 F 
HETATM   17  C   UNK N   1      35.504  11.201  18.334  0.00  0.00     0.088 A 
HETATM   18  C   UNK N   1      35.282  12.540  18.667  0.00  0.00     0.157 A 
HETATM   19  F   UNK N   1      35.154  12.901  19.966  0.00  0.00    -0.203 F 
HETATM   20  C   UNK N   1      35.201  13.501  17.660  0.00  0.00     0.155 A 
HETATM   21  C   UNK N   1      35.339  13.121  16.325  0.00  0.00     0.056 A 
HETATM   22  F   UNK N   1      34.987  14.804  17.972  0.00  0.00    -0.203 F 
ENDBRANCH  11  14
BRANCH  12  23
HETATM   23  N   UNK N   1      33.369  10.754  13.991  0.00  0.00    -0.424 N 
HETATM   24  H   UNK N   1      32.389  10.686  13.718  0.00  0.00     0.150 HD
HETATM   25  H   UNK N   1      33.363  11.320  14.840  0.00  0.00     0.150 HD
ENDBRANCH  12  23
ENDBRANCH   3   9
BRANCH   8  26
HETATM   26  C   UNK N   1      36.013  14.085   7.940  0.00  0.00    -0.008 A 
HETATM   27  C   UNK N   1      35.256  15.257   8.038  0.00  0.00     0.037 A 
HETATM   28  C   UNK N   1      34.630  15.824   6.950  0.00  0.00     0.059 A 
HETATM   29  C   UNK N   1      34.735  15.205   5.701  0.00  0.00     0.023 A 
HETATM   30  C   UNK N   1      35.481  14.016   5.575  0.00  0.00     0.002 A 
HETATM   31  C   UNK N   1      36.138  13.463   6.692  0.00  0.00     0.014 A 
BRANCH  28  32
HETATM   32  S   UNK N   1      33.788  17.392   7.193  0.00  0.00     0.171 S 
HETATM   33  C   UNK N   1      32.354  17.775   8.232  0.00  0.00     0.167 C 
HETATM   34  O   UNK N   1      34.885  18.351   7.689  0.00  0.00    -0.223 OA
HETATM   35  O   UNK N   1      33.580  18.031   5.813  0.00  0.00    -0.223 OA
ENDBRANCH  28  32
ENDBRANCH   8  26
TORSDOF 5
ENDMDL
MODEL 9
REMARK VINA RESULT:      -7.9      4.899      7.818
REMARK  5 active torsions:
REMARK  status: ('A' for Active; 'I' for Inactive)
REMARK    1  A    between atoms: C_4  and  C_14 
REMARK    2  A    between atoms: C_9  and  C_26 
REMARK    3  A    between atoms: C_11  and  S_31 
REMARK    4  A    between atoms: C_15  and  N_27 
REMARK    5  A    between atoms: N_17  and  C_20 
ROOT
HETATM    1  C   UNK N   1      21.406  19.095   3.645  0.00  0.00     0.182 A 
HETATM    2  C   UNK N   1      23.189  17.908   5.318  0.00  0.00     0.078 A 
HETATM    3  C   UNK N   1      23.645  18.747   4.327  0.00  0.00     0.106 A 
HETATM    4  N   UNK N   1      22.745  19.350   3.505  0.00  0.00    -0.339 N 
ATOM      5  HN  UNK N   1      23.068  19.994   2.783  1.00  0.00     0.168 HD
HETATM    6  N   UNK N   1      20.954  18.259   4.635  0.00  0.00    -0.352 N 
ATOM      7  HN  UNK N   1      19.955  18.079   4.735  1.00  0.00     0.166 HD
HETATM    8  C   UNK N   1      21.840  17.670   5.484  0.00  0.00     0.046 A 
ENDROOT
BRANCH   3   9
HETATM    9  N   UNK N   1      25.048  18.984   4.253  0.00  0.00    -0.364 N 
HETATM   10  C   UNK N   1      25.939  18.123   4.981  0.00  0.00     0.136 C 
HETATM   11  C   UNK N   1      26.731  19.112   5.792  0.00  0.00     0.063 C 
HETATM   12  C   UNK N   1      26.977  20.201   4.724  0.00  0.00     0.102 C 
HETATM   13  C   UNK N   1      25.600  20.298   4.038  0.00  0.00     0.149 C 
BRANCH  11  14
HETATM   14  C   UNK N   1      27.858  18.448   6.563  0.00  0.00    -0.009 A 
HETATM   15  C   UNK N   1      28.628  17.371   6.071  0.00  0.00     0.126 A 
HETATM   16  F   UNK N   1      28.422  16.859   4.835  0.00  0.00    -0.205 F 
HETATM   17  C   UNK N   1      29.655  16.832   6.855  0.00  0.00     0.088 A 
HETATM   18  C   UNK N   1      29.927  17.348   8.125  0.00  0.00     0.157 A 
HETATM   19  F   UNK N   1      30.921  16.811   8.874  0.00  0.00    -0.203 F 
HETATM   20  C   UNK N   1      29.178  18.417   8.615  0.00  0.00     0.155 A 
HETATM   21  C   UNK N   1      28.159  18.965   7.837  0.00  0.00     0.056 A 
HETATM   22  F   UNK N   1      29.434  18.925   9.847  0.00  0.00    -0.203 F 
ENDBRANCH  11  14
BRANCH  12  23
HETATM   23  N   UNK N   1      27.939  19.734   3.731  0.00  0.00    -0.424 N 
HETATM   24  H   UNK N   1      28.884  19.447   3.477  0.00  0.00     0.150 HD
HETATM   25  H   UNK N   1      27.403  19.657   2.866  0.00  0.00     0.150 HD
ENDBRANCH  12  23
ENDBRANCH   3   9
BRANCH   8  26
HETATM   26  C   UNK N   1      21.451  16.841   6.644  0.00  0.00    -0.008 A 
HETATM   27  C   UNK N   1      22.197  15.680   6.868  0.00  0.00     0.037 A 
HETATM   28  C   UNK N   1      21.972  14.853   7.946  0.00  0.00     0.059 A 
HETATM   29  C   UNK N   1      20.951  15.170   8.848  0.00  0.00     0.023 A 
HETATM   30  C   UNK N   1      20.175  16.327   8.641  0.00  0.00     0.002 A 
HETATM   31  C   UNK N   1      20.435  17.177   7.547  0.00  0.00     0.014 A 
BRANCH  28  32
HETATM   32  S   UNK N   1      23.079  13.459   8.178  0.00  0.00     0.171 S 
HETATM   33  C   UNK N   1      24.781  13.236   7.597  0.00  0.00     0.167 C 
HETATM   34  O   UNK N   1      23.171  13.282   9.704  0.00  0.00    -0.223 OA
HETATM   35  O   UNK N   1      22.287  12.177   7.882  0.00  0.00    -0.223 OA
ENDBRANCH  28  32
ENDBRANCH   8  26
TORSDOF 5
ENDMDL
