REMARK  5 active torsions:
REMARK  status: ('A' for Active; 'I' for Inactive)
REMARK    1  A    between atoms: C_4  and  C_14 
REMARK    2  A    between atoms: C_9  and  C_26 
REMARK    3  A    between atoms: C_11  and  S_31 
REMARK    4  A    between atoms: C_15  and  N_27 
REMARK    5  A    between atoms: N_17  and  C_20 
ROOT
HETATM    1  C   UNK N   1      -0.264  -5.305   0.138  0.00  0.00     0.182 A 
HETATM    2  C   UNK N   1       0.592  -2.773  -0.355  0.00  0.00     0.078 A 
HETATM    3  C   UNK N   1      -0.757  -3.044  -0.358  0.00  0.00     0.106 A 
HETATM    4  N   UNK N   1      -1.178  -4.310  -0.094  0.00  0.00    -0.339 N 
ATOM      5  HN  UNK N   1      -2.176  -4.519  -0.068  1.00  0.00     0.168 HD
HETATM    6  N   UNK N   1       1.080  -5.031   0.142  0.00  0.00    -0.352 N 
ATOM      7  HN  UNK N   1       1.753  -5.777   0.321  1.00  0.00     0.166 HD
HETATM    8  C   UNK N   1       1.516  -3.763  -0.092  0.00  0.00     0.046 A 
ENDROOT
BRANCH   3   9
HETATM    9  N   UNK N   1      -1.651  -1.958  -0.585  0.00  0.00    -0.364 N 
HETATM   10  C   UNK N   1      -1.112  -0.637  -0.759  0.00  0.00     0.136 C 
HETATM   11  C   UNK N   1      -1.866   0.144   0.283  0.00  0.00     0.063 C 
HETATM   12  C   UNK N   1      -3.283  -0.437   0.082  0.00  0.00     0.102 C 
HETATM   13  C   UNK N   1      -2.997  -1.944  -0.070  0.00  0.00     0.149 C 
BRANCH  11  14
HETATM   14  C   UNK N   1      -1.569   1.631   0.210  0.00  0.00    -0.009 A 
HETATM   15  C   UNK N   1      -2.561   2.636   0.169  0.00  0.00     0.126 A 
HETATM   16  F   UNK N   1      -3.879   2.333   0.216  0.00  0.00    -0.205 F 
HETATM   17  C   UNK N   1      -2.186   3.984   0.113  0.00  0.00     0.088 A 
HETATM   18  C   UNK N   1      -0.837   4.348   0.094  0.00  0.00     0.157 A 
HETATM   19  F   UNK N   1      -0.491   5.657   0.034  0.00  0.00    -0.203 F 
HETATM   20  C   UNK N   1       0.149   3.363   0.144  0.00  0.00     0.155 A 
HETATM   21  C   UNK N   1      -0.216   2.019   0.209  0.00  0.00     0.056 A 
HETATM   22  F   UNK N   1       1.461   3.706   0.127  0.00  0.00    -0.203 F 
ENDBRANCH  11  14
BRANCH  12  23
HETATM   23  N   UNK N   1      -3.856   0.038  -1.173  0.00  0.00    -0.424 N 
HETATM   24  H   UNK N   1      -3.770   0.551  -2.050  0.00  0.00     0.150 HD
HETATM   25  H   UNK N   1      -4.812  -0.318  -1.173  0.00  0.00     0.150 HD
ENDBRANCH  12  23
ENDBRANCH   3   9
BRANCH   8  26
HETATM   26  C   UNK N   1       2.931  -3.344  -0.006  0.00  0.00    -0.008 A 
HETATM   27  C   UNK N   1       3.182  -1.968  -0.010  0.00  0.00     0.037 A 
HETATM   28  C   UNK N   1       4.451  -1.449   0.123  0.00  0.00     0.059 A 
HETATM   29  C   UNK N   1       5.536  -2.322   0.251  0.00  0.00     0.023 A 
HETATM   30  C   UNK N   1       5.314  -3.713   0.246  0.00  0.00     0.002 A 
HETATM   31  C   UNK N   1       4.007  -4.228   0.136  0.00  0.00     0.014 A 
BRANCH  28  32
HETATM   32  S   UNK N   1       4.619   0.336   0.219  0.00  0.00     0.171 S 
HETATM   33  C   UNK N   1       5.397   1.480  -0.951  0.00  0.00     0.167 C 
HETATM   34  O   UNK N   1       3.178   0.857   0.360  0.00  0.00    -0.223 OA
HETATM   35  O   UNK N   1       5.092   0.687   1.637  0.00  0.00    -0.223 OA
ENDBRANCH  28  32
ENDBRANCH   8  26
TORSDOF 5
