MODEL 1
REMARK VINA RESULT:      -6.7      0.000      0.000
REMARK  5 active torsions:
REMARK  status: ('A' for Active; 'I' for Inactive)
REMARK    1  A    between atoms: C_1  and  N_16 
REMARK    2  A    between atoms: C_2  and  C_13 
REMARK    3  A    between atoms: C_7  and  N_18 
REMARK    4  A    between atoms: C_10  and  O_22 
REMARK    5  A    between atoms: C_13  and  O_21 
ROOT
HETATM    1  N   UNK N   1      21.755  16.493   6.599  0.00  0.00    -0.299 N 
ATOM      2  HN  UNK N   1      20.902  16.970   6.309  1.00  0.00     0.187 HD
HETATM    3  N   UNK N   1      22.833  16.847   6.082  0.00  0.00    -0.300 N 
ATOM      4  HN  UNK N   1      23.707  16.392   6.348  1.00  0.00     0.187 HD
ENDROOT
BRANCH   1   5
HETATM    5  C   UNK N   1      21.654  15.465   7.567  0.00  0.00     0.065 A 
HETATM    6  C   UNK N   1      20.646  15.540   8.559  0.00  0.00     0.065 A 
HETATM    7  C   UNK N   1      20.553  14.517   9.514  0.00  0.00     0.021 A 
HETATM    8  C   UNK N   1      21.438  13.438   9.492  0.00  0.00     0.001 A 
HETATM    9  C   UNK N   1      22.431  13.367   8.514  0.00  0.00     0.002 A 
HETATM   10  C   UNK N   1      22.540  14.376   7.554  0.00  0.00     0.032 A 
BRANCH   6  11
HETATM   11  C   UNK N   1      19.677  16.673   8.622  0.00  0.00     0.178 C 
HETATM   12  O   UNK N   1      18.477  16.450   8.592  0.00  0.00    -0.646 OA
BRANCH  11  13
HETATM   13  O   UNK N   1      20.101  17.949   8.711  0.00  0.00    -0.773 OA
HETATM   14  H   UNK N   1      20.150  18.481   7.941  0.00  0.00     0.167 HD
ENDBRANCH  11  13
ENDBRANCH   6  11
ENDBRANCH   1   5
BRANCH   3  15
HETATM   15  C   UNK N   1      22.831  17.889   5.120  0.00  0.00     0.049 A 
HETATM   16  C   UNK N   1      21.625  18.393   4.624  0.00  0.00     0.040 A 
HETATM   17  C   UNK N   1      21.632  19.422   3.673  0.00  0.00    -0.026 A 
HETATM   18  C   UNK N   1      22.853  19.951   3.216  0.00  0.00     0.077 A 
HETATM   19  C   UNK N   1      20.338  19.948   3.155  0.00  0.00     0.051 C 
HETATM   20  C   UNK N   1      24.062  19.444   3.715  0.00  0.00    -0.026 A 
HETATM   21  C   UNK N   1      24.045  18.421   4.659  0.00  0.00     0.040 A 
HETATM   22  C   UNK N   1      25.372  19.981   3.252  0.00  0.00     0.051 C 
BRANCH  18  23
HETATM   23  O   UNK N   1      22.864  20.941   2.302  0.00  0.00    -0.360 OA
HETATM   24  H   UNK N   1      23.680  21.275   1.983  0.00  0.00     0.217 HD
ENDBRANCH  18  23
ENDBRANCH   3  15
TORSDOF 5
ENDMDL
MODEL 2
REMARK VINA RESULT:      -6.7      9.665     11.168
REMARK  5 active torsions:
REMARK  status: ('A' for Active; 'I' for Inactive)
REMARK    1  A    between atoms: C_1  and  N_16 
REMARK    2  A    between atoms: C_2  and  C_13 
REMARK    3  A    between atoms: C_7  and  N_18 
REMARK    4  A    between atoms: C_10  and  O_22 
REMARK    5  A    between atoms: C_13  and  O_21 
ROOT
HETATM    1  N   UNK N   1      32.751  16.376   7.942  0.00  0.00    -0.299 N 
ATOM      2  HN  UNK N   1      33.056  16.027   7.034  1.00  0.00     0.187 HD
HETATM    3  N   UNK N   1      31.653  16.963   8.010  0.00  0.00    -0.300 N 
ATOM      4  HN  UNK N   1      31.316  17.326   8.902  1.00  0.00     0.187 HD
ENDROOT
BRANCH   1   5
HETATM    5  C   UNK N   1      33.595  16.170   9.059  0.00  0.00     0.065 A 
HETATM    6  C   UNK N   1      34.652  17.080   9.310  0.00  0.00     0.065 A 
HETATM    7  C   UNK N   1      35.484  16.868  10.419  0.00  0.00     0.021 A 
HETATM    8  C   UNK N   1      35.279  15.778  11.267  0.00  0.00     0.001 A 
HETATM    9  C   UNK N   1      34.238  14.883  11.017  0.00  0.00     0.002 A 
HETATM   10  C   UNK N   1      33.398  15.077   9.918  0.00  0.00     0.032 A 
BRANCH   6  11
HETATM   11  C   UNK N   1      34.909  18.259   8.433  0.00  0.00     0.178 C 
HETATM   12  O   UNK N   1      34.549  18.239   7.266  0.00  0.00    -0.646 OA
BRANCH  11  13
HETATM   13  O   UNK N   1      35.536  19.355   8.904  0.00  0.00    -0.773 OA
HETATM   14  H   UNK N   1      36.471  19.374   8.957  0.00  0.00     0.167 HD
ENDBRANCH  11  13
ENDBRANCH   6  11
ENDBRANCH   1   5
BRANCH   3  15
HETATM   15  C   UNK N   1      30.877  17.121   6.833  0.00  0.00     0.049 A 
HETATM   16  C   UNK N   1      29.543  17.532   6.913  0.00  0.00     0.040 A 
HETATM   17  C   UNK N   1      28.785  17.685   5.745  0.00  0.00    -0.026 A 
HETATM   18  C   UNK N   1      29.363  17.426   4.489  0.00  0.00     0.077 A 
HETATM   19  C   UNK N   1      27.365  18.124   5.848  0.00  0.00     0.051 C 
HETATM   20  C   UNK N   1      30.702  17.014   4.411  0.00  0.00    -0.026 A 
HETATM   21  C   UNK N   1      31.448  16.864   5.577  0.00  0.00     0.040 A 
HETATM   22  C   UNK N   1      31.346  16.730   3.098  0.00  0.00     0.051 C 
BRANCH  18  23
HETATM   23  O   UNK N   1      28.638  17.572   3.364  0.00  0.00    -0.360 OA
HETATM   24  H   UNK N   1      28.134  16.853   3.034  0.00  0.00     0.217 HD
ENDBRANCH  18  23
ENDBRANCH   3  15
TORSDOF 5
ENDMDL
MODEL 3
REMARK VINA RESULT:      -6.7      0.221      1.939
REMARK  5 active torsions:
REMARK  status: ('A' for Active; 'I' for Inactive)
REMARK    1  A    between atoms: C_1  and  N_16 
REMARK    2  A    between atoms: C_2  and  C_13 
REMARK    3  A    between atoms: C_7  and  N_18 
REMARK    4  A    between atoms: C_10  and  O_22 
REMARK    5  A    between atoms: C_13  and  O_21 
ROOT
HETATM    1  N   UNK N   1      21.760  16.332   6.422  0.00  0.00    -0.299 N 
ATOM      2  HN  UNK N   1      20.998  16.383   5.746  1.00  0.00     0.187 HD
HETATM    3  N   UNK N   1      22.711  17.129   6.300  0.00  0.00    -0.300 N 
ATOM      4  HN  UNK N   1      23.490  17.107   6.958  1.00  0.00     0.187 HD
ENDROOT
BRANCH   1   5
HETATM    5  C   UNK N   1      21.682  15.361   7.449  0.00  0.00     0.065 A 
HETATM    6  C   UNK N   1      20.712  15.504   8.470  0.00  0.00     0.065 A 
HETATM    7  C   UNK N   1      20.642  14.537   9.484  0.00  0.00     0.021 A 
HETATM    8  C   UNK N   1      21.514  13.447   9.491  0.00  0.00     0.001 A 
HETATM    9  C   UNK N   1      22.470  13.308   8.484  0.00  0.00     0.002 A 
HETATM   10  C   UNK N   1      22.555  14.260   7.465  0.00  0.00     0.032 A 
BRANCH   6  11
HETATM   11  C   UNK N   1      19.759  16.651   8.504  0.00  0.00     0.178 C 
HETATM   12  O   UNK N   1      18.567  16.448   8.674  0.00  0.00    -0.646 OA
BRANCH  11  13
HETATM   13  O   UNK N   1      20.188  17.919   8.349  0.00  0.00    -0.773 OA
HETATM   14  H   UNK N   1      19.684  18.526   7.844  0.00  0.00     0.167 HD
ENDBRANCH  11  13
ENDBRANCH   6  11
ENDBRANCH   1   5
BRANCH   3  15
HETATM   15  C   UNK N   1      22.696  18.067   5.236  0.00  0.00     0.049 A 
HETATM   16  C   UNK N   1      23.894  18.575   4.724  0.00  0.00     0.040 A 
HETATM   17  C   UNK N   1      23.871  19.501   3.672  0.00  0.00    -0.026 A 
HETATM   18  C   UNK N   1      22.643  19.922   3.130  0.00  0.00     0.077 A 
HETATM   19  C   UNK N   1      25.156  20.033   3.138  0.00  0.00     0.051 C 
HETATM   20  C   UNK N   1      21.443  19.411   3.646  0.00  0.00    -0.026 A 
HETATM   21  C   UNK N   1      21.475  18.491   4.690  0.00  0.00     0.040 A 
HETATM   22  C   UNK N   1      20.125  19.834   3.096  0.00  0.00     0.051 C 
BRANCH  18  23
HETATM   23  O   UNK N   1      22.616  20.812   2.120  0.00  0.00    -0.360 OA
HETATM   24  H   UNK N   1      23.166  20.688   1.371  0.00  0.00     0.217 HD
ENDBRANCH  18  23
ENDBRANCH   3  15
TORSDOF 5
ENDMDL
MODEL 4
REMARK VINA RESULT:      -6.6     13.701     16.023
REMARK  5 active torsions:
REMARK  status: ('A' for Active; 'I' for Inactive)
REMARK    1  A    between atoms: C_1  and  N_16 
REMARK    2  A    between atoms: C_2  and  C_13 
REMARK    3  A    between atoms: C_7  and  N_18 
REMARK    4  A    between atoms: C_10  and  O_22 
REMARK    5  A    between atoms: C_13  and  O_21 
ROOT
HETATM    1  N   UNK N   1      34.203  14.352  11.224  0.00  0.00    -0.299 N 
ATOM      2  HN  UNK N   1      33.779  14.891  11.978  1.00  0.00     0.187 HD
HETATM    3  N   UNK N   1      34.940  13.393  11.527  0.00  0.00    -0.300 N 
ATOM      4  HN  UNK N   1      35.382  12.832  10.799  1.00  0.00     0.187 HD
ENDROOT
BRANCH   1   5
HETATM    5  C   UNK N   1      33.926  14.732   9.889  0.00  0.00     0.065 A 
HETATM    6  C   UNK N   1      34.603  15.842   9.326  0.00  0.00     0.065 A 
HETATM    7  C   UNK N   1      34.322  16.211   8.002  0.00  0.00     0.021 A 
HETATM    8  C   UNK N   1      33.389  15.499   7.246  0.00  0.00     0.001 A 
HETATM    9  C   UNK N   1      32.724  14.406   7.803  0.00  0.00     0.002 A 
HETATM   10  C   UNK N   1      32.990  14.023   9.119  0.00  0.00     0.032 A 
BRANCH   6  11
HETATM   11  C   UNK N   1      35.607  16.632  10.095  0.00  0.00     0.178 C 
HETATM   12  O   UNK N   1      35.562  17.852  10.080  0.00  0.00    -0.646 OA
BRANCH  11  13
HETATM   13  O   UNK N   1      36.572  16.024  10.813  0.00  0.00    -0.773 OA
HETATM   14  H   UNK N   1      36.888  16.419  11.602  0.00  0.00     0.167 HD
ENDBRANCH  11  13
ENDBRANCH   6  11
ENDBRANCH   1   5
BRANCH   3  15
HETATM   15  C   UNK N   1      35.157  13.092  12.896  0.00  0.00     0.049 A 
HETATM   16  C   UNK N   1      34.578  11.957  13.471  0.00  0.00     0.040 A 
HETATM   17  C   UNK N   1      34.797  11.666  14.825  0.00  0.00    -0.026 A 
HETATM   18  C   UNK N   1      35.601  12.515  15.607  0.00  0.00     0.077 A 
HETATM   19  C   UNK N   1      34.173  10.453  15.423  0.00  0.00     0.051 C 
HETATM   20  C   UNK N   1      36.182  13.653  15.027  0.00  0.00    -0.026 A 
HETATM   21  C   UNK N   1      35.958  13.934  13.682  0.00  0.00     0.040 A 
HETATM   22  C   UNK N   1      37.038  14.574  15.825  0.00  0.00     0.051 C 
BRANCH  18  23
HETATM   23  O   UNK N   1      35.815  12.240  16.907  0.00  0.00    -0.360 OA
HETATM   24  H   UNK N   1      35.925  12.939  17.523  0.00  0.00     0.217 HD
ENDBRANCH  18  23
ENDBRANCH   3  15
TORSDOF 5
ENDMDL
MODEL 5
REMARK VINA RESULT:      -6.6     13.199     14.871
REMARK  5 active torsions:
REMARK  status: ('A' for Active; 'I' for Inactive)
REMARK    1  A    between atoms: C_1  and  N_16 
REMARK    2  A    between atoms: C_2  and  C_13 
REMARK    3  A    between atoms: C_7  and  N_18 
REMARK    4  A    between atoms: C_10  and  O_22 
REMARK    5  A    between atoms: C_13  and  O_21 
ROOT
HETATM    1  N   UNK N   1      28.583  24.003  -4.612  0.00  0.00    -0.299 N 
ATOM      2  HN  UNK N   1      27.571  23.906  -4.683  1.00  0.00     0.187 HD
HETATM    3  N   UNK N   1      29.056  25.145  -4.448  0.00  0.00    -0.300 N 
ATOM      4  HN  UNK N   1      30.064  25.280  -4.373  1.00  0.00     0.187 HD
ENDROOT
BRANCH   1   5
HETATM    5  C   UNK N   1      29.378  22.836  -4.706  0.00  0.00     0.065 A 
HETATM    6  C   UNK N   1      29.878  22.237  -3.523  0.00  0.00     0.065 A 
HETATM    7  C   UNK N   1      30.664  21.080  -3.625  0.00  0.00     0.021 A 
HETATM    8  C   UNK N   1      30.954  20.522  -4.871  0.00  0.00     0.001 A 
HETATM    9  C   UNK N   1      30.460  21.114  -6.035  0.00  0.00     0.002 A 
HETATM   10  C   UNK N   1      29.675  22.266  -5.954  0.00  0.00     0.032 A 
BRANCH   6  11
HETATM   11  C   UNK N   1      29.595  22.797  -2.170  0.00  0.00     0.178 C 
HETATM   12  O   UNK N   1      30.512  22.995  -1.389  0.00  0.00    -0.646 OA
BRANCH  11  13
HETATM   13  O   UNK N   1      28.337  23.094  -1.786  0.00  0.00    -0.773 OA
HETATM   14  H   UNK N   1      28.189  23.738  -1.122  0.00  0.00     0.167 HD
ENDBRANCH  11  13
ENDBRANCH   6  11
ENDBRANCH   1   5
BRANCH   3  15
HETATM   15  C   UNK N   1      28.176  26.254  -4.366  0.00  0.00     0.049 A 
HETATM   16  C   UNK N   1      26.921  26.210  -4.982  0.00  0.00     0.040 A 
HETATM   17  C   UNK N   1      26.058  27.311  -4.896  0.00  0.00    -0.026 A 
HETATM   18  C   UNK N   1      26.452  28.462  -4.190  0.00  0.00     0.077 A 
HETATM   19  C   UNK N   1      24.725  27.247  -5.558  0.00  0.00     0.051 C 
HETATM   20  C   UNK N   1      27.711  28.504  -3.573  0.00  0.00    -0.026 A 
HETATM   21  C   UNK N   1      28.561  27.406  -3.664  0.00  0.00     0.040 A 
HETATM   22  C   UNK N   1      28.159  29.707  -2.818  0.00  0.00     0.051 C 
BRANCH  18  23
HETATM   23  O   UNK N   1      25.625  29.522  -4.105  0.00  0.00    -0.360 OA
HETATM   24  H   UNK N   1      25.767  30.176  -3.449  0.00  0.00     0.217 HD
ENDBRANCH  18  23
ENDBRANCH   3  15
TORSDOF 5
ENDMDL
MODEL 6
REMARK VINA RESULT:      -6.5      1.535      6.846
REMARK  5 active torsions:
REMARK  status: ('A' for Active; 'I' for Inactive)
REMARK    1  A    between atoms: C_1  and  N_16 
REMARK    2  A    between atoms: C_2  and  C_13 
REMARK    3  A    between atoms: C_7  and  N_18 
REMARK    4  A    between atoms: C_10  and  O_22 
REMARK    5  A    between atoms: C_13  and  O_21 
ROOT
HETATM    1  N   UNK N   1      22.660  17.959   5.814  0.00  0.00    -0.299 N 
ATOM      2  HN  UNK N   1      22.323  18.439   6.648  1.00  0.00     0.187 HD
HETATM    3  N   UNK N   1      22.431  16.738   5.702  0.00  0.00    -0.300 N 
ATOM      4  HN  UNK N   1      22.753  16.226   4.881  1.00  0.00     0.187 HD
ENDROOT
BRANCH   1   5
HETATM    5  C   UNK N   1      23.362  18.713   4.843  0.00  0.00     0.065 A 
HETATM    6  C   UNK N   1      22.637  19.436   3.865  0.00  0.00     0.065 A 
HETATM    7  C   UNK N   1      23.341  20.180   2.907  0.00  0.00     0.021 A 
HETATM    8  C   UNK N   1      24.736  20.212   2.912  0.00  0.00     0.001 A 
HETATM    9  C   UNK N   1      25.449  19.498   3.878  0.00  0.00     0.002 A 
HETATM   10  C   UNK N   1      24.766  18.751   4.840  0.00  0.00     0.032 A 
BRANCH   6  11
HETATM   11  C   UNK N   1      21.146  19.432   3.819  0.00  0.00     0.178 C 
HETATM   12  O   UNK N   1      20.541  18.373   3.765  0.00  0.00    -0.646 OA
BRANCH  11  13
HETATM   13  O   UNK N   1      20.444  20.583   3.836  0.00  0.00    -0.773 OA
HETATM   14  H   UNK N   1      19.516  20.564   3.959  0.00  0.00     0.167 HD
ENDBRANCH  11  13
ENDBRANCH   6  11
ENDBRANCH   1   5
BRANCH   3  15
HETATM   15  C   UNK N   1      21.717  16.071   6.731  0.00  0.00     0.049 A 
HETATM   16  C   UNK N   1      22.087  14.782   7.127  0.00  0.00     0.040 A 
HETATM   17  C   UNK N   1      21.377  14.129   8.144  0.00  0.00    -0.026 A 
HETATM   18  C   UNK N   1      20.290  14.769   8.768  0.00  0.00     0.077 A 
HETATM   19  C   UNK N   1      21.783  12.756   8.554  0.00  0.00     0.051 C 
HETATM   20  C   UNK N   1      19.922  16.062   8.368  0.00  0.00    -0.026 A 
HETATM   21  C   UNK N   1      20.633  16.703   7.358  0.00  0.00     0.040 A 
HETATM   22  C   UNK N   1      18.777  16.770   9.007  0.00  0.00     0.051 C 
BRANCH  18  23
HETATM   23  O   UNK N   1      19.605  14.146   9.745  0.00  0.00    -0.360 OA
HETATM   24  H   UNK N   1      19.436  13.226   9.685  0.00  0.00     0.217 HD
ENDBRANCH  18  23
ENDBRANCH   3  15
TORSDOF 5
ENDMDL
MODEL 7
REMARK VINA RESULT:      -6.5      1.485      6.720
REMARK  5 active torsions:
REMARK  status: ('A' for Active; 'I' for Inactive)
REMARK    1  A    between atoms: C_1  and  N_16 
REMARK    2  A    between atoms: C_2  and  C_13 
REMARK    3  A    between atoms: C_7  and  N_18 
REMARK    4  A    between atoms: C_10  and  O_22 
REMARK    5  A    between atoms: C_13  and  O_21 
ROOT
HETATM    1  N   UNK N   1      23.010  18.172   5.531  0.00  0.00    -0.299 N 
ATOM      2  HN  UNK N   1      22.595  18.686   6.308  1.00  0.00     0.187 HD
HETATM    3  N   UNK N   1      22.787  16.949   5.447  0.00  0.00    -0.300 N 
ATOM      4  HN  UNK N   1      23.185  16.403   4.682  1.00  0.00     0.187 HD
ENDROOT
BRANCH   1   5
HETATM    5  C   UNK N   1      23.808  18.885   4.604  0.00  0.00     0.065 A 
HETATM    6  C   UNK N   1      23.181  19.651   3.591  0.00  0.00     0.065 A 
HETATM    7  C   UNK N   1      23.979  20.355   2.677  0.00  0.00     0.021 A 
HETATM    8  C   UNK N   1      25.371  20.305   2.760  0.00  0.00     0.001 A 
HETATM    9  C   UNK N   1      25.987  19.550   3.760  0.00  0.00     0.002 A 
HETATM   10  C   UNK N   1      25.209  18.842   4.679  0.00  0.00     0.032 A 
BRANCH   6  11
HETATM   11  C   UNK N   1      21.697  19.734   3.462  0.00  0.00     0.178 C 
HETATM   12  O   UNK N   1      21.025  18.715   3.495  0.00  0.00    -0.646 OA
BRANCH  11  13
HETATM   13  O   UNK N   1      21.075  20.920   3.309  0.00  0.00    -0.773 OA
HETATM   14  H   UNK N   1      20.683  21.141   2.487  0.00  0.00     0.167 HD
ENDBRANCH  11  13
ENDBRANCH   6  11
ENDBRANCH   1   5
BRANCH   3  15
HETATM   15  C   UNK N   1      21.973  16.324   6.426  0.00  0.00     0.049 A 
HETATM   16  C   UNK N   1      21.001  17.058   7.112  0.00  0.00     0.040 A 
HETATM   17  C   UNK N   1      20.201  16.432   8.078  0.00  0.00    -0.026 A 
HETATM   18  C   UNK N   1      20.374  15.065   8.360  0.00  0.00     0.077 A 
HETATM   19  C   UNK N   1      19.170  17.229   8.801  0.00  0.00     0.051 C 
HETATM   20  C   UNK N   1      21.350  14.331   7.669  0.00  0.00    -0.026 A 
HETATM   21  C   UNK N   1      22.140  14.960   6.711  0.00  0.00     0.040 A 
HETATM   22  C   UNK N   1      21.560  12.881   7.942  0.00  0.00     0.051 C 
BRANCH  18  23
HETATM   23  O   UNK N   1      19.608  14.460   9.287  0.00  0.00    -0.360 OA
HETATM   24  H   UNK N   1      20.008  13.957   9.970  0.00  0.00     0.217 HD
ENDBRANCH  18  23
ENDBRANCH   3  15
TORSDOF 5
ENDMDL
MODEL 8
REMARK VINA RESULT:      -6.4     13.121     15.303
REMARK  5 active torsions:
REMARK  status: ('A' for Active; 'I' for Inactive)
REMARK    1  A    between atoms: C_1  and  N_16 
REMARK    2  A    between atoms: C_2  and  C_13 
REMARK    3  A    between atoms: C_7  and  N_18 
REMARK    4  A    between atoms: C_10  and  O_22 
REMARK    5  A    between atoms: C_13  and  O_21 
ROOT
HETATM    1  N   UNK N   1      34.308  15.057   9.664  0.00  0.00    -0.299 N 
ATOM      2  HN  UNK N   1      35.216  14.829   9.261  1.00  0.00     0.187 HD
HETATM    3  N   UNK N   1      34.071  14.687  10.831  0.00  0.00    -0.300 N 
ATOM      4  HN  UNK N   1      33.173  14.898  11.267  1.00  0.00     0.187 HD
ENDROOT
BRANCH   1   5
HETATM    5  C   UNK N   1      33.383  15.777   8.870  0.00  0.00     0.065 A 
HETATM    6  C   UNK N   1      33.619  17.146   8.595  0.00  0.00     0.065 A 
HETATM    7  C   UNK N   1      32.697  17.852   7.808  0.00  0.00     0.021 A 
HETATM    8  C   UNK N   1      31.561  17.219   7.300  0.00  0.00     0.001 A 
HETATM    9  C   UNK N   1      31.330  15.870   7.573  0.00  0.00     0.002 A 
HETATM   10  C   UNK N   1      32.237  15.150   8.355  0.00  0.00     0.032 A 
BRANCH   6  11
HETATM   11  C   UNK N   1      34.819  17.864   9.115  0.00  0.00     0.178 C 
HETATM   12  O   UNK N   1      35.413  17.431  10.090  0.00  0.00    -0.646 OA
BRANCH  11  13
HETATM   13  O   UNK N   1      35.267  18.992   8.527  0.00  0.00    -0.773 OA
HETATM   14  H   UNK N   1      35.538  18.977   7.631  0.00  0.00     0.167 HD
ENDBRANCH  11  13
ENDBRANCH   6  11
ENDBRANCH   1   5
BRANCH   3  15
HETATM   15  C   UNK N   1      35.064  13.970  11.545  0.00  0.00     0.049 A 
HETATM   16  C   UNK N   1      35.684  12.856  10.972  0.00  0.00     0.040 A 
HETATM   17  C   UNK N   1      36.664  12.153  11.685  0.00  0.00    -0.026 A 
HETATM   18  C   UNK N   1      37.028  12.567  12.979  0.00  0.00     0.077 A 
HETATM   19  C   UNK N   1      37.315  10.967  11.059  0.00  0.00     0.051 C 
HETATM   20  C   UNK N   1      36.405  13.686  13.552  0.00  0.00    -0.026 A 
HETATM   21  C   UNK N   1      35.432  14.378  12.837  0.00  0.00     0.040 A 
HETATM   22  C   UNK N   1      36.765  14.152  14.921  0.00  0.00     0.051 C 
BRANCH  18  23
HETATM   23  O   UNK N   1      37.969  11.895  13.668  0.00  0.00    -0.360 OA
HETATM   24  H   UNK N   1      38.429  12.317  14.368  0.00  0.00     0.217 HD
ENDBRANCH  18  23
ENDBRANCH   3  15
TORSDOF 5
ENDMDL
MODEL 9
REMARK VINA RESULT:      -6.4     16.258     18.559
REMARK  5 active torsions:
REMARK  status: ('A' for Active; 'I' for Inactive)
REMARK    1  A    between atoms: C_1  and  N_16 
REMARK    2  A    between atoms: C_2  and  C_13 
REMARK    3  A    between atoms: C_7  and  N_18 
REMARK    4  A    between atoms: C_10  and  O_22 
REMARK    5  A    between atoms: C_13  and  O_21 
ROOT
HETATM    1  N   UNK N   1      36.762  12.185  14.361  0.00  0.00    -0.299 N 
ATOM      2  HN  UNK N   1      37.364  12.854  14.842  1.00  0.00     0.187 HD
HETATM    3  N   UNK N   1      35.821  11.675  15.000  0.00  0.00    -0.300 N 
ATOM      4  HN  UNK N   1      35.198  11.002  14.552  1.00  0.00     0.187 HD
ENDROOT
BRANCH   1   5
HETATM    5  C   UNK N   1      37.038  11.886  13.006  0.00  0.00     0.065 A 
HETATM    6  C   UNK N   1      36.713  12.833  12.004  0.00  0.00     0.065 A 
HETATM    7  C   UNK N   1      36.991  12.528  10.663  0.00  0.00     0.021 A 
HETATM    8  C   UNK N   1      37.579  11.310  10.315  0.00  0.00     0.001 A 
HETATM    9  C   UNK N   1      37.898  10.379  11.305  0.00  0.00     0.002 A 
HETATM   10  C   UNK N   1      37.629  10.664  12.646  0.00  0.00     0.032 A 
BRANCH   6  11
HETATM   11  C   UNK N   1      36.085  14.146  12.327  0.00  0.00     0.178 C 
HETATM   12  O   UNK N   1      35.071  14.185  13.007  0.00  0.00    -0.646 OA
BRANCH  11  13
HETATM   13  O   UNK N   1      36.615  15.303  11.882  0.00  0.00    -0.773 OA
HETATM   14  H   UNK N   1      36.671  15.469  10.962  0.00  0.00     0.167 HD
ENDBRANCH  11  13
ENDBRANCH   6  11
ENDBRANCH   1   5
BRANCH   3  15
HETATM   15  C   UNK N   1      35.625  12.040  16.357  0.00  0.00     0.049 A 
HETATM   16  C   UNK N   1      35.504  13.385  16.718  0.00  0.00     0.040 A 
HETATM   17  C   UNK N   1      35.311  13.737  18.060  0.00  0.00    -0.026 A 
HETATM   18  C   UNK N   1      35.238  12.737  19.048  0.00  0.00     0.077 A 
HETATM   19  C   UNK N   1      35.184  15.175  18.428  0.00  0.00     0.051 C 
HETATM   20  C   UNK N   1      35.360  11.389  18.683  0.00  0.00    -0.026 A 
HETATM   21  C   UNK N   1      35.552  11.048  17.347  0.00  0.00     0.040 A 
HETATM   22  C   UNK N   1      35.289  10.305  19.703  0.00  0.00     0.051 C 
BRANCH  18  23
HETATM   23  O   UNK N   1      35.053  13.071  20.339  0.00  0.00    -0.360 OA
HETATM   24  H   UNK N   1      34.699  13.911  20.561  0.00  0.00     0.217 HD
ENDBRANCH  18  23
ENDBRANCH   3  15
TORSDOF 5
ENDMDL
