REMARK  5 active torsions:
REMARK  status: ('A' for Active; 'I' for Inactive)
REMARK    1  A    between atoms: C_1  and  N_16 
REMARK    2  A    between atoms: C_2  and  C_13 
REMARK    3  A    between atoms: C_7  and  N_18 
REMARK    4  A    between atoms: C_10  and  O_22 
REMARK    5  A    between atoms: C_13  and  O_21 
ROOT
HETATM    1  N   UNK N   1       0.071  -1.100  -0.000  0.00  0.00    -0.299 N 
ATOM      2  HN  UNK N   1       0.941  -0.568  -0.000  1.00  0.00     0.187 HD
HETATM    3  N   UNK N   1      -1.005  -0.470  -0.000  0.00  0.00    -0.300 N 
ATOM      4  HN  UNK N   1      -1.895  -0.969  -0.000  1.00  0.00     0.187 HD
ENDROOT
BRANCH   1   5
HETATM    5  C   UNK N   1       0.148  -2.513   0.000  0.00  0.00     0.065 A 
HETATM    6  C   UNK N   1       1.418  -3.141   0.000  0.00  0.00     0.065 A 
HETATM    7  C   UNK N   1       1.485  -4.542   0.000  0.00  0.00     0.021 A 
HETATM    8  C   UNK N   1       0.321  -5.312   0.000  0.00  0.00     0.001 A 
HETATM    9  C   UNK N   1      -0.929  -4.691   0.000  0.00  0.00     0.002 A 
HETATM   10  C   UNK N   1      -1.017  -3.297   0.000  0.00  0.00     0.032 A 
BRANCH   6  11
HETATM   11  C   UNK N   1       2.689  -2.360  -0.000  0.00  0.00     0.178 C 
HETATM   12  O   UNK N   1       3.762  -2.943   0.000  0.00  0.00    -0.646 OA
BRANCH  11  13
HETATM   13  O   UNK N   1       2.680  -1.012  -0.000  0.00  0.00    -0.773 OA
HETATM   14  H   UNK N   1       3.488  -0.538  -0.000  0.00  0.00     0.167 HD
ENDBRANCH  11  13
ENDBRANCH   6  11
ENDBRANCH   1   5
BRANCH   3  15
HETATM   15  C   UNK N   1      -0.978   0.948  -0.000  0.00  0.00     0.049 A 
HETATM   16  C   UNK N   1      -2.170   1.679  -0.000  0.00  0.00     0.040 A 
HETATM   17  C   UNK N   1      -2.134   3.080  -0.000  0.00  0.00    -0.026 A 
HETATM   18  C   UNK N   1      -0.899   3.754  -0.000  0.00  0.00     0.077 A 
HETATM   19  C   UNK N   1      -3.413   3.844  -0.000  0.00  0.00     0.051 C 
HETATM   20  C   UNK N   1       0.295   3.018  -0.000  0.00  0.00    -0.026 A 
HETATM   21  C   UNK N   1       0.250   1.627  -0.000  0.00  0.00     0.040 A 
HETATM   22  C   UNK N   1       1.620   3.699   0.000  0.00  0.00     0.051 C 
BRANCH  18  23
HETATM   23  O   UNK N   1      -0.860   5.100   0.000  0.00  0.00    -0.360 OA
HETATM   24  H   UNK N   1      -0.035   5.545   0.000  0.00  0.00     0.217 HD
ENDBRANCH  18  23
ENDBRANCH   3  15
TORSDOF 5
