REMARK  7 active torsions:
REMARK  status: ('A' for Active; 'I' for Inactive)
REMARK    1  A    between atoms: C_2  and  C_3 
REMARK    2  A    between atoms: C_2  and  O_18 
REMARK    3  A    between atoms: C_4  and  C_6 
REMARK    4  A    between atoms: C_7  and  O_12 
REMARK    5  A    between atoms: C_9  and  N_13 
REMARK    6  A    between atoms: N_13  and  C_14 
REMARK    7  A    between atoms: N_13  and  C_15 
ROOT
HETATM    1  C   UNK N   1       1.791   0.456  -0.020  0.00  0.00    -0.002 A 
HETATM    2  C   UNK N   1       1.879  -0.940  -0.176  0.00  0.00     0.078 A 
HETATM    3  C   UNK N   1       0.718  -1.723  -0.165  0.00  0.00     0.066 A 
HETATM    4  C   UNK N   1      -0.546  -1.132   0.011  0.00  0.00     0.032 A 
HETATM    5  C   UNK N   1      -0.621   0.257   0.189  0.00  0.00     0.030 A 
HETATM    6  C   UNK N   1       0.531   1.039   0.167  0.00  0.00     0.016 A 
ENDROOT
BRANCH   1   7
HETATM    7  C   UNK N   1       3.023   1.284  -0.114  0.00  0.00     0.027 C 
HETATM    8  C   UNK N   1       3.136   2.621   0.032  0.00  0.00     0.012 C 
HETATM    9  C   UNK N   1       1.966   3.493   0.383  0.00  0.00     0.055 C 
BRANCH   8  10
HETATM   10  C   UNK N   1       4.450   3.262  -0.192  0.00  0.00     0.171 C 
HETATM   11  O   UNK N   1       4.565   4.472  -0.109  0.00  0.00    -0.646 OA
BRANCH  10  12
HETATM   12  O   UNK N   1       5.524   2.514  -0.520  0.00  0.00    -0.773 OA
HETATM   13  H   UNK N   1       5.447   1.608  -0.748  0.00  0.00     0.167 HD
ENDBRANCH  10  12
ENDBRANCH   8  10
ENDBRANCH   1   7
BRANCH   2  14
HETATM   14  O   UNK N   1       3.074  -1.533  -0.351  0.00  0.00    -0.360 OA
HETATM   15  H   UNK N   1       3.132  -2.460  -0.474  0.00  0.00     0.217 HD
ENDBRANCH   2  14
BRANCH   4  16
HETATM   16  N   UNK N   1      -1.739  -1.920  -0.013  0.00  0.00    -0.382 N 
BRANCH  16  17
HETATM   17  C   UNK N   1      -3.023  -1.264   0.223  0.00  0.00     0.118 C 
HETATM   18  C   UNK N   1      -4.235  -2.175   0.086  0.00  0.00     0.026 C 
ENDBRANCH  16  17
BRANCH  16  19
HETATM   19  C   UNK N   1      -1.660  -3.330  -0.355  0.00  0.00     0.118 C 
HETATM   20  C   UNK N   1      -2.054  -4.203   0.823  0.00  0.00     0.026 C 
ENDBRANCH  16  19
ENDBRANCH   4  16
TORSDOF 7
