MODEL 1
REMARK VINA RESULT:      -5.7      0.000      0.000
REMARK  7 active torsions:
REMARK  status: ('A' for Active; 'I' for Inactive)
REMARK    1  A    between atoms: C_2  and  C_3 
REMARK    2  A    between atoms: C_2  and  O_18 
REMARK    3  A    between atoms: C_4  and  C_6 
REMARK    4  A    between atoms: C_7  and  O_12 
REMARK    5  A    between atoms: C_9  and  N_13 
REMARK    6  A    between atoms: N_13  and  C_14 
REMARK    7  A    between atoms: N_13  and  C_15 
ROOT
HETATM    1  C   UNK N   1      27.228  19.531   5.300  0.00  0.00    -0.002 A 
HETATM    2  C   UNK N   1      27.135  19.918   6.650  0.00  0.00     0.078 A 
HETATM    3  C   UNK N   1      27.994  19.355   7.602  0.00  0.00     0.066 A 
HETATM    4  C   UNK N   1      28.950  18.393   7.229  0.00  0.00     0.032 A 
HETATM    5  C   UNK N   1      29.018  17.998   5.886  0.00  0.00     0.030 A 
HETATM    6  C   UNK N   1      28.173  18.564   4.935  0.00  0.00     0.016 A 
ENDROOT
BRANCH   1   7
HETATM    7  C   UNK N   1      26.365  20.195   4.286  0.00  0.00     0.027 C 
HETATM    8  C   UNK N   1      25.128  19.833   3.886  0.00  0.00     0.012 C 
HETATM    9  C   UNK N   1      24.395  18.670   4.491  0.00  0.00     0.055 C 
BRANCH   8  10
HETATM   10  C   UNK N   1      24.476  20.583   2.791  0.00  0.00     0.171 C 
HETATM   11  O   UNK N   1      25.008  20.660   1.698  0.00  0.00    -0.646 OA
BRANCH  10  12
HETATM   12  O   UNK N   1      23.302  21.213   3.004  0.00  0.00    -0.773 OA
HETATM   13  H   UNK N   1      23.000  21.422   3.867  0.00  0.00     0.167 HD
ENDBRANCH  10  12
ENDBRANCH   8  10
ENDBRANCH   1   7
BRANCH   2  14
HETATM   14  O   UNK N   1      26.234  20.839   7.036  0.00  0.00    -0.360 OA
HETATM   15  H   UNK N   1      26.118  21.627   6.543  0.00  0.00     0.217 HD
ENDBRANCH   2  14
BRANCH   4  16
HETATM   16  N   UNK N   1      29.855  17.841   8.189  0.00  0.00    -0.382 N 
BRANCH  16  17
HETATM   17  C   UNK N   1      29.617  18.090   9.609  0.00  0.00     0.118 C 
HETATM   18  C   UNK N   1      29.002  16.920  10.364  0.00  0.00     0.026 C 
ENDBRANCH  16  17
BRANCH  16  19
HETATM   19  C   UNK N   1      30.935  16.978   7.742  0.00  0.00     0.118 C 
HETATM   20  C   UNK N   1      32.290  17.575   8.078  0.00  0.00     0.026 C 
ENDBRANCH  16  19
ENDBRANCH   4  16
TORSDOF 7
ENDMDL
MODEL 2
REMARK VINA RESULT:      -5.5     13.122     16.289
REMARK  7 active torsions:
REMARK  status: ('A' for Active; 'I' for Inactive)
REMARK    1  A    between atoms: C_2  and  C_3 
REMARK    2  A    between atoms: C_2  and  O_18 
REMARK    3  A    between atoms: C_4  and  C_6 
REMARK    4  A    between atoms: C_7  and  O_12 
REMARK    5  A    between atoms: C_9  and  N_13 
REMARK    6  A    between atoms: N_13  and  C_14 
REMARK    7  A    between atoms: N_13  and  C_15 
ROOT
HETATM    1  C   UNK N   1      35.092  12.299  17.193  0.00  0.00    -0.002 A 
HETATM    2  C   UNK N   1      35.295  12.985  18.405  0.00  0.00     0.078 A 
HETATM    3  C   UNK N   1      35.386  12.274  19.608  0.00  0.00     0.066 A 
HETATM    4  C   UNK N   1      35.268  10.873  19.626  0.00  0.00     0.032 A 
HETATM    5  C   UNK N   1      35.042  10.200  18.416  0.00  0.00     0.030 A 
HETATM    6  C   UNK N   1      34.962  10.904  17.217  0.00  0.00     0.016 A 
ENDROOT
BRANCH   1   7
HETATM    7  C   UNK N   1      35.077  13.057  15.914  0.00  0.00     0.027 C 
HETATM    8  C   UNK N   1      35.990  13.025  14.920  0.00  0.00     0.012 C 
HETATM    9  C   UNK N   1      37.187  12.120  14.958  0.00  0.00     0.055 C 
BRANCH   8  10
HETATM   10  C   UNK N   1      35.830  13.933  13.764  0.00  0.00     0.171 C 
HETATM   11  O   UNK N   1      34.897  13.787  12.994  0.00  0.00    -0.646 OA
BRANCH  10  12
HETATM   12  O   UNK N   1      36.732  14.910  13.537  0.00  0.00    -0.773 OA
HETATM   13  H   UNK N   1      37.633  14.819  13.778  0.00  0.00     0.167 HD
ENDBRANCH  10  12
ENDBRANCH   8  10
ENDBRANCH   1   7
BRANCH   2  14
HETATM   14  O   UNK N   1      35.416  14.325  18.418  0.00  0.00    -0.360 OA
HETATM   15  H   UNK N   1      35.028  14.845  17.743  0.00  0.00     0.217 HD
ENDBRANCH   2  14
BRANCH   4  16
HETATM   16  N   UNK N   1      35.396  10.137  20.845  0.00  0.00    -0.382 N 
BRANCH  16  17
HETATM   17  C   UNK N   1      36.681  10.144  21.542  0.00  0.00     0.118 C 
HETATM   18  C   UNK N   1      37.851   9.624  20.719  0.00  0.00     0.026 C 
ENDBRANCH  16  17
BRANCH  16  19
HETATM   19  C   UNK N   1      34.233   9.473  21.408  0.00  0.00     0.118 C 
HETATM   20  C   UNK N   1      33.212  10.483  21.903  0.00  0.00     0.026 C 
ENDBRANCH  16  19
ENDBRANCH   4  16
TORSDOF 7
ENDMDL
MODEL 3
REMARK VINA RESULT:      -5.5      4.028      7.796
REMARK  7 active torsions:
REMARK  status: ('A' for Active; 'I' for Inactive)
REMARK    1  A    between atoms: C_2  and  C_3 
REMARK    2  A    between atoms: C_2  and  O_18 
REMARK    3  A    between atoms: C_4  and  C_6 
REMARK    4  A    between atoms: C_7  and  O_12 
REMARK    5  A    between atoms: C_9  and  N_13 
REMARK    6  A    between atoms: N_13  and  C_14 
REMARK    7  A    between atoms: N_13  and  C_15 
ROOT
HETATM    1  C   UNK N   1      31.250  17.191   7.876  0.00  0.00    -0.002 A 
HETATM    2  C   UNK N   1      30.228  17.951   8.475  0.00  0.00     0.078 A 
HETATM    3  C   UNK N   1      29.112  18.342   7.725  0.00  0.00     0.066 A 
HETATM    4  C   UNK N   1      29.000  17.992   6.367  0.00  0.00     0.032 A 
HETATM    5  C   UNK N   1      30.035  17.255   5.774  0.00  0.00     0.030 A 
HETATM    6  C   UNK N   1      31.140  16.855   6.521  0.00  0.00     0.016 A 
ENDROOT
BRANCH   1   7
HETATM    7  C   UNK N   1      32.390  16.713   8.704  0.00  0.00     0.027 C 
HETATM    8  C   UNK N   1      33.633  17.234   8.781  0.00  0.00     0.012 C 
HETATM    9  C   UNK N   1      34.034  18.472   8.034  0.00  0.00     0.055 C 
BRANCH   8  10
HETATM   10  C   UNK N   1      34.653  16.547   9.604  0.00  0.00     0.171 C 
HETATM   11  O   UNK N   1      35.209  15.548   9.184  0.00  0.00    -0.646 OA
BRANCH  10  12
HETATM   12  O   UNK N   1      34.951  17.004  10.838  0.00  0.00    -0.773 OA
HETATM   13  H   UNK N   1      34.297  17.101  11.503  0.00  0.00     0.167 HD
ENDBRANCH  10  12
ENDBRANCH   8  10
ENDBRANCH   1   7
BRANCH   2  14
HETATM   14  O   UNK N   1      30.305  18.296   9.773  0.00  0.00    -0.360 OA
HETATM   15  H   UNK N   1      29.763  18.977  10.118  0.00  0.00     0.217 HD
ENDBRANCH   2  14
BRANCH   4  16
HETATM   16  N   UNK N   1      27.847  18.357   5.604  0.00  0.00    -0.382 N 
BRANCH  16  17
HETATM   17  C   UNK N   1      27.838  19.642   4.909  0.00  0.00     0.118 C 
HETATM   18  C   UNK N   1      27.218  20.786   5.698  0.00  0.00     0.026 C 
ENDBRANCH  16  17
BRANCH  16  19
HETATM   19  C   UNK N   1      26.752  17.412   5.465  0.00  0.00     0.118 C 
HETATM   20  C   UNK N   1      26.119  17.505   4.088  0.00  0.00     0.026 C 
ENDBRANCH  16  19
ENDBRANCH   4  16
TORSDOF 7
ENDMDL
MODEL 4
REMARK VINA RESULT:      -5.4      5.094      8.911
REMARK  7 active torsions:
REMARK  status: ('A' for Active; 'I' for Inactive)
REMARK    1  A    between atoms: C_2  and  C_3 
REMARK    2  A    between atoms: C_2  and  O_18 
REMARK    3  A    between atoms: C_4  and  C_6 
REMARK    4  A    between atoms: C_7  and  O_12 
REMARK    5  A    between atoms: C_9  and  N_13 
REMARK    6  A    between atoms: N_13  and  C_14 
REMARK    7  A    between atoms: N_13  and  C_15 
ROOT
HETATM    1  C   UNK N   1      32.932  16.923   7.905  0.00  0.00    -0.002 A 
HETATM    2  C   UNK N   1      33.275  17.420   6.634  0.00  0.00     0.078 A 
HETATM    3  C   UNK N   1      32.347  17.372   5.586  0.00  0.00     0.066 A 
HETATM    4  C   UNK N   1      31.068  16.820   5.783  0.00  0.00     0.032 A 
HETATM    5  C   UNK N   1      30.744  16.306   7.047  0.00  0.00     0.030 A 
HETATM    6  C   UNK N   1      31.662  16.363   8.093  0.00  0.00     0.016 A 
ENDROOT
BRANCH   1   7
HETATM    7  C   UNK N   1      33.897  17.053   9.029  0.00  0.00     0.027 C 
HETATM    8  C   UNK N   1      34.879  16.196   9.382  0.00  0.00     0.012 C 
HETATM    9  C   UNK N   1      35.174  14.948   8.603  0.00  0.00     0.055 C 
BRANCH   8  10
HETATM   10  C   UNK N   1      35.675  16.473  10.597  0.00  0.00     0.171 C 
HETATM   11  O   UNK N   1      35.203  17.139  11.502  0.00  0.00    -0.646 OA
BRANCH  10  12
HETATM   12  O   UNK N   1      36.940  16.017  10.699  0.00  0.00    -0.773 OA
HETATM   13  H   UNK N   1      37.270  15.338  10.143  0.00  0.00     0.167 HD
ENDBRANCH  10  12
ENDBRANCH   8  10
ENDBRANCH   1   7
BRANCH   2  14
HETATM   14  O   UNK N   1      34.489  17.958   6.416  0.00  0.00    -0.360 OA
HETATM   15  H   UNK N   1      35.210  17.418   6.159  0.00  0.00     0.217 HD
ENDBRANCH   2  14
BRANCH   4  16
HETATM   16  N   UNK N   1      30.102  16.800   4.729  0.00  0.00    -0.382 N 
BRANCH  16  17
HETATM   17  C   UNK N   1      28.739  17.244   5.012  0.00  0.00     0.118 C 
HETATM   18  C   UNK N   1      28.541  18.752   4.963  0.00  0.00     0.026 C 
ENDBRANCH  16  17
BRANCH  16  19
HETATM   19  C   UNK N   1      30.513  16.425   3.387  0.00  0.00     0.118 C 
HETATM   20  C   UNK N   1      29.342  15.886   2.585  0.00  0.00     0.026 C 
ENDBRANCH  16  19
ENDBRANCH   4  16
TORSDOF 7
ENDMDL
MODEL 5
REMARK VINA RESULT:      -5.4      8.233     10.635
REMARK  7 active torsions:
REMARK  status: ('A' for Active; 'I' for Inactive)
REMARK    1  A    between atoms: C_2  and  C_3 
REMARK    2  A    between atoms: C_2  and  O_18 
REMARK    3  A    between atoms: C_4  and  C_6 
REMARK    4  A    between atoms: C_7  and  O_12 
REMARK    5  A    between atoms: C_9  and  N_13 
REMARK    6  A    between atoms: N_13  and  C_14 
REMARK    7  A    between atoms: N_13  and  C_15 
ROOT
HETATM    1  C   UNK N   1      35.529  15.301  10.496  0.00  0.00    -0.002 A 
HETATM    2  C   UNK N   1      34.550  14.573  11.198  0.00  0.00     0.078 A 
HETATM    3  C   UNK N   1      34.904  13.412  11.896  0.00  0.00     0.066 A 
HETATM    4  C   UNK N   1      36.234  12.953  11.900  0.00  0.00     0.032 A 
HETATM    5  C   UNK N   1      37.197  13.673  11.179  0.00  0.00     0.030 A 
HETATM    6  C   UNK N   1      36.850  14.834  10.493  0.00  0.00     0.016 A 
ENDROOT
BRANCH   1   7
HETATM    7  C   UNK N   1      35.156  16.575   9.825  0.00  0.00     0.027 C 
HETATM    8  C   UNK N   1      34.770  16.755   8.545  0.00  0.00     0.012 C 
HETATM    9  C   UNK N   1      34.607  15.612   7.586  0.00  0.00     0.055 C 
BRANCH   8  10
HETATM   10  C   UNK N   1      34.528  18.128   8.051  0.00  0.00     0.171 C 
HETATM   11  O   UNK N   1      33.694  18.332   7.186  0.00  0.00    -0.646 OA
BRANCH  10  12
HETATM   12  O   UNK N   1      35.252  19.161   8.532  0.00  0.00    -0.773 OA
HETATM   13  H   UNK N   1      34.983  19.645   9.288  0.00  0.00     0.167 HD
ENDBRANCH  10  12
ENDBRANCH   8  10
ENDBRANCH   1   7
BRANCH   2  14
HETATM   14  O   UNK N   1      33.272  14.991  11.216  0.00  0.00    -0.360 OA
HETATM   15  H   UNK N   1      32.573  14.392  11.040  0.00  0.00     0.217 HD
ENDBRANCH   2  14
BRANCH   4  16
HETATM   16  N   UNK N   1      36.610  11.789  12.641  0.00  0.00    -0.382 N 
BRANCH  16  17
HETATM   17  C   UNK N   1      36.322  11.740  14.073  0.00  0.00     0.118 C 
HETATM   18  C   UNK N   1      36.933  12.875  14.882  0.00  0.00     0.026 C 
ENDBRANCH  16  17
BRANCH  16  19
HETATM   19  C   UNK N   1      37.188  10.652  11.945  0.00  0.00     0.118 C 
HETATM   20  C   UNK N   1      36.167   9.986  11.040  0.00  0.00     0.026 C 
ENDBRANCH  16  19
ENDBRANCH   4  16
TORSDOF 7
ENDMDL
MODEL 6
REMARK VINA RESULT:      -5.3     11.871     14.997
REMARK  7 active torsions:
REMARK  status: ('A' for Active; 'I' for Inactive)
REMARK    1  A    between atoms: C_2  and  C_3 
REMARK    2  A    between atoms: C_2  and  O_18 
REMARK    3  A    between atoms: C_4  and  C_6 
REMARK    4  A    between atoms: C_7  and  O_12 
REMARK    5  A    between atoms: C_9  and  N_13 
REMARK    6  A    between atoms: N_13  and  C_14 
REMARK    7  A    between atoms: N_13  and  C_15 
ROOT
HETATM    1  C   UNK N   1      35.431  13.134  15.906  0.00  0.00    -0.002 A 
HETATM    2  C   UNK N   1      36.441  13.889  15.280  0.00  0.00     0.078 A 
HETATM    3  C   UNK N   1      36.557  13.886  13.884  0.00  0.00     0.066 A 
HETATM    4  C   UNK N   1      35.678  13.126  13.091  0.00  0.00     0.032 A 
HETATM    5  C   UNK N   1      34.690  12.360  13.726  0.00  0.00     0.030 A 
HETATM    6  C   UNK N   1      34.566  12.369  15.113  0.00  0.00     0.016 A 
ENDROOT
BRANCH   1   7
HETATM    7  C   UNK N   1      35.268  13.208  17.382  0.00  0.00     0.027 C 
HETATM    8  C   UNK N   1      35.413  12.214  18.283  0.00  0.00     0.012 C 
HETATM    9  C   UNK N   1      35.835  10.828  17.890  0.00  0.00     0.055 C 
BRANCH   8  10
HETATM   10  C   UNK N   1      35.115  12.482  19.707  0.00  0.00     0.171 C 
HETATM   11  O   UNK N   1      34.796  13.601  20.067  0.00  0.00    -0.646 OA
BRANCH  10  12
HETATM   12  O   UNK N   1      35.223  11.496  20.622  0.00  0.00    -0.773 OA
HETATM   13  H   UNK N   1      35.264  10.592  20.375  0.00  0.00     0.167 HD
ENDBRANCH  10  12
ENDBRANCH   8  10
ENDBRANCH   1   7
BRANCH   2  14
HETATM   14  O   UNK N   1      37.293  14.629  16.012  0.00  0.00    -0.360 OA
HETATM   15  H   UNK N   1      38.202  14.405  16.055  0.00  0.00     0.217 HD
ENDBRANCH   2  14
BRANCH   4  16
HETATM   16  N   UNK N   1      35.767  13.147  11.664  0.00  0.00    -0.382 N 
BRANCH  16  17
HETATM   17  C   UNK N   1      35.017  14.160  10.925  0.00  0.00     0.118 C 
HETATM   18  C   UNK N   1      35.716  15.508  10.811  0.00  0.00     0.026 C 
ENDBRANCH  16  17
BRANCH  16  19
HETATM   19  C   UNK N   1      36.661  12.223  10.988  0.00  0.00     0.118 C 
HETATM   20  C   UNK N   1      38.072  12.779  10.917  0.00  0.00     0.026 C 
ENDBRANCH  16  19
ENDBRANCH   4  16
TORSDOF 7
ENDMDL
MODEL 7
REMARK VINA RESULT:      -5.2      6.630     10.612
REMARK  7 active torsions:
REMARK  status: ('A' for Active; 'I' for Inactive)
REMARK    1  A    between atoms: C_2  and  C_3 
REMARK    2  A    between atoms: C_2  and  O_18 
REMARK    3  A    between atoms: C_4  and  C_6 
REMARK    4  A    between atoms: C_7  and  O_12 
REMARK    5  A    between atoms: C_9  and  N_13 
REMARK    6  A    between atoms: N_13  and  C_14 
REMARK    7  A    between atoms: N_13  and  C_15 
ROOT
HETATM    1  C   UNK N   1      34.152  15.434  10.118  0.00  0.00    -0.002 A 
HETATM    2  C   UNK N   1      34.577  16.670   9.594  0.00  0.00     0.078 A 
HETATM    3  C   UNK N   1      34.034  17.150   8.396  0.00  0.00     0.066 A 
HETATM    4  C   UNK N   1      33.068  16.405   7.696  0.00  0.00     0.032 A 
HETATM    5  C   UNK N   1      32.668  15.165   8.213  0.00  0.00     0.030 A 
HETATM    6  C   UNK N   1      33.199  14.691   9.410  0.00  0.00     0.016 A 
ENDROOT
BRANCH   1   7
HETATM    7  C   UNK N   1      34.678  14.974  11.431  0.00  0.00     0.027 C 
HETATM    8  C   UNK N   1      35.570  13.989  11.667  0.00  0.00     0.012 C 
HETATM    9  C   UNK N   1      36.229  13.219  10.560  0.00  0.00     0.055 C 
BRANCH   8  10
HETATM   10  C   UNK N   1      35.892  13.628  13.065  0.00  0.00     0.171 C 
HETATM   11  O   UNK N   1      35.015  13.603  13.910  0.00  0.00    -0.646 OA
BRANCH  10  12
HETATM   12  O   UNK N   1      37.164  13.354  13.420  0.00  0.00    -0.773 OA
HETATM   13  H   UNK N   1      37.849  13.266  12.786  0.00  0.00     0.167 HD
ENDBRANCH  10  12
ENDBRANCH   8  10
ENDBRANCH   1   7
BRANCH   2  14
HETATM   14  O   UNK N   1      35.496  17.406  10.245  0.00  0.00    -0.360 OA
HETATM   15  H   UNK N   1      35.966  17.048  10.972  0.00  0.00     0.217 HD
ENDBRANCH   2  14
BRANCH   4  16
HETATM   16  N   UNK N   1      32.482  16.905   6.491  0.00  0.00    -0.382 N 
BRANCH  16  17
HETATM   17  C   UNK N   1      33.353  17.472   5.465  0.00  0.00     0.118 C 
HETATM   18  C   UNK N   1      32.739  17.528   4.072  0.00  0.00     0.026 C 
ENDBRANCH  16  17
BRANCH  16  19
HETATM   19  C   UNK N   1      31.052  16.761   6.276  0.00  0.00     0.118 C 
HETATM   20  C   UNK N   1      30.260  17.491   7.347  0.00  0.00     0.026 C 
ENDBRANCH  16  19
ENDBRANCH   4  16
TORSDOF 7
ENDMDL
MODEL 8
REMARK VINA RESULT:      -5.2      4.332      8.061
REMARK  7 active torsions:
REMARK  status: ('A' for Active; 'I' for Inactive)
REMARK    1  A    between atoms: C_2  and  C_3 
REMARK    2  A    between atoms: C_2  and  O_18 
REMARK    3  A    between atoms: C_4  and  C_6 
REMARK    4  A    between atoms: C_7  and  O_12 
REMARK    5  A    between atoms: C_9  and  N_13 
REMARK    6  A    between atoms: N_13  and  C_14 
REMARK    7  A    between atoms: N_13  and  C_15 
ROOT
HETATM    1  C   UNK N   1      31.334  16.956   7.824  0.00  0.00    -0.002 A 
HETATM    2  C   UNK N   1      31.319  16.616   6.458  0.00  0.00     0.078 A 
HETATM    3  C   UNK N   1      30.266  17.043   5.639  0.00  0.00     0.066 A 
HETATM    4  C   UNK N   1      29.208  17.805   6.167  0.00  0.00     0.032 A 
HETATM    5  C   UNK N   1      29.221  18.119   7.534  0.00  0.00     0.030 A 
HETATM    6  C   UNK N   1      30.272  17.705   8.347  0.00  0.00     0.016 A 
ENDROOT
BRANCH   1   7
HETATM    7  C   UNK N   1      32.497  16.566   8.664  0.00  0.00     0.027 C 
HETATM    8  C   UNK N   1      33.683  17.199   8.784  0.00  0.00     0.012 C 
HETATM    9  C   UNK N   1      33.979  18.491   8.079  0.00  0.00     0.055 C 
BRANCH   8  10
HETATM   10  C   UNK N   1      34.746  16.589   9.611  0.00  0.00     0.171 C 
HETATM   11  O   UNK N   1      34.847  15.377   9.686  0.00  0.00    -0.646 OA
BRANCH  10  12
HETATM   12  O   UNK N   1      35.593  17.370  10.314  0.00  0.00    -0.773 OA
HETATM   13  H   UNK N   1      36.344  17.768   9.920  0.00  0.00     0.167 HD
ENDBRANCH  10  12
ENDBRANCH   8  10
ENDBRANCH   1   7
BRANCH   2  14
HETATM   14  O   UNK N   1      32.320  15.893   5.924  0.00  0.00    -0.360 OA
HETATM   15  H   UNK N   1      32.485  15.019   6.219  0.00  0.00     0.217 HD
ENDBRANCH   2  14
BRANCH   4  16
HETATM   16  N   UNK N   1      28.148  18.275   5.330  0.00  0.00    -0.382 N 
BRANCH  16  17
HETATM   17  C   UNK N   1      28.004  17.712   3.990  0.00  0.00     0.118 C 
HETATM   18  C   UNK N   1      26.606  17.207   3.661  0.00  0.00     0.026 C 
ENDBRANCH  16  17
BRANCH  16  19
HETATM   19  C   UNK N   1      27.191  19.233   5.857  0.00  0.00     0.118 C 
HETATM   20  C   UNK N   1      27.514  20.642   5.395  0.00  0.00     0.026 C 
ENDBRANCH  16  19
ENDBRANCH   4  16
TORSDOF 7
ENDMDL
MODEL 9
REMARK VINA RESULT:      -5.0     13.196     14.403
REMARK  7 active torsions:
REMARK  status: ('A' for Active; 'I' for Inactive)
REMARK    1  A    between atoms: C_2  and  C_3 
REMARK    2  A    between atoms: C_2  and  O_18 
REMARK    3  A    between atoms: C_4  and  C_6 
REMARK    4  A    between atoms: C_7  and  O_12 
REMARK    5  A    between atoms: C_9  and  N_13 
REMARK    6  A    between atoms: N_13  and  C_14 
REMARK    7  A    between atoms: N_13  and  C_15 
ROOT
HETATM    1  C   UNK N   1      26.092  24.835  -5.595  0.00  0.00    -0.002 A 
HETATM    2  C   UNK N   1      27.418  24.989  -5.151  0.00  0.00     0.078 A 
HETATM    3  C   UNK N   1      27.883  26.249  -4.753  0.00  0.00     0.066 A 
HETATM    4  C   UNK N   1      27.041  27.374  -4.799  0.00  0.00     0.032 A 
HETATM    5  C   UNK N   1      25.728  27.214  -5.265  0.00  0.00     0.030 A 
HETATM    6  C   UNK N   1      25.260  25.960  -5.651  0.00  0.00     0.016 A 
ENDROOT
BRANCH   1   7
HETATM    7  C   UNK N   1      25.586  23.479  -5.939  0.00  0.00     0.027 C 
HETATM    8  C   UNK N   1      25.518  22.904  -7.159  0.00  0.00     0.012 C 
HETATM    9  C   UNK N   1      26.026  23.584  -8.397  0.00  0.00     0.055 C 
BRANCH   8  10
HETATM   10  C   UNK N   1      24.893  21.571  -7.294  0.00  0.00     0.171 C 
HETATM   11  O   UNK N   1      25.426  20.708  -7.969  0.00  0.00    -0.646 OA
BRANCH  10  12
HETATM   12  O   UNK N   1      23.713  21.309  -6.694  0.00  0.00    -0.773 OA
HETATM   13  H   UNK N   1      23.065  21.974  -6.563  0.00  0.00     0.167 HD
ENDBRANCH  10  12
ENDBRANCH   8  10
ENDBRANCH   1   7
BRANCH   2  14
HETATM   14  O   UNK N   1      28.246  23.930  -5.092  0.00  0.00    -0.360 OA
HETATM   15  H   UNK N   1      27.992  23.153  -4.634  0.00  0.00     0.217 HD
ENDBRANCH   2  14
BRANCH   4  16
HETATM   16  N   UNK N   1      27.497  28.656  -4.359  0.00  0.00    -0.382 N 
BRANCH  16  17
HETATM   17  C   UNK N   1      28.615  29.285  -5.059  0.00  0.00     0.118 C 
HETATM   18  C   UNK N   1      28.391  29.497  -6.550  0.00  0.00     0.026 C 
ENDBRANCH  16  17
BRANCH  16  19
HETATM   19  C   UNK N   1      26.790  29.340  -3.290  0.00  0.00     0.118 C 
HETATM   20  C   UNK N   1      26.408  30.751  -3.700  0.00  0.00     0.026 C 
ENDBRANCH  16  19
ENDBRANCH   4  16
TORSDOF 7
ENDMDL
