REMARK  0 active torsions:
REMARK  status: ('A' for Active; 'I' for Inactive)
ROOT
HETATM    1  C   UNK N   1      -1.735  -0.679  -0.000  0.00  0.00    -0.001 A 
HETATM    2  C   UNK N   1      -3.024  -1.445  -0.000  0.00  0.00     0.053 C 
HETATM    3  C   UNK N   1      -0.455  -1.433  -0.000  0.00  0.00     0.189 A 
HETATM    4  O   UNK N   1      -0.464  -2.657  -0.000  0.00  0.00    -0.287 OA
HETATM    5  C   UNK N   1       0.829  -0.704  -0.000  0.00  0.00     0.029 A 
HETATM    6  C   UNK N   1       0.829   0.703   0.000  0.00  0.00     0.029 A 
HETATM    7  C   UNK N   1      -0.455   1.432   0.000  0.00  0.00     0.189 A 
HETATM    8  O   UNK N   1      -0.464   2.656   0.000  0.00  0.00    -0.287 OA
HETATM    9  C   UNK N   1      -1.735   0.678   0.000  0.00  0.00    -0.001 A 
HETATM   10  C   UNK N   1       2.044  -1.399  -0.000  0.00  0.00     0.016 A 
HETATM   11  C   UNK N   1       3.252  -0.699  -0.000  0.00  0.00     0.001 A 
HETATM   12  C   UNK N   1       3.252   0.698   0.000  0.00  0.00     0.001 A 
HETATM   13  C   UNK N   1       2.044   1.398   0.000  0.00  0.00     0.016 A 
HETATM   14  C   UNK N   1      -3.024   1.444   0.000  0.00  0.00     0.053 C 
ENDROOT
TORSDOF 0
