MODEL 1
REMARK VINA RESULT:      -6.1      0.000      0.000
REMARK  0 active torsions:
REMARK  status: ('A' for Active; 'I' for Inactive)
ROOT
HETATM    1  C   UNK N   1      21.561  12.424  10.929  0.00  0.00    -0.001 A 
HETATM    2  C   UNK N   1      20.298  12.113  11.675  0.00  0.00     0.053 C 
HETATM    3  C   UNK N   1      21.461  13.001   9.564  0.00  0.00     0.189 A 
HETATM    4  O   UNK N   1      20.364  13.215   9.067  0.00  0.00    -0.287 OA
HETATM    5  C   UNK N   1      22.689  13.316   8.806  0.00  0.00     0.029 A 
HETATM    6  C   UNK N   1      23.946  13.067   9.386  0.00  0.00     0.029 A 
HETATM    7  C   UNK N   1      24.022  12.492  10.745  0.00  0.00     0.189 A 
HETATM    8  O   UNK N   1      25.112  12.272  11.256  0.00  0.00    -0.287 OA
HETATM    9  C   UNK N   1      22.774  12.183  11.488  0.00  0.00    -0.001 A 
HETATM   10  C   UNK N   1      22.613  13.860   7.519  0.00  0.00     0.016 A 
HETATM   11  C   UNK N   1      23.781  14.155   6.812  0.00  0.00     0.001 A 
HETATM   12  C   UNK N   1      25.029  13.907   7.388  0.00  0.00     0.001 A 
HETATM   13  C   UNK N   1      25.113  13.364   8.672  0.00  0.00     0.016 A 
HETATM   14  C   UNK N   1      22.880  11.600  12.866  0.00  0.00     0.053 C 
ENDROOT
TORSDOF 0
ENDMDL
MODEL 2
REMARK VINA RESULT:      -6.0      0.022      2.888
REMARK  0 active torsions:
REMARK  status: ('A' for Active; 'I' for Inactive)
ROOT
HETATM    1  C   UNK N   1      22.779  12.190  11.470  0.00  0.00    -0.001 A 
HETATM    2  C   UNK N   1      22.886  11.612  12.850  0.00  0.00     0.053 C 
HETATM    3  C   UNK N   1      24.027  12.499  10.725  0.00  0.00     0.189 A 
HETATM    4  O   UNK N   1      25.117  12.282  11.238  0.00  0.00    -0.287 OA
HETATM    5  C   UNK N   1      23.950  13.069   9.365  0.00  0.00     0.029 A 
HETATM    6  C   UNK N   1      22.692  13.315   8.785  0.00  0.00     0.029 A 
HETATM    7  C   UNK N   1      21.465  13.000   9.544  0.00  0.00     0.189 A 
HETATM    8  O   UNK N   1      20.367  13.211   9.046  0.00  0.00    -0.287 OA
HETATM    9  C   UNK N   1      21.566  12.427  10.911  0.00  0.00    -0.001 A 
HETATM   10  C   UNK N   1      25.116  13.366   8.650  0.00  0.00     0.016 A 
HETATM   11  C   UNK N   1      25.031  13.904   7.364  0.00  0.00     0.001 A 
HETATM   12  C   UNK N   1      23.782  14.149   6.788  0.00  0.00     0.001 A 
HETATM   13  C   UNK N   1      22.615  13.855   7.496  0.00  0.00     0.016 A 
HETATM   14  C   UNK N   1      20.304  12.117  11.658  0.00  0.00     0.053 C 
ENDROOT
TORSDOF 0
ENDMDL
MODEL 3
REMARK VINA RESULT:      -5.8     20.356     22.240
REMARK  0 active torsions:
REMARK  status: ('A' for Active; 'I' for Inactive)
ROOT
HETATM    1  C   UNK N   1      27.688  29.805  -5.376  0.00  0.00    -0.001 A 
HETATM    2  C   UNK N   1      28.505  31.062  -5.419  0.00  0.00     0.053 C 
HETATM    3  C   UNK N   1      27.765  28.862  -6.521  0.00  0.00     0.189 A 
HETATM    4  O   UNK N   1      28.485  29.116  -7.478  0.00  0.00    -0.287 OA
HETATM    5  C   UNK N   1      26.971  27.618  -6.505  0.00  0.00     0.029 A 
HETATM    6  C   UNK N   1      26.145  27.335  -5.401  0.00  0.00     0.029 A 
HETATM    7  C   UNK N   1      26.084  28.286  -4.274  0.00  0.00     0.189 A 
HETATM    8  O   UNK N   1      25.369  28.048  -3.310  0.00  0.00    -0.287 OA
HETATM    9  C   UNK N   1      26.892  29.532  -4.311  0.00  0.00    -0.001 A 
HETATM   10  C   UNK N   1      27.032  26.718  -7.576  0.00  0.00     0.016 A 
HETATM   11  C   UNK N   1      26.276  25.544  -7.549  0.00  0.00     0.001 A 
HETATM   12  C   UNK N   1      25.457  25.263  -6.453  0.00  0.00     0.001 A 
HETATM   13  C   UNK N   1      25.391  26.156  -5.382  0.00  0.00     0.016 A 
HETATM   14  C   UNK N   1      26.810  30.481  -3.153  0.00  0.00     0.053 C 
ENDROOT
TORSDOF 0
ENDMDL
MODEL 4
REMARK VINA RESULT:      -5.8      1.915      4.821
REMARK  0 active torsions:
REMARK  status: ('A' for Active; 'I' for Inactive)
ROOT
HETATM    1  C   UNK N   1      22.008  15.004   7.514  0.00  0.00    -0.001 A 
HETATM    2  C   UNK N   1      22.391  15.795   6.299  0.00  0.00     0.053 C 
HETATM    3  C   UNK N   1      23.020  14.112   8.134  0.00  0.00     0.189 A 
HETATM    4  O   UNK N   1      24.143  14.031   7.654  0.00  0.00    -0.287 OA
HETATM    5  C   UNK N   1      22.670  13.321   9.331  0.00  0.00     0.029 A 
HETATM    6  C   UNK N   1      21.377  13.421   9.876  0.00  0.00     0.029 A 
HETATM    7  C   UNK N   1      20.386  14.315   9.243  0.00  0.00     0.189 A 
HETATM    8  O   UNK N   1      19.259  14.407   9.710  0.00  0.00    -0.287 OA
HETATM    9  C   UNK N   1      20.760  15.101   8.039  0.00  0.00    -0.001 A 
HETATM   10  C   UNK N   1      23.612  12.475   9.928  0.00  0.00     0.016 A 
HETATM   11  C   UNK N   1      23.270  11.733  11.060  0.00  0.00     0.001 A 
HETATM   12  C   UNK N   1      21.986  11.832  11.600  0.00  0.00     0.001 A 
HETATM   13  C   UNK N   1      21.041  12.674  11.011  0.00  0.00     0.016 A 
HETATM   14  C   UNK N   1      19.735  16.000   7.417  0.00  0.00     0.053 C 
ENDROOT
TORSDOF 0
ENDMDL
MODEL 5
REMARK VINA RESULT:      -5.8      2.026      4.267
REMARK  0 active torsions:
REMARK  status: ('A' for Active; 'I' for Inactive)
ROOT
HETATM    1  C   UNK N   1      20.618  15.302   8.041  0.00  0.00    -0.001 A 
HETATM    2  C   UNK N   1      19.581  16.243   7.506  0.00  0.00     0.053 C 
HETATM    3  C   UNK N   1      20.278  14.452   9.211  0.00  0.00     0.189 A 
HETATM    4  O   UNK N   1      19.168  14.528   9.721  0.00  0.00    -0.287 OA
HETATM    5  C   UNK N   1      21.280  13.517   9.758  0.00  0.00     0.029 A 
HETATM    6  C   UNK N   1      22.553  13.437   9.164  0.00  0.00     0.029 A 
HETATM    7  C   UNK N   1      22.870  14.291   8.002  0.00  0.00     0.189 A 
HETATM    8  O   UNK N   1      23.975  14.228   7.480  0.00  0.00    -0.287 OA
HETATM    9  C   UNK N   1      21.846  15.225   7.468  0.00  0.00    -0.001 A 
HETATM   10  C   UNK N   1      20.976  12.709  10.860  0.00  0.00     0.016 A 
HETATM   11  C   UNK N   1      21.931  11.828  11.369  0.00  0.00     0.001 A 
HETATM   12  C   UNK N   1      23.196  11.749  10.779  0.00  0.00     0.001 A 
HETATM   13  C   UNK N   1      23.507  12.551   9.680  0.00  0.00     0.016 A 
HETATM   14  C   UNK N   1      22.195  16.080   6.287  0.00  0.00     0.053 C 
ENDROOT
TORSDOF 0
ENDMDL
MODEL 6
REMARK VINA RESULT:      -5.7     12.674     14.629
REMARK  0 active torsions:
REMARK  status: ('A' for Active; 'I' for Inactive)
ROOT
HETATM    1  C   UNK N   1      35.293   9.838  15.016  0.00  0.00    -0.001 A 
HETATM    2  C   UNK N   1      35.420   8.567  14.229  0.00  0.00     0.053 C 
HETATM    3  C   UNK N   1      35.484   9.790  16.488  0.00  0.00     0.189 A 
HETATM    4  O   UNK N   1      35.741   8.727  17.039  0.00  0.00    -0.287 OA
HETATM    5  C   UNK N   1      35.365  11.026  17.287  0.00  0.00     0.029 A 
HETATM    6  C   UNK N   1      35.070  12.242  16.644  0.00  0.00     0.029 A 
HETATM    7  C   UNK N   1      34.884  12.267  15.180  0.00  0.00     0.189 A 
HETATM    8  O   UNK N   1      34.628  13.321  14.613  0.00  0.00    -0.287 OA
HETATM    9  C   UNK N   1      35.009  11.011  14.396  0.00  0.00    -0.001 A 
HETATM   10  C   UNK N   1      35.542  10.998  18.675  0.00  0.00     0.016 A 
HETATM   11  C   UNK N   1      35.427  12.173  19.420  0.00  0.00     0.001 A 
HETATM   12  C   UNK N   1      35.135  13.381  18.782  0.00  0.00     0.001 A 
HETATM   13  C   UNK N   1      34.956  13.416  17.398  0.00  0.00     0.016 A 
HETATM   14  C   UNK N   1      34.815  11.065  12.910  0.00  0.00     0.053 C 
ENDROOT
TORSDOF 0
ENDMDL
MODEL 7
REMARK VINA RESULT:      -5.7     12.728     14.453
REMARK  0 active torsions:
REMARK  status: ('A' for Active; 'I' for Inactive)
ROOT
HETATM    1  C   UNK N   1      35.077  11.087  14.270  0.00  0.00    -0.001 A 
HETATM    2  C   UNK N   1      34.921  11.175  12.781  0.00  0.00     0.053 C 
HETATM    3  C   UNK N   1      34.958  12.329  15.076  0.00  0.00     0.189 A 
HETATM    4  O   UNK N   1      34.737  13.399  14.524  0.00  0.00    -0.287 OA
HETATM    5  C   UNK N   1      35.108  12.272  16.544  0.00  0.00     0.029 A 
HETATM    6  C   UNK N   1      35.362  11.037  17.168  0.00  0.00     0.029 A 
HETATM    7  C   UNK N   1      35.476   9.815  16.348  0.00  0.00     0.189 A 
HETATM    8  O   UNK N   1      35.697   8.737  16.883  0.00  0.00    -0.287 OA
HETATM    9  C   UNK N   1      35.322   9.896  14.872  0.00  0.00    -0.001 A 
HETATM   10  C   UNK N   1      34.999  13.433  17.318  0.00  0.00     0.016 A 
HETATM   11  C   UNK N   1      35.142  13.367  18.705  0.00  0.00     0.001 A 
HETATM   12  C   UNK N   1      35.394  12.141  19.325  0.00  0.00     0.001 A 
HETATM   13  C   UNK N   1      35.504  10.978  18.560  0.00  0.00     0.016 A 
HETATM   14  C   UNK N   1      35.443   8.639  14.064  0.00  0.00     0.053 C 
ENDROOT
TORSDOF 0
ENDMDL
MODEL 8
REMARK VINA RESULT:      -5.7      1.887      2.502
REMARK  0 active torsions:
REMARK  status: ('A' for Active; 'I' for Inactive)
ROOT
HETATM    1  C   UNK N   1      21.083  13.007  10.225  0.00  0.00    -0.001 A 
HETATM    2  C   UNK N   1      20.386  12.312  11.356  0.00  0.00     0.053 C 
HETATM    3  C   UNK N   1      20.369  14.090   9.502  0.00  0.00     0.189 A 
HETATM    4  O   UNK N   1      19.232  14.402   9.832  0.00  0.00    -0.287 OA
HETATM    5  C   UNK N   1      21.032  14.791   8.385  0.00  0.00     0.029 A 
HETATM    6  C   UNK N   1      22.339  14.426   8.013  0.00  0.00     0.029 A 
HETATM    7  C   UNK N   1      23.030  13.346   8.746  0.00  0.00     0.189 A 
HETATM    8  O   UNK N   1      24.167  13.022   8.429  0.00  0.00    -0.287 OA
HETATM    9  C   UNK N   1      22.344  12.654   9.867  0.00  0.00    -0.001 A 
HETATM   10  C   UNK N   1      20.373  15.814   7.693  0.00  0.00     0.016 A 
HETATM   11  C   UNK N   1      21.010  16.470   6.638  0.00  0.00     0.001 A 
HETATM   12  C   UNK N   1      22.308  16.108   6.269  0.00  0.00     0.001 A 
HETATM   13  C   UNK N   1      22.971  15.088   6.955  0.00  0.00     0.016 A 
HETATM   14  C   UNK N   1      23.069  11.562  10.594  0.00  0.00     0.053 C 
ENDROOT
TORSDOF 0
ENDMDL
MODEL 9
REMARK VINA RESULT:      -5.7      1.976      3.615
REMARK  0 active torsions:
REMARK  status: ('A' for Active; 'I' for Inactive)
ROOT
HETATM    1  C   UNK N   1      22.293  12.689   9.787  0.00  0.00    -0.001 A 
HETATM    2  C   UNK N   1      23.024  11.570  10.467  0.00  0.00     0.053 C 
HETATM    3  C   UNK N   1      22.960  13.404   8.668  0.00  0.00     0.189 A 
HETATM    4  O   UNK N   1      24.085  13.077   8.316  0.00  0.00    -0.287 OA
HETATM    5  C   UNK N   1      22.263  14.510   7.981  0.00  0.00     0.029 A 
HETATM    6  C   UNK N   1      20.969  14.878   8.394  0.00  0.00     0.029 A 
HETATM    7  C   UNK N   1      20.325  14.153   9.508  0.00  0.00     0.189 A 
HETATM    8  O   UNK N   1      19.199  14.467   9.873  0.00  0.00    -0.287 OA
HETATM    9  C   UNK N   1      21.045  13.044  10.185  0.00  0.00    -0.001 A 
HETATM   10  C   UNK N   1      22.876  15.193   6.926  0.00  0.00     0.016 A 
HETATM   11  C   UNK N   1      22.208  16.237   6.284  0.00  0.00     0.001 A 
HETATM   12  C   UNK N   1      20.923  16.603   6.693  0.00  0.00     0.001 A 
HETATM   13  C   UNK N   1      20.304  15.925   7.745  0.00  0.00     0.016 A 
HETATM   14  C   UNK N   1      20.367  12.326  11.313  0.00  0.00     0.053 C 
ENDROOT
TORSDOF 0
ENDMDL
