MODEL 1
REMARK VINA RESULT:      -6.2      0.000      0.000
REMARK  4 active torsions:
REMARK  status: ('A' for Active; 'I' for Inactive)
REMARK    1  A    between atoms: C_5  and  S_8 
REMARK    2  A    between atoms: S_8  and  N_11 
REMARK    3  A    between atoms: N_11  and  C_13 
REMARK    4  A    between atoms: N_18  and  C_19 
ROOT
HETATM    1  C   UNK N   1      29.317  17.592   7.892  0.00  0.00     0.140 A 
HETATM    2  C   UNK N   1      28.604  18.287   8.848  0.00  0.00     0.070 A 
HETATM    3  C   UNK N   1      29.543  18.651   9.795  0.00  0.00     0.111 A 
HETATM    4  N   UNK N   1      30.749  18.181   9.421  0.00  0.00    -0.303 N 
ATOM      5  HN  UNK N   1      31.618  18.312   9.938  1.00  0.00     0.186 HD
HETATM    6  N   UNK N   1      30.630  17.525   8.278  0.00  0.00    -0.240 N 
ENDROOT
BRANCH   1   7
HETATM    7  N   UNK N   1      28.726  17.107   6.679  0.00  0.00    -0.260 N 
HETATM    8  C   UNK N   1      27.434  16.466   6.683  0.00  0.00     0.171 C 
BRANCH   7   9
HETATM    9  S   UNK N   1      29.623  17.088   5.145  0.00  0.00     0.266 S 
HETATM   10  O   UNK N   1      28.633  17.663   4.119  0.00  0.00    -0.200 OA
HETATM   11  O   UNK N   1      29.038  15.680   4.936  0.00  0.00    -0.200 OA
BRANCH   9  12
HETATM   12  C   UNK N   1      31.032  16.374   4.273  0.00  0.00     0.080 A 
HETATM   13  C   UNK N   1      32.021  17.163   3.672  0.00  0.00     0.026 A 
HETATM   14  C   UNK N   1      33.093  16.545   3.007  0.00  0.00     0.008 A 
HETATM   15  C   UNK N   1      33.173  15.146   2.939  0.00  0.00    -0.062 A 
HETATM   16  C   UNK N   1      32.182  14.364   3.529  0.00  0.00     0.008 A 
HETATM   17  C   UNK N   1      34.310  14.488   2.244  0.00  0.00     0.048 C 
HETATM   18  C   UNK N   1      31.117  14.974   4.188  0.00  0.00     0.026 A 
ENDBRANCH   9  12
ENDBRANCH   7   9
ENDBRANCH   1   7
BRANCH   6  19
HETATM   19  C   UNK N   1      31.791  16.850   7.715  0.00  0.00     0.058 A 
HETATM   20  C   UNK N   1      32.861  17.620   7.218  0.00  0.00     0.031 A 
HETATM   21  C   UNK N   1      34.014  17.009   6.715  0.00  0.00     0.002 A 
HETATM   22  C   UNK N   1      34.126  15.618   6.714  0.00  0.00     0.000 A 
HETATM   23  C   UNK N   1      33.088  14.841   7.228  0.00  0.00     0.002 A 
HETATM   24  C   UNK N   1      31.939  15.456   7.733  0.00  0.00     0.031 A 
ENDBRANCH   6  19
TORSDOF 4
ENDMDL
MODEL 2
REMARK VINA RESULT:      -6.2      2.483      4.324
REMARK  4 active torsions:
REMARK  status: ('A' for Active; 'I' for Inactive)
REMARK    1  A    between atoms: C_5  and  S_8 
REMARK    2  A    between atoms: S_8  and  N_11 
REMARK    3  A    between atoms: N_11  and  C_13 
REMARK    4  A    between atoms: N_18  and  C_19 
ROOT
HETATM    1  C   UNK N   1      28.104  18.898   5.109  0.00  0.00     0.140 A 
HETATM    2  C   UNK N   1      27.562  19.904   4.335  0.00  0.00     0.070 A 
HETATM    3  C   UNK N   1      27.212  20.894   5.235  0.00  0.00     0.111 A 
HETATM    4  N   UNK N   1      27.522  20.484   6.481  0.00  0.00    -0.303 N 
ATOM      5  HN  UNK N   1      27.373  21.024   7.333  1.00  0.00     0.186 HD
HETATM    6  N   UNK N   1      28.051  19.271   6.426  0.00  0.00    -0.240 N 
ENDROOT
BRANCH   1   7
HETATM    7  N   UNK N   1      28.679  17.709   4.550  0.00  0.00    -0.260 N 
HETATM    8  C   UNK N   1      27.862  16.738   3.864  0.00  0.00     0.171 C 
BRANCH   7   9
HETATM    9  S   UNK N   1      30.375  17.267   4.836  0.00  0.00     0.266 S 
HETATM   10  O   UNK N   1      30.769  16.448   3.596  0.00  0.00    -0.200 OA
HETATM   11  O   UNK N   1      29.827  15.998   5.512  0.00  0.00    -0.200 OA
BRANCH   9  12
HETATM   12  C   UNK N   1      31.659  17.094   6.091  0.00  0.00     0.080 A 
HETATM   13  C   UNK N   1      32.961  17.577   5.906  0.00  0.00     0.026 A 
HETATM   14  C   UNK N   1      33.916  17.410   6.922  0.00  0.00     0.008 A 
HETATM   15  C   UNK N   1      33.572  16.759   8.116  0.00  0.00    -0.062 A 
HETATM   16  C   UNK N   1      32.280  16.269   8.295  0.00  0.00     0.008 A 
HETATM   17  C   UNK N   1      34.577  16.588   9.198  0.00  0.00     0.048 C 
HETATM   18  C   UNK N   1      31.332  16.433   7.287  0.00  0.00     0.026 A 
ENDBRANCH   9  12
ENDBRANCH   7   9
ENDBRANCH   1   7
BRANCH   6  19
HETATM   19  C   UNK N   1      28.389  18.581   7.663  0.00  0.00     0.058 A 
HETATM   20  C   UNK N   1      29.336  19.154   8.533  0.00  0.00     0.031 A 
HETATM   21  C   UNK N   1      29.652  18.546   9.754  0.00  0.00     0.002 A 
HETATM   22  C   UNK N   1      29.013  17.364  10.132  0.00  0.00     0.000 A 
HETATM   23  C   UNK N   1      28.052  16.799   9.295  0.00  0.00     0.002 A 
HETATM   24  C   UNK N   1      27.738  17.411   8.078  0.00  0.00     0.031 A 
ENDBRANCH   6  19
TORSDOF 4
ENDMDL
MODEL 3
REMARK VINA RESULT:      -6.0      2.842      5.126
REMARK  4 active torsions:
REMARK  status: ('A' for Active; 'I' for Inactive)
REMARK    1  A    between atoms: C_5  and  S_8 
REMARK    2  A    between atoms: S_8  and  N_11 
REMARK    3  A    between atoms: N_11  and  C_13 
REMARK    4  A    between atoms: N_18  and  C_19 
ROOT
HETATM    1  C   UNK N   1      31.696  17.538   7.724  0.00  0.00     0.140 A 
HETATM    2  C   UNK N   1      32.834  18.028   8.332  0.00  0.00     0.070 A 
HETATM    3  C   UNK N   1      33.810  17.973   7.353  0.00  0.00     0.111 A 
HETATM    4  N   UNK N   1      33.274  17.462   6.227  0.00  0.00    -0.303 N 
ATOM      5  HN  UNK N   1      33.774  17.317   5.350  1.00  0.00     0.186 HD
HETATM    6  N   UNK N   1      31.998  17.179   6.436  0.00  0.00    -0.240 N 
ENDROOT
BRANCH   1   7
HETATM    7  N   UNK N   1      30.419  17.504   8.374  0.00  0.00    -0.260 N 
HETATM    8  C   UNK N   1      30.143  16.559   9.428  0.00  0.00     0.171 C 
BRANCH   7   9
HETATM    9  S   UNK N   1      29.050  18.478   7.798  0.00  0.00     0.266 S 
HETATM   10  O   UNK N   1      28.151  18.640   9.033  0.00  0.00    -0.200 OA
HETATM   11  O   UNK N   1      28.367  17.141   7.463  0.00  0.00    -0.200 OA
BRANCH   9  12
HETATM   12  C   UNK N   1      28.150  19.031   6.335  0.00  0.00     0.080 A 
HETATM   13  C   UNK N   1      28.004  18.230   5.196  0.00  0.00     0.026 A 
HETATM   14  C   UNK N   1      27.292  18.719   4.088  0.00  0.00     0.008 A 
HETATM   15  C   UNK N   1      26.733  20.005   4.118  0.00  0.00    -0.062 A 
HETATM   16  C   UNK N   1      26.889  20.805   5.247  0.00  0.00     0.008 A 
HETATM   17  C   UNK N   1      25.971  20.524   2.951  0.00  0.00     0.048 C 
HETATM   18  C   UNK N   1      27.596  20.322   6.347  0.00  0.00     0.026 A 
ENDBRANCH   9  12
ENDBRANCH   7   9
ENDBRANCH   1   7
BRANCH   6  19
HETATM   19  C   UNK N   1      31.225  16.534   5.384  0.00  0.00     0.058 A 
HETATM   20  C   UNK N   1      31.247  17.076   4.084  0.00  0.00     0.031 A 
HETATM   21  C   UNK N   1      30.557  16.457   3.036  0.00  0.00     0.002 A 
HETATM   22  C   UNK N   1      29.848  15.277   3.265  0.00  0.00     0.000 A 
HETATM   23  C   UNK N   1      29.839  14.712   4.539  0.00  0.00     0.002 A 
HETATM   24  C   UNK N   1      30.532  15.332   5.584  0.00  0.00     0.031 A 
ENDBRANCH   6  19
TORSDOF 4
ENDMDL
MODEL 4
REMARK VINA RESULT:      -6.0     13.819     15.602
REMARK  4 active torsions:
REMARK  status: ('A' for Active; 'I' for Inactive)
REMARK    1  A    between atoms: C_5  and  S_8 
REMARK    2  A    between atoms: S_8  and  N_11 
REMARK    3  A    between atoms: N_11  and  C_13 
REMARK    4  A    between atoms: N_18  and  C_19 
ROOT
HETATM    1  C   UNK N   1      27.605  29.204  -4.916  0.00  0.00     0.140 A 
HETATM    2  C   UNK N   1      27.402  30.487  -4.448  0.00  0.00     0.070 A 
HETATM    3  C   UNK N   1      26.351  30.376  -3.556  0.00  0.00     0.111 A 
HETATM    4  N   UNK N   1      25.947  29.091  -3.511  0.00  0.00    -0.303 N 
ATOM      5  HN  UNK N   1      25.191  28.731  -2.928  1.00  0.00     0.186 HD
HETATM    6  N   UNK N   1      26.686  28.368  -4.338  0.00  0.00    -0.240 N 
ENDROOT
BRANCH   1   7
HETATM    7  N   UNK N   1      28.673  28.860  -5.809  0.00  0.00    -0.260 N 
HETATM    8  C   UNK N   1      28.793  29.485  -7.103  0.00  0.00     0.171 C 
BRANCH   7   9
HETATM    9  S   UNK N   1      29.786  27.520  -5.463  0.00  0.00     0.266 S 
HETATM   10  O   UNK N   1      31.100  27.931  -6.147  0.00  0.00    -0.200 OA
HETATM   11  O   UNK N   1      29.285  26.895  -6.777  0.00  0.00    -0.200 OA
BRANCH   9  12
HETATM   12  C   UNK N   1      29.896  25.790  -4.961  0.00  0.00     0.080 A 
HETATM   13  C   UNK N   1      29.492  24.740  -5.794  0.00  0.00     0.026 A 
HETATM   14  C   UNK N   1      29.603  23.413  -5.343  0.00  0.00     0.008 A 
HETATM   15  C   UNK N   1      30.110  23.140  -4.064  0.00  0.00    -0.062 A 
HETATM   16  C   UNK N   1      30.500  24.188  -3.233  0.00  0.00     0.008 A 
HETATM   17  C   UNK N   1      30.236  21.738  -3.586  0.00  0.00     0.048 C 
HETATM   18  C   UNK N   1      30.390  25.504  -3.677  0.00  0.00     0.026 A 
ENDBRANCH   9  12
ENDBRANCH   7   9
ENDBRANCH   1   7
BRANCH   6  19
HETATM   19  C   UNK N   1      26.379  26.957  -4.526  0.00  0.00     0.058 A 
HETATM   20  C   UNK N   1      25.901  26.517  -5.776  0.00  0.00     0.031 A 
HETATM   21  C   UNK N   1      25.642  25.163  -6.010  0.00  0.00     0.002 A 
HETATM   22  C   UNK N   1      25.872  24.222  -5.006  0.00  0.00     0.000 A 
HETATM   23  C   UNK N   1      26.372  24.636  -3.772  0.00  0.00     0.002 A 
HETATM   24  C   UNK N   1      26.633  25.991  -3.542  0.00  0.00     0.031 A 
ENDBRANCH   6  19
TORSDOF 4
ENDMDL
MODEL 5
REMARK VINA RESULT:      -6.0     14.224     16.391
REMARK  4 active torsions:
REMARK  status: ('A' for Active; 'I' for Inactive)
REMARK    1  A    between atoms: C_5  and  S_8 
REMARK    2  A    between atoms: S_8  and  N_11 
REMARK    3  A    between atoms: N_11  and  C_13 
REMARK    4  A    between atoms: N_18  and  C_19 
ROOT
HETATM    1  C   UNK N   1      27.359  23.201  -6.694  0.00  0.00     0.140 A 
HETATM    2  C   UNK N   1      27.015  22.078  -7.419  0.00  0.00     0.070 A 
HETATM    3  C   UNK N   1      25.635  22.117  -7.498  0.00  0.00     0.111 A 
HETATM    4  N   UNK N   1      25.188  23.205  -6.839  0.00  0.00    -0.303 N 
ATOM      5  HN  UNK N   1      24.209  23.476  -6.746  1.00  0.00     0.186 HD
HETATM    6  N   UNK N   1      26.217  23.866  -6.333  0.00  0.00    -0.240 N 
ENDROOT
BRANCH   1   7
HETATM    7  N   UNK N   1      28.719  23.586  -6.454  0.00  0.00    -0.260 N 
HETATM    8  C   UNK N   1      29.672  22.655  -5.902  0.00  0.00     0.171 C 
BRANCH   7   9
HETATM    9  S   UNK N   1      29.260  25.269  -6.636  0.00  0.00     0.266 S 
HETATM   10  O   UNK N   1      30.683  25.151  -7.204  0.00  0.00    -0.200 OA
HETATM   11  O   UNK N   1      29.810  25.142  -5.204  0.00  0.00    -0.200 OA
BRANCH   9  12
HETATM   12  C   UNK N   1      28.968  26.972  -6.118  0.00  0.00     0.080 A 
HETATM   13  C   UNK N   1      29.320  27.441  -4.847  0.00  0.00     0.026 A 
HETATM   14  C   UNK N   1      29.065  28.780  -4.504  0.00  0.00     0.008 A 
HETATM   15  C   UNK N   1      28.456  29.643  -5.428  0.00  0.00    -0.062 A 
HETATM   16  C   UNK N   1      28.096  29.171  -6.688  0.00  0.00     0.008 A 
HETATM   17  C   UNK N   1      28.191  31.062  -5.073  0.00  0.00     0.048 C 
HETATM   18  C   UNK N   1      28.347  27.844  -7.029  0.00  0.00     0.026 A 
ENDBRANCH   9  12
ENDBRANCH   7   9
ENDBRANCH   1   7
BRANCH   6  19
HETATM   19  C   UNK N   1      25.977  25.038  -5.502  0.00  0.00     0.058 A 
HETATM   20  C   UNK N   1      26.479  25.061  -4.186  0.00  0.00     0.031 A 
HETATM   21  C   UNK N   1      26.312  26.187  -3.373  0.00  0.00     0.002 A 
HETATM   22  C   UNK N   1      25.657  27.316  -3.867  0.00  0.00     0.000 A 
HETATM   23  C   UNK N   1      25.178  27.320  -5.176  0.00  0.00     0.002 A 
HETATM   24  C   UNK N   1      25.350  26.193  -5.986  0.00  0.00     0.031 A 
ENDBRANCH   6  19
TORSDOF 4
ENDMDL
MODEL 6
REMARK VINA RESULT:      -6.0     12.649     14.341
REMARK  4 active torsions:
REMARK  status: ('A' for Active; 'I' for Inactive)
REMARK    1  A    between atoms: C_5  and  S_8 
REMARK    2  A    between atoms: S_8  and  N_11 
REMARK    3  A    between atoms: N_11  and  C_13 
REMARK    4  A    between atoms: N_18  and  C_19 
ROOT
HETATM    1  C   UNK N   1      26.737  27.592  -4.336  0.00  0.00     0.140 A 
HETATM    2  C   UNK N   1      25.934  28.518  -3.701  0.00  0.00     0.070 A 
HETATM    3  C   UNK N   1      26.808  29.473  -3.217  0.00  0.00     0.111 A 
HETATM    4  N   UNK N   1      28.068  29.119  -3.541  0.00  0.00    -0.303 N 
ATOM      5  HN  UNK N   1      28.907  29.651  -3.310  1.00  0.00     0.186 HD
HETATM    6  N   UNK N   1      28.046  27.976  -4.207  0.00  0.00    -0.240 N 
ENDROOT
BRANCH   1   7
HETATM    7  N   UNK N   1      26.212  26.470  -5.057  0.00  0.00    -0.260 N 
HETATM    8  C   UNK N   1      25.031  26.595  -5.875  0.00  0.00     0.171 C 
BRANCH   7   9
HETATM    9  S   UNK N   1      26.861  24.831  -4.836  0.00  0.00     0.266 S 
HETATM   10  O   UNK N   1      25.630  23.917  -4.944  0.00  0.00    -0.200 OA
HETATM   11  O   UNK N   1      26.592  25.034  -3.335  0.00  0.00    -0.200 OA
BRANCH   9  12
HETATM   12  C   UNK N   1      28.257  23.872  -4.213  0.00  0.00     0.080 A 
HETATM   13  C   UNK N   1      28.485  23.681  -2.845  0.00  0.00     0.026 A 
HETATM   14  C   UNK N   1      29.592  22.924  -2.424  0.00  0.00     0.008 A 
HETATM   15  C   UNK N   1      30.467  22.366  -3.367  0.00  0.00    -0.062 A 
HETATM   16  C   UNK N   1      30.245  22.567  -4.727  0.00  0.00     0.008 A 
HETATM   17  C   UNK N   1      31.634  21.557  -2.927  0.00  0.00     0.048 C 
HETATM   18  C   UNK N   1      29.149  23.318  -5.147  0.00  0.00     0.026 A 
ENDBRANCH   9  12
ENDBRANCH   7   9
ENDBRANCH   1   7
BRANCH   6  19
HETATM   19  C   UNK N   1      29.302  27.346  -4.591  0.00  0.00     0.058 A 
HETATM   20  C   UNK N   1      30.169  26.873  -3.587  0.00  0.00     0.031 A 
HETATM   21  C   UNK N   1      31.361  26.219  -3.917  0.00  0.00     0.002 A 
HETATM   22  C   UNK N   1      31.699  26.011  -5.255  0.00  0.00     0.000 A 
HETATM   23  C   UNK N   1      30.838  26.448  -6.261  0.00  0.00     0.002 A 
HETATM   24  C   UNK N   1      29.646  27.099  -5.927  0.00  0.00     0.031 A 
ENDBRANCH   6  19
TORSDOF 4
ENDMDL
MODEL 7
REMARK VINA RESULT:      -5.9      2.694      5.259
REMARK  4 active torsions:
REMARK  status: ('A' for Active; 'I' for Inactive)
REMARK    1  A    between atoms: C_5  and  S_8 
REMARK    2  A    between atoms: S_8  and  N_11 
REMARK    3  A    between atoms: N_11  and  C_13 
REMARK    4  A    between atoms: N_18  and  C_19 
ROOT
HETATM    1  C   UNK N   1      27.550  15.891   4.993  0.00  0.00     0.140 A 
HETATM    2  C   UNK N   1      27.103  14.687   5.500  0.00  0.00     0.070 A 
HETATM    3  C   UNK N   1      26.152  15.031   6.443  0.00  0.00     0.111 A 
HETATM    4  N   UNK N   1      26.055  16.374   6.499  0.00  0.00    -0.303 N 
ATOM      5  HN  UNK N   1      25.424  16.894   7.108  1.00  0.00     0.186 HD
HETATM    6  N   UNK N   1      26.904  16.913   5.638  0.00  0.00    -0.240 N 
ENDROOT
BRANCH   1   7
HETATM    7  N   UNK N   1      28.492  15.982   3.916  0.00  0.00    -0.260 N 
HETATM    8  C   UNK N   1      28.196  15.424   2.619  0.00  0.00     0.171 C 
BRANCH   7   9
HETATM    9  S   UNK N   1      30.138  16.603   4.162  0.00  0.00     0.266 S 
HETATM   10  O   UNK N   1      30.838  16.367   2.815  0.00  0.00    -0.200 OA
HETATM   11  O   UNK N   1      30.502  15.177   4.613  0.00  0.00    -0.200 OA
BRANCH   9  12
HETATM   12  C   UNK N   1      31.370  17.053   5.400  0.00  0.00     0.080 A 
HETATM   13  C   UNK N   1      31.054  17.200   6.756  0.00  0.00     0.026 A 
HETATM   14  C   UNK N   1      32.060  17.554   7.671  0.00  0.00     0.008 A 
HETATM   15  C   UNK N   1      33.375  17.764   7.230  0.00  0.00    -0.062 A 
HETATM   16  C   UNK N   1      33.686  17.628   5.879  0.00  0.00     0.008 A 
HETATM   17  C   UNK N   1      34.445  18.129   8.195  0.00  0.00     0.048 C 
HETATM   18  C   UNK N   1      32.689  17.278   4.970  0.00  0.00     0.026 A 
ENDBRANCH   9  12
ENDBRANCH   7   9
ENDBRANCH   1   7
BRANCH   6  19
HETATM   19  C   UNK N   1      27.041  18.362   5.578  0.00  0.00     0.058 A 
HETATM   20  C   UNK N   1      26.549  19.053   4.453  0.00  0.00     0.031 A 
HETATM   21  C   UNK N   1      26.618  20.448   4.380  0.00  0.00     0.002 A 
HETATM   22  C   UNK N   1      27.163  21.178   5.437  0.00  0.00     0.000 A 
HETATM   23  C   UNK N   1      27.629  20.512   6.570  0.00  0.00     0.002 A 
HETATM   24  C   UNK N   1      27.555  19.117   6.640  0.00  0.00     0.031 A 
ENDBRANCH   6  19
TORSDOF 4
ENDMDL
MODEL 8
REMARK VINA RESULT:      -5.9     13.190     15.404
REMARK  4 active torsions:
REMARK  status: ('A' for Active; 'I' for Inactive)
REMARK    1  A    between atoms: C_5  and  S_8 
REMARK    2  A    between atoms: S_8  and  N_11 
REMARK    3  A    between atoms: N_11  and  C_13 
REMARK    4  A    between atoms: N_18  and  C_19 
ROOT
HETATM    1  C   UNK N   1      28.254  21.358  -7.508  0.00  0.00     0.140 A 
HETATM    2  C   UNK N   1      28.567  20.105  -7.996  0.00  0.00     0.070 A 
HETATM    3  C   UNK N   1      29.722  19.743  -7.329  0.00  0.00     0.111 A 
HETATM    4  N   UNK N   1      30.080  20.741  -6.497  0.00  0.00    -0.303 N 
ATOM      5  HN  UNK N   1      30.893  20.732  -5.881  1.00  0.00     0.186 HD
HETATM    6  N   UNK N   1      29.211  21.734  -6.601  0.00  0.00    -0.240 N 
ENDROOT
BRANCH   1   7
HETATM    7  N   UNK N   1      27.064  22.065  -7.881  0.00  0.00    -0.260 N 
HETATM    8  C   UNK N   1      26.657  22.161  -9.262  0.00  0.00     0.171 C 
BRANCH   7   9
HETATM    9  S   UNK N   1      26.137  23.021  -6.706  0.00  0.00     0.266 S 
HETATM   10  O   UNK N   1      24.786  22.295  -6.607  0.00  0.00    -0.200 OA
HETATM   11  O   UNK N   1      25.627  23.827  -7.914  0.00  0.00    -0.200 OA
BRANCH   9  12
HETATM   12  C   UNK N   1      26.010  24.623  -5.885  0.00  0.00     0.080 A 
HETATM   13  C   UNK N   1      25.636  25.788  -6.566  0.00  0.00     0.026 A 
HETATM   14  C   UNK N   1      25.557  27.006  -5.869  0.00  0.00     0.008 A 
HETATM   15  C   UNK N   1      25.855  27.058  -4.500  0.00  0.00    -0.062 A 
HETATM   16  C   UNK N   1      26.238  25.900  -3.827  0.00  0.00     0.008 A 
HETATM   17  C   UNK N   1      25.764  28.342  -3.756  0.00  0.00     0.048 C 
HETATM   18  C   UNK N   1      26.318  24.692  -4.516  0.00  0.00     0.026 A 
ENDBRANCH   9  12
ENDBRANCH   7   9
ENDBRANCH   1   7
BRANCH   6  19
HETATM   19  C   UNK N   1      29.436  22.965  -5.857  0.00  0.00     0.058 A 
HETATM   20  C   UNK N   1      29.578  22.906  -4.457  0.00  0.00     0.031 A 
HETATM   21  C   UNK N   1      29.844  24.060  -3.712  0.00  0.00     0.002 A 
HETATM   22  C   UNK N   1      29.990  25.290  -4.355  0.00  0.00     0.000 A 
HETATM   23  C   UNK N   1      29.881  25.362  -5.743  0.00  0.00     0.002 A 
HETATM   24  C   UNK N   1      29.617  24.205  -6.484  0.00  0.00     0.031 A 
ENDBRANCH   6  19
TORSDOF 4
ENDMDL
MODEL 9
REMARK VINA RESULT:      -5.8     14.575     16.639
REMARK  4 active torsions:
REMARK  status: ('A' for Active; 'I' for Inactive)
REMARK    1  A    between atoms: C_5  and  S_8 
REMARK    2  A    between atoms: S_8  and  N_11 
REMARK    3  A    between atoms: N_11  and  C_13 
REMARK    4  A    between atoms: N_18  and  C_19 
ROOT
HETATM    1  C   UNK N   1      26.212  23.494  -8.101  0.00  0.00     0.140 A 
HETATM    2  C   UNK N   1      25.271  22.751  -8.785  0.00  0.00     0.070 A 
HETATM    3  C   UNK N   1      24.635  22.003  -7.812  0.00  0.00     0.111 A 
HETATM    4  N   UNK N   1      25.184  22.283  -6.614  0.00  0.00    -0.303 N 
ATOM      5  HN  UNK N   1      24.899  21.872  -5.724  1.00  0.00     0.186 HD
HETATM    6  N   UNK N   1      26.151  23.173  -6.770  0.00  0.00    -0.240 N 
ENDROOT
BRANCH   1   7
HETATM    7  N   UNK N   1      27.039  24.478  -8.736  0.00  0.00    -0.260 N 
HETATM    8  C   UNK N   1      28.092  24.094  -9.644  0.00  0.00     0.171 C 
BRANCH   7   9
HETATM    9  S   UNK N   1      26.950  26.197  -8.298  0.00  0.00     0.266 S 
HETATM   10  O   UNK N   1      27.431  26.936  -9.557  0.00  0.00    -0.200 OA
HETATM   11  O   UNK N   1      28.405  26.048  -7.817  0.00  0.00    -0.200 OA
BRANCH   9  12
HETATM   12  C   UNK N   1      26.867  27.364  -6.924  0.00  0.00     0.080 A 
HETATM   13  C   UNK N   1      27.777  28.418  -6.778  0.00  0.00     0.026 A 
HETATM   14  C   UNK N   1      27.658  29.293  -5.684  0.00  0.00     0.008 A 
HETATM   15  C   UNK N   1      26.637  29.109  -4.739  0.00  0.00    -0.062 A 
HETATM   16  C   UNK N   1      25.741  28.053  -4.880  0.00  0.00     0.008 A 
HETATM   17  C   UNK N   1      26.502  30.036  -3.585  0.00  0.00     0.048 C 
HETATM   18  C   UNK N   1      25.857  27.184  -5.963  0.00  0.00     0.026 A 
ENDBRANCH   9  12
ENDBRANCH   7   9
ENDBRANCH   1   7
BRANCH   6  19
HETATM   19  C   UNK N   1      26.953  23.571  -5.621  0.00  0.00     0.058 A 
HETATM   20  C   UNK N   1      26.307  24.054  -4.466  0.00  0.00     0.031 A 
HETATM   21  C   UNK N   1      27.039  24.399  -3.325  0.00  0.00     0.002 A 
HETATM   22  C   UNK N   1      28.426  24.251  -3.312  0.00  0.00     0.000 A 
HETATM   23  C   UNK N   1      29.079  23.747  -4.436  0.00  0.00     0.002 A 
HETATM   24  C   UNK N   1      28.343  23.401  -5.574  0.00  0.00     0.031 A 
ENDBRANCH   6  19
TORSDOF 4
ENDMDL
