MODEL 1
REMARK VINA RESULT:      -5.5      0.000      0.000
REMARK  4 active torsions:
REMARK  status: ('A' for Active; 'I' for Inactive)
REMARK    1  A    between atoms: C_2  and  C_3 
REMARK    2  A    between atoms: C_2  and  C_10 
REMARK    3  A    between atoms: C_3  and  C_4 
REMARK    4  A    between atoms: C_10  and  O_12 
ROOT
HETATM    1  C   UNK N   1      35.137  13.384  15.898  0.00  0.00     0.053 C 
ENDROOT
BRANCH   1   2
HETATM    2  C   UNK N   1      36.446  13.616  15.130  0.00  0.00     0.084 C 
HETATM    3  C   UNK N   1      37.152  14.881  15.607  0.00  0.00     0.021 C 
BRANCH   2   4
HETATM    4  C   UNK N   1      36.109  13.710  13.663  0.00  0.00     0.143 C 
HETATM    5  O   UNK N   1      34.946  13.743  13.285  0.00  0.00    -0.650 OA
BRANCH   4   6
HETATM    6  O   UNK N   1      37.100  13.749  12.751  0.00  0.00    -0.776 OA
HETATM    7  H   UNK N   1      37.516  14.563  12.544  0.00  0.00     0.167 HD
ENDBRANCH   4   6
ENDBRANCH   2   4
ENDBRANCH   1   2
BRANCH   1   8
HETATM    8  C   UNK N   1      35.250  12.638  17.197  0.00  0.00    -0.057 A 
HETATM    9  C   UNK N   1      35.116  13.328  18.407  0.00  0.00     0.007 A 
HETATM   10  C   UNK N   1      35.293  12.657  19.621  0.00  0.00     0.001 A 
HETATM   11  C   UNK N   1      35.615  11.295  19.629  0.00  0.00     0.000 A 
HETATM   12  C   UNK N   1      35.759  10.606  18.421  0.00  0.00     0.001 A 
HETATM   13  C   UNK N   1      35.584  11.278  17.209  0.00  0.00     0.007 A 
ENDBRANCH   1   8
TORSDOF 4
ENDMDL
MODEL 2
REMARK VINA RESULT:      -5.3      9.806     11.116
REMARK  4 active torsions:
REMARK  status: ('A' for Active; 'I' for Inactive)
REMARK    1  A    between atoms: C_2  and  C_3 
REMARK    2  A    between atoms: C_2  and  C_10 
REMARK    3  A    between atoms: C_3  and  C_4 
REMARK    4  A    between atoms: C_10  and  O_12 
ROOT
HETATM    1  C   UNK N   1      32.292  17.080   8.206  0.00  0.00     0.053 C 
ENDROOT
BRANCH   1   2
HETATM    2  C   UNK N   1      33.354  17.975   7.551  0.00  0.00     0.084 C 
HETATM    3  C   UNK N   1      33.920  17.329   6.289  0.00  0.00     0.021 C 
BRANCH   2   4
HETATM    4  C   UNK N   1      34.444  18.217   8.565  0.00  0.00     0.143 C 
HETATM    5  O   UNK N   1      35.261  19.114   8.408  0.00  0.00    -0.650 OA
BRANCH   4   6
HETATM    6  O   UNK N   1      34.529  17.430   9.654  0.00  0.00    -0.776 OA
HETATM    7  H   UNK N   1      34.188  17.726  10.475  0.00  0.00     0.167 HD
ENDBRANCH   4   6
ENDBRANCH   2   4
ENDBRANCH   1   2
BRANCH   1   8
HETATM    8  C   UNK N   1      30.873  17.562   8.124  0.00  0.00    -0.057 A 
HETATM    9  C   UNK N   1      30.314  18.260   9.201  0.00  0.00     0.007 A 
HETATM   10  C   UNK N   1      28.970  18.648   9.164  0.00  0.00     0.001 A 
HETATM   11  C   UNK N   1      28.179  18.331   8.054  0.00  0.00     0.000 A 
HETATM   12  C   UNK N   1      28.733  17.628   6.981  0.00  0.00     0.001 A 
HETATM   13  C   UNK N   1      30.074  17.238   7.020  0.00  0.00     0.007 A 
ENDBRANCH   1   8
TORSDOF 4
ENDMDL
MODEL 3
REMARK VINA RESULT:      -5.2      1.499      2.598
REMARK  4 active torsions:
REMARK  status: ('A' for Active; 'I' for Inactive)
REMARK    1  A    between atoms: C_2  and  C_3 
REMARK    2  A    between atoms: C_2  and  C_10 
REMARK    3  A    between atoms: C_3  and  C_4 
REMARK    4  A    between atoms: C_10  and  O_12 
ROOT
HETATM    1  C   UNK N   1      35.617  11.346  15.510  0.00  0.00     0.053 C 
ENDROOT
BRANCH   1   2
HETATM    2  C   UNK N   1      34.507  11.824  14.563  0.00  0.00     0.084 C 
HETATM    3  C   UNK N   1      33.742  10.646  13.966  0.00  0.00     0.021 C 
BRANCH   2   4
HETATM    4  C   UNK N   1      35.151  12.650  13.477  0.00  0.00     0.143 C 
HETATM    5  O   UNK N   1      36.367  12.774  13.418  0.00  0.00    -0.650 OA
BRANCH   4   6
HETATM    6  O   UNK N   1      34.379  13.270  12.564  0.00  0.00    -0.776 OA
HETATM    7  H   UNK N   1      33.578  13.679  12.826  0.00  0.00     0.167 HD
ENDBRANCH   4   6
ENDBRANCH   2   4
ENDBRANCH   1   2
BRANCH   1   8
HETATM    8  C   UNK N   1      35.538  11.833  16.928  0.00  0.00    -0.057 A 
HETATM    9  C   UNK N   1      35.641  10.918  17.982  0.00  0.00     0.007 A 
HETATM   10  C   UNK N   1      35.494  11.352  19.305  0.00  0.00     0.001 A 
HETATM   11  C   UNK N   1      35.234  12.700  19.575  0.00  0.00     0.000 A 
HETATM   12  C   UNK N   1      35.122  13.613  18.524  0.00  0.00     0.001 A 
HETATM   13  C   UNK N   1      35.266  13.179  17.203  0.00  0.00     0.007 A 
ENDBRANCH   1   8
TORSDOF 4
ENDMDL
MODEL 4
REMARK VINA RESULT:      -4.8      1.430      1.587
REMARK  4 active torsions:
REMARK  status: ('A' for Active; 'I' for Inactive)
REMARK    1  A    between atoms: C_2  and  C_3 
REMARK    2  A    between atoms: C_2  and  C_10 
REMARK    3  A    between atoms: C_3  and  C_4 
REMARK    4  A    between atoms: C_10  and  O_12 
ROOT
HETATM    1  C   UNK N   1      35.119  12.771  15.333  0.00  0.00     0.053 C 
ENDROOT
BRANCH   1   2
HETATM    2  C   UNK N   1      36.443  13.215  14.695  0.00  0.00     0.084 C 
HETATM    3  C   UNK N   1      36.211  14.256  13.603  0.00  0.00     0.021 C 
BRANCH   2   4
HETATM    4  C   UNK N   1      37.118  11.989  14.132  0.00  0.00     0.143 C 
HETATM    5  O   UNK N   1      36.466  11.101  13.598  0.00  0.00    -0.650 OA
BRANCH   4   6
HETATM    6  O   UNK N   1      38.455  11.861  14.223  0.00  0.00    -0.776 OA
HETATM    7  H   UNK N   1      39.016  12.424  13.727  0.00  0.00     0.167 HD
ENDBRANCH   4   6
ENDBRANCH   2   4
ENDBRANCH   1   2
BRANCH   1   8
HETATM    8  C   UNK N   1      35.144  12.523  16.813  0.00  0.00    -0.057 A 
HETATM    9  C   UNK N   1      35.087  13.605  17.699  0.00  0.00     0.007 A 
HETATM   10  C   UNK N   1      35.184  13.389  19.078  0.00  0.00     0.001 A 
HETATM   11  C   UNK N   1      35.348  12.091  19.574  0.00  0.00     0.000 A 
HETATM   12  C   UNK N   1      35.413  11.010  18.691  0.00  0.00     0.001 A 
HETATM   13  C   UNK N   1      35.318  11.226  17.314  0.00  0.00     0.007 A 
ENDBRANCH   1   8
TORSDOF 4
ENDMDL
MODEL 5
REMARK VINA RESULT:      -4.8      7.744     11.043
REMARK  4 active torsions:
REMARK  status: ('A' for Active; 'I' for Inactive)
REMARK    1  A    between atoms: C_2  and  C_3 
REMARK    2  A    between atoms: C_2  and  C_10 
REMARK    3  A    between atoms: C_3  and  C_4 
REMARK    4  A    between atoms: C_10  and  O_12 
ROOT
HETATM    1  C   UNK N   1      33.193  17.405   8.527  0.00  0.00     0.053 C 
ENDROOT
BRANCH   1   2
HETATM    2  C   UNK N   1      34.121  16.243   8.907  0.00  0.00     0.084 C 
HETATM    3  C   UNK N   1      33.336  14.952   9.118  0.00  0.00     0.021 C 
BRANCH   2   4
HETATM    4  C   UNK N   1      34.859  16.634  10.164  0.00  0.00     0.143 C 
HETATM    5  O   UNK N   1      35.610  17.600  10.178  0.00  0.00    -0.650 OA
BRANCH   4   6
HETATM    6  O   UNK N   1      34.698  15.906  11.285  0.00  0.00    -0.776 OA
HETATM    7  H   UNK N   1      34.244  15.088  11.253  0.00  0.00     0.167 HD
ENDBRANCH   4   6
ENDBRANCH   2   4
ENDBRANCH   1   2
BRANCH   1   8
HETATM    8  C   UNK N   1      32.684  17.416   7.114  0.00  0.00    -0.057 A 
HETATM    9  C   UNK N   1      31.320  17.223   6.867  0.00  0.00     0.007 A 
HETATM   10  C   UNK N   1      30.848  17.158   5.551  0.00  0.00     0.001 A 
HETATM   11  C   UNK N   1      31.740  17.275   4.480  0.00  0.00     0.000 A 
HETATM   12  C   UNK N   1      33.103  17.459   4.724  0.00  0.00     0.001 A 
HETATM   13  C   UNK N   1      33.575  17.523   6.038  0.00  0.00     0.007 A 
ENDBRANCH   1   8
TORSDOF 4
ENDMDL
MODEL 6
REMARK VINA RESULT:      -4.7     15.395     16.442
REMARK  4 active torsions:
REMARK  status: ('A' for Active; 'I' for Inactive)
REMARK    1  A    between atoms: C_2  and  C_3 
REMARK    2  A    between atoms: C_2  and  C_10 
REMARK    3  A    between atoms: C_3  and  C_4 
REMARK    4  A    between atoms: C_10  and  O_12 
ROOT
HETATM    1  C   UNK N   1      20.433  14.477   8.543  0.00  0.00     0.053 C 
ENDROOT
BRANCH   1   2
HETATM    2  C   UNK N   1      20.534  16.003   8.672  0.00  0.00     0.084 C 
HETATM    3  C   UNK N   1      19.166  16.630   8.922  0.00  0.00     0.021 C 
BRANCH   2   4
HETATM    4  C   UNK N   1      21.142  16.534   7.397  0.00  0.00     0.143 C 
HETATM    5  O   UNK N   1      21.680  15.783   6.596  0.00  0.00    -0.650 OA
BRANCH   4   6
HETATM    6  O   UNK N   1      21.103  17.855   7.139  0.00  0.00    -0.776 OA
HETATM    7  H   UNK N   1      21.391  18.469   7.785  0.00  0.00     0.167 HD
ENDBRANCH   4   6
ENDBRANCH   2   4
ENDBRANCH   1   2
BRANCH   1   8
HETATM    8  C   UNK N   1      21.190  13.671   9.559  0.00  0.00    -0.057 A 
HETATM    9  C   UNK N   1      22.579  13.542   9.448  0.00  0.00     0.007 A 
HETATM   10  C   UNK N   1      23.283  12.733  10.347  0.00  0.00     0.001 A 
HETATM   11  C   UNK N   1      22.599  12.044  11.354  0.00  0.00     0.000 A 
HETATM   12  C   UNK N   1      21.210  12.165  11.462  0.00  0.00     0.001 A 
HETATM   13  C   UNK N   1      20.507  12.971  10.563  0.00  0.00     0.007 A 
ENDBRANCH   1   8
TORSDOF 4
ENDMDL
MODEL 7
REMARK VINA RESULT:      -4.6      2.362      4.072
REMARK  4 active torsions:
REMARK  status: ('A' for Active; 'I' for Inactive)
REMARK    1  A    between atoms: C_2  and  C_3 
REMARK    2  A    between atoms: C_2  and  C_10 
REMARK    3  A    between atoms: C_3  and  C_4 
REMARK    4  A    between atoms: C_10  and  O_12 
ROOT
HETATM    1  C   UNK N   1      36.312  14.042  12.490  0.00  0.00     0.053 C 
ENDROOT
BRANCH   1   2
HETATM    2  C   UNK N   1      35.173  14.677  11.681  0.00  0.00     0.084 C 
HETATM    3  C   UNK N   1      34.733  13.770  10.535  0.00  0.00     0.021 C 
BRANCH   2   4
HETATM    4  C   UNK N   1      35.663  16.004  11.157  0.00  0.00     0.143 C 
HETATM    5  O   UNK N   1      36.805  16.132  10.738  0.00  0.00    -0.650 OA
BRANCH   4   6
HETATM    6  O   UNK N   1      34.837  17.068  11.157  0.00  0.00    -0.776 OA
HETATM    7  H   UNK N   1      33.980  16.997  10.785  0.00  0.00     0.167 HD
ENDBRANCH   4   6
ENDBRANCH   2   4
ENDBRANCH   1   2
BRANCH   1   8
HETATM    8  C   UNK N   1      35.973  13.598  13.883  0.00  0.00    -0.057 A 
HETATM    9  C   UNK N   1      34.936  12.681  14.086  0.00  0.00     0.007 A 
HETATM   10  C   UNK N   1      34.563  12.319  15.386  0.00  0.00     0.001 A 
HETATM   11  C   UNK N   1      35.221  12.880  16.485  0.00  0.00     0.000 A 
HETATM   12  C   UNK N   1      36.251  13.803  16.286  0.00  0.00     0.001 A 
HETATM   13  C   UNK N   1      36.621  14.166  14.988  0.00  0.00     0.007 A 
ENDBRANCH   1   8
TORSDOF 4
ENDMDL
MODEL 8
REMARK VINA RESULT:      -4.5     15.422     16.923
REMARK  4 active torsions:
REMARK  status: ('A' for Active; 'I' for Inactive)
REMARK    1  A    between atoms: C_2  and  C_3 
REMARK    2  A    between atoms: C_2  and  C_10 
REMARK    3  A    between atoms: C_3  and  C_4 
REMARK    4  A    between atoms: C_10  and  O_12 
ROOT
HETATM    1  C   UNK N   1      21.520  13.194   8.778  0.00  0.00     0.053 C 
ENDROOT
BRANCH   1   2
HETATM    2  C   UNK N   1      22.194  13.039  10.148  0.00  0.00     0.084 C 
HETATM    3  C   UNK N   1      23.471  12.210  10.047  0.00  0.00     0.021 C 
BRANCH   2   4
HETATM    4  C   UNK N   1      21.203  12.387  11.079  0.00  0.00     0.143 C 
HETATM    5  O   UNK N   1      19.998  12.522  10.911  0.00  0.00    -0.650 OA
BRANCH   4   6
HETATM    6  O   UNK N   1      21.645  11.652  12.117  0.00  0.00    -0.776 OA
HETATM    7  H   UNK N   1      21.035  11.225  12.685  0.00  0.00     0.167 HD
ENDBRANCH   4   6
ENDBRANCH   2   4
ENDBRANCH   1   2
BRANCH   1   8
HETATM    8  C   UNK N   1      21.278  14.600   8.310  0.00  0.00    -0.057 A 
HETATM    9  C   UNK N   1      20.329  15.396   8.962  0.00  0.00     0.007 A 
HETATM   10  C   UNK N   1      20.045  16.681   8.488  0.00  0.00     0.001 A 
HETATM   11  C   UNK N   1      20.701  17.170   7.354  0.00  0.00     0.000 A 
HETATM   12  C   UNK N   1      21.644  16.375   6.695  0.00  0.00     0.001 A 
HETATM   13  C   UNK N   1      21.926  15.091   7.168  0.00  0.00     0.007 A 
ENDBRANCH   1   8
TORSDOF 4
ENDMDL
MODEL 9
REMARK VINA RESULT:      -4.3      2.747      4.178
REMARK  4 active torsions:
REMARK  status: ('A' for Active; 'I' for Inactive)
REMARK    1  A    between atoms: C_2  and  C_3 
REMARK    2  A    between atoms: C_2  and  C_10 
REMARK    3  A    between atoms: C_3  and  C_4 
REMARK    4  A    between atoms: C_10  and  O_12 
ROOT
HETATM    1  C   UNK N   1      35.195  14.238  11.896  0.00  0.00     0.053 C 
ENDROOT
BRANCH   1   2
HETATM    2  C   UNK N   1      36.120  15.331  11.343  0.00  0.00     0.084 C 
HETATM    3  C   UNK N   1      35.324  16.541  10.864  0.00  0.00     0.021 C 
BRANCH   2   4
HETATM    4  C   UNK N   1      36.917  14.731  10.211  0.00  0.00     0.143 C 
HETATM    5  O   UNK N   1      36.383  14.012   9.377  0.00  0.00    -0.650 OA
BRANCH   4   6
HETATM    6  O   UNK N   1      38.237  14.980  10.118  0.00  0.00    -0.776 OA
HETATM    7  H   UNK N   1      38.690  14.819   9.314  0.00  0.00     0.167 HD
ENDBRANCH   4   6
ENDBRANCH   2   4
ENDBRANCH   1   2
BRANCH   1   8
HETATM    8  C   UNK N   1      35.504  13.742  13.279  0.00  0.00    -0.057 A 
HETATM    9  C   UNK N   1      36.465  14.401  14.054  0.00  0.00     0.007 A 
HETATM   10  C   UNK N   1      36.813  13.903  15.315  0.00  0.00     0.001 A 
HETATM   11  C   UNK N   1      36.207  12.738  15.799  0.00  0.00     0.000 A 
HETATM   12  C   UNK N   1      35.253  12.074  15.024  0.00  0.00     0.001 A 
HETATM   13  C   UNK N   1      34.908  12.570  13.765  0.00  0.00     0.007 A 
ENDBRANCH   1   8
TORSDOF 4
ENDMDL
