REMARK  4 active torsions:
REMARK  status: ('A' for Active; 'I' for Inactive)
REMARK    1  A    between atoms: C_2  and  C_3 
REMARK    2  A    between atoms: C_2  and  C_10 
REMARK    3  A    between atoms: C_3  and  C_4 
REMARK    4  A    between atoms: C_10  and  O_12 
ROOT
HETATM    1  C   UNK N   1       0.988  -0.048  -0.563  0.00  0.00     0.053 C 
ENDROOT
BRANCH   1   2
HETATM    2  C   UNK N   1       1.138   1.101   0.444  0.00  0.00     0.084 C 
HETATM    3  C   UNK N   1      -0.053   2.053   0.381  0.00  0.00     0.021 C 
BRANCH   2   4
HETATM    4  C   UNK N   1       2.422   1.827   0.128  0.00  0.00     0.143 C 
HETATM    5  O   UNK N   1       2.415   3.009  -0.188  0.00  0.00    -0.650 OA
BRANCH   4   6
HETATM    6  O   UNK N   1       3.594   1.166   0.184  0.00  0.00    -0.776 OA
HETATM    7  H   UNK N   1       3.604   0.230   0.222  0.00  0.00     0.167 HD
ENDBRANCH   4   6
ENDBRANCH   2   4
ENDBRANCH   1   2
BRANCH   1   8
HETATM    8  C   UNK N   1      -0.249  -0.889  -0.434  0.00  0.00    -0.057 A 
HETATM    9  C   UNK N   1      -0.134  -2.251  -0.133  0.00  0.00     0.007 A 
HETATM   10  C   UNK N   1      -1.276  -3.058  -0.084  0.00  0.00     0.001 A 
HETATM   11  C   UNK N   1      -2.535  -2.507  -0.345  0.00  0.00     0.000 A 
HETATM   12  C   UNK N   1      -2.652  -1.149  -0.654  0.00  0.00     0.001 A 
HETATM   13  C   UNK N   1      -1.511  -0.344  -0.705  0.00  0.00     0.007 A 
ENDBRANCH   1   8
TORSDOF 4
