MODEL 1
REMARK VINA RESULT:      -8.0      0.000      0.000
REMARK  10 active torsions:
REMARK  status: ('A' for Active; 'I' for Inactive)
REMARK    1  A    between atoms: O_1  and  C_2 
REMARK    2  A    between atoms: C_2  and  C_4 
REMARK    3  A    between atoms: C_4  and  O_5 
REMARK    4  A    between atoms: C_4  and  C_8 
REMARK    5  A    between atoms: O_5  and  C_6 
REMARK    6  A    between atoms: C_8  and  C_9 
REMARK    7  A    between atoms: C_12  and  O_13 
REMARK    8  A    between atoms: O_13  and  C_14 
REMARK    9  A    between atoms: C_14  and  C_15 
REMARK   10  A    between atoms: C_15  and  N_16 
ROOT
HETATM    1  O   UNK N   1      26.653  18.309   3.448  0.00  0.00    -0.350 OA
ENDROOT
BRANCH   1   2
HETATM    2  C   UNK N   1      25.356  18.700   3.523  0.00  0.00     0.068 A 
HETATM    3  C   UNK N   1      24.386  17.833   4.044  0.00  0.00     0.037 A 
HETATM    4  C   UNK N   1      23.033  18.211   4.043  0.00  0.00     0.010 A 
HETATM    5  C   UNK N   1      22.649  19.459   3.530  0.00  0.00    -0.055 A 
HETATM    6  C   UNK N   1      23.629  20.325   3.042  0.00  0.00     0.010 A 
HETATM    7  C   UNK N   1      24.962  19.952   3.038  0.00  0.00     0.037 A 
BRANCH   5   8
HETATM    8  C   UNK N   1      21.193  19.851   3.510  0.00  0.00     0.081 C 
BRANCH   8   9
HETATM    9  C   UNK N   1      20.491  19.710   2.134  0.00  0.00     0.223 C 
BRANCH   9  10
HETATM   10  C   UNK N   1      20.819  20.815   1.144  0.00  0.00     0.170 C 
HETATM   11  O   UNK N   1      21.130  20.552  -0.006  0.00  0.00    -0.648 OA
BRANCH  10  12
HETATM   12  O   UNK N   1      20.777  22.102   1.542  0.00  0.00    -0.774 OA
HETATM   13  H   UNK N   1      20.476  22.889   1.131  0.00  0.00     0.167 HD
ENDBRANCH  10  12
ENDBRANCH   9  10
BRANCH   9  14
HETATM   14  O   UNK N   1      20.685  18.426   1.570  0.00  0.00    -0.375 OA
BRANCH  14  15
HETATM   15  C   UNK N   1      19.880  17.477   2.222  0.00  0.00     0.164 C 
HETATM   16  C   UNK N   1      20.512  16.108   2.088  0.00  0.00     0.033 C 
ENDBRANCH  14  15
ENDBRANCH   9  14
ENDBRANCH   8   9
ENDBRANCH   5   8
ENDBRANCH   1   2
BRANCH   1  17
HETATM   17  C   UNK N   1      27.538  18.469   4.502  0.00  0.00     0.196 C 
BRANCH  17  18
HETATM   18  C   UNK N   1      28.069  17.100   4.942  0.00  0.00     0.156 C 
BRANCH  18  19
HETATM   19  N   UNK N   1      29.327  17.218   5.658  0.00  0.00    -0.340 N 
HETATM   20  C   UNK N   1      29.346  17.521   7.054  0.00  0.00     0.069 A 
HETATM   21  C   UNK N   1      30.585  17.662   7.712  0.00  0.00     0.103 A 
HETATM   22  C   UNK N   1      28.160  17.684   7.789  0.00  0.00     0.032 A 
HETATM   23  O   UNK N   1      31.744  17.524   7.020  0.00  0.00    -0.306 OA
HETATM   24  C   UNK N   1      30.625  17.952   9.080  0.00  0.00     0.039 A 
HETATM   25  C   UNK N   1      31.773  17.263   5.691  0.00  0.00     0.103 A 
HETATM   26  C   UNK N   1      30.573  17.098   4.968  0.00  0.00     0.069 A 
HETATM   27  C   UNK N   1      33.002  17.163   5.030  0.00  0.00     0.039 A 
HETATM   28  C   UNK N   1      30.624  16.838   3.591  0.00  0.00     0.032 A 
HETATM   29  C   UNK N   1      31.855  16.740   2.939  0.00  0.00     0.002 A 
HETATM   30  C   UNK N   1      33.042  16.903   3.659  0.00  0.00     0.003 A 
HETATM   31  C   UNK N   1      29.438  18.103   9.801  0.00  0.00     0.003 A 
HETATM   32  C   UNK N   1      28.207  17.971   9.155  0.00  0.00     0.002 A 
ENDBRANCH  18  19
ENDBRANCH  17  18
ENDBRANCH   1  17
TORSDOF 10
ENDMDL
MODEL 2
REMARK VINA RESULT:      -7.9      0.224      3.264
REMARK  10 active torsions:
REMARK  status: ('A' for Active; 'I' for Inactive)
REMARK    1  A    between atoms: O_1  and  C_2 
REMARK    2  A    between atoms: C_2  and  C_4 
REMARK    3  A    between atoms: C_4  and  O_5 
REMARK    4  A    between atoms: C_4  and  C_8 
REMARK    5  A    between atoms: O_5  and  C_6 
REMARK    6  A    between atoms: C_8  and  C_9 
REMARK    7  A    between atoms: C_12  and  O_13 
REMARK    8  A    between atoms: O_13  and  C_14 
REMARK    9  A    between atoms: C_14  and  C_15 
REMARK   10  A    between atoms: C_15  and  N_16 
ROOT
HETATM    1  O   UNK N   1      26.532  18.345   3.420  0.00  0.00    -0.350 OA
ENDROOT
BRANCH   1   2
HETATM    2  C   UNK N   1      25.257  18.807   3.471  0.00  0.00     0.068 A 
HETATM    3  C   UNK N   1      24.236  18.004   3.998  0.00  0.00     0.037 A 
HETATM    4  C   UNK N   1      22.906  18.456   3.974  0.00  0.00     0.010 A 
HETATM    5  C   UNK N   1      22.596  19.712   3.432  0.00  0.00    -0.055 A 
HETATM    6  C   UNK N   1      23.627  20.513   2.939  0.00  0.00     0.010 A 
HETATM    7  C   UNK N   1      24.937  20.069   2.958  0.00  0.00     0.037 A 
BRANCH   5   8
HETATM    8  C   UNK N   1      21.164  20.182   3.387  0.00  0.00     0.081 C 
BRANCH   8   9
HETATM    9  C   UNK N   1      20.443  19.971   2.030  0.00  0.00     0.223 C 
BRANCH   9  10
HETATM   10  C   UNK N   1      20.748  21.030   0.984  0.00  0.00     0.170 C 
HETATM   11  O   UNK N   1      21.359  20.747  -0.033  0.00  0.00    -0.648 OA
BRANCH  10  12
HETATM   12  O   UNK N   1      20.349  22.302   1.185  0.00  0.00    -0.774 OA
HETATM   13  H   UNK N   1      20.093  22.778   1.951  0.00  0.00     0.167 HD
ENDBRANCH  10  12
ENDBRANCH   9  10
BRANCH   9  14
HETATM   14  O   UNK N   1      20.639  18.663   1.524  0.00  0.00    -0.375 OA
BRANCH  14  15
HETATM   15  C   UNK N   1      19.726  17.769   2.110  0.00  0.00     0.164 C 
HETATM   16  C   UNK N   1      20.336  16.384   2.142  0.00  0.00     0.033 C 
ENDBRANCH  14  15
ENDBRANCH   9  14
ENDBRANCH   8   9
ENDBRANCH   5   8
ENDBRANCH   1   2
BRANCH   1  17
HETATM   17  C   UNK N   1      27.430  18.527   4.459  0.00  0.00     0.196 C 
BRANCH  17  18
HETATM   18  C   UNK N   1      27.971  17.168   4.918  0.00  0.00     0.156 C 
BRANCH  18  19
HETATM   19  N   UNK N   1      29.236  17.303   5.619  0.00  0.00    -0.340 N 
HETATM   20  C   UNK N   1      30.474  17.136   4.927  0.00  0.00     0.069 A 
HETATM   21  C   UNK N   1      31.684  17.239   5.645  0.00  0.00     0.103 A 
HETATM   22  C   UNK N   1      30.518  16.870   3.549  0.00  0.00     0.032 A 
HETATM   23  O   UNK N   1      31.666  17.481   6.980  0.00  0.00    -0.306 OA
HETATM   24  C   UNK N   1      32.908  17.086   4.985  0.00  0.00     0.039 A 
HETATM   25  C   UNK N   1      30.515  17.620   7.681  0.00  0.00     0.103 A 
HETATM   26  C   UNK N   1      29.266  17.540   7.028  0.00  0.00     0.069 A 
HETATM   27  C   UNK N   1      30.565  17.836   9.061  0.00  0.00     0.039 A 
HETATM   28  C   UNK N   1      28.086  17.676   7.773  0.00  0.00     0.032 A 
HETATM   29  C   UNK N   1      28.145  17.892   9.151  0.00  0.00     0.002 A 
HETATM   30  C   UNK N   1      29.384  17.972   9.794  0.00  0.00     0.003 A 
HETATM   31  C   UNK N   1      32.938  16.830   3.612  0.00  0.00     0.003 A 
HETATM   32  C   UNK N   1      31.744  16.720   2.896  0.00  0.00     0.002 A 
ENDBRANCH  18  19
ENDBRANCH  17  18
ENDBRANCH   1  17
TORSDOF 10
ENDMDL
MODEL 3
REMARK VINA RESULT:      -7.9      8.896     13.939
REMARK  10 active torsions:
REMARK  status: ('A' for Active; 'I' for Inactive)
REMARK    1  A    between atoms: O_1  and  C_2 
REMARK    2  A    between atoms: C_2  and  C_4 
REMARK    3  A    between atoms: C_4  and  O_5 
REMARK    4  A    between atoms: C_4  and  C_8 
REMARK    5  A    between atoms: O_5  and  C_6 
REMARK    6  A    between atoms: C_8  and  C_9 
REMARK    7  A    between atoms: C_12  and  O_13 
REMARK    8  A    between atoms: O_13  and  C_14 
REMARK    9  A    between atoms: C_14  and  C_15 
REMARK   10  A    between atoms: C_15  and  N_16 
ROOT
HETATM    1  O   UNK N   1      36.776  13.572  12.783  0.00  0.00    -0.350 OA
ENDROOT
BRANCH   1   2
HETATM    2  C   UNK N   1      36.078  14.141  11.769  0.00  0.00     0.068 A 
HETATM    3  C   UNK N   1      35.865  15.526  11.748  0.00  0.00     0.037 A 
HETATM    4  C   UNK N   1      35.072  16.099  10.740  0.00  0.00     0.010 A 
HETATM    5  C   UNK N   1      34.499  15.291   9.747  0.00  0.00    -0.055 A 
HETATM    6  C   UNK N   1      34.745  13.917   9.763  0.00  0.00     0.010 A 
HETATM    7  C   UNK N   1      35.522  13.349  10.757  0.00  0.00     0.037 A 
BRANCH   5   8
HETATM    8  C   UNK N   1      33.630  15.907   8.680  0.00  0.00     0.081 C 
BRANCH   8   9
HETATM    9  C   UNK N   1      33.448  17.444   8.784  0.00  0.00     0.223 C 
BRANCH   9  10
HETATM   10  C   UNK N   1      34.372  18.249   7.886  0.00  0.00     0.170 C 
HETATM   11  O   UNK N   1      34.446  18.010   6.692  0.00  0.00    -0.648 OA
BRANCH  10  12
HETATM   12  O   UNK N   1      35.129  19.232   8.414  0.00  0.00    -0.774 OA
HETATM   13  H   UNK N   1      35.006  20.158   8.498  0.00  0.00     0.167 HD
ENDBRANCH  10  12
ENDBRANCH   9  10
BRANCH   9  14
HETATM   14  O   UNK N   1      32.095  17.830   8.625  0.00  0.00    -0.375 OA
BRANCH  14  15
HETATM   15  C   UNK N   1      31.334  16.755   8.135  0.00  0.00     0.164 C 
HETATM   16  C   UNK N   1      30.858  17.079   6.735  0.00  0.00     0.033 C 
ENDBRANCH  14  15
ENDBRANCH   9  14
ENDBRANCH   8   9
ENDBRANCH   5   8
ENDBRANCH   1   2
BRANCH   1  17
HETATM   17  C   UNK N   1      36.442  13.765  14.114  0.00  0.00     0.196 C 
BRANCH  17  18
HETATM   18  C   UNK N   1      35.130  13.039  14.428  0.00  0.00     0.156 C 
BRANCH  18  19
HETATM   19  N   UNK N   1      35.337  11.921  15.331  0.00  0.00    -0.340 N 
HETATM   20  C   UNK N   1      35.475  10.592  14.826  0.00  0.00     0.069 A 
HETATM   21  C   UNK N   1      35.640   9.524  15.732  0.00  0.00     0.103 A 
HETATM   22  C   UNK N   1      35.450  10.321  13.449  0.00  0.00     0.032 A 
HETATM   23  O   UNK N   1      35.654   9.760  17.069  0.00  0.00    -0.306 OA
HETATM   24  C   UNK N   1      35.784   8.216  15.258  0.00  0.00     0.039 A 
HETATM   25  C   UNK N   1      35.500  11.000  17.593  0.00  0.00     0.103 A 
HETATM   26  C   UNK N   1      35.340  12.118  16.747  0.00  0.00     0.069 A 
HETATM   27  C   UNK N   1      35.491  11.171  18.980  0.00  0.00     0.039 A 
HETATM   28  C   UNK N   1      35.172  13.392  17.309  0.00  0.00     0.032 A 
HETATM   29  C   UNK N   1      35.165  13.553  18.696  0.00  0.00     0.002 A 
HETATM   30  C   UNK N   1      35.324  12.444  19.530  0.00  0.00     0.003 A 
HETATM   31  C   UNK N   1      35.766   7.961  13.884  0.00  0.00     0.003 A 
HETATM   32  C   UNK N   1      35.596   9.013  12.981  0.00  0.00     0.002 A 
ENDBRANCH  18  19
ENDBRANCH  17  18
ENDBRANCH   1  17
TORSDOF 10
ENDMDL
MODEL 4
REMARK VINA RESULT:      -7.7      5.941     13.097
REMARK  10 active torsions:
REMARK  status: ('A' for Active; 'I' for Inactive)
REMARK    1  A    between atoms: O_1  and  C_2 
REMARK    2  A    between atoms: C_2  and  C_4 
REMARK    3  A    between atoms: C_4  and  O_5 
REMARK    4  A    between atoms: C_4  and  C_8 
REMARK    5  A    between atoms: O_5  and  C_6 
REMARK    6  A    between atoms: C_8  and  C_9 
REMARK    7  A    between atoms: C_12  and  O_13 
REMARK    8  A    between atoms: O_13  and  C_14 
REMARK    9  A    between atoms: C_14  and  C_15 
REMARK   10  A    between atoms: C_15  and  N_16 
ROOT
HETATM    1  O   UNK N   1      33.587  16.265   9.544  0.00  0.00    -0.350 OA
ENDROOT
BRANCH   1   2
HETATM    2  C   UNK N   1      34.367  15.482  10.331  0.00  0.00     0.068 A 
HETATM    3  C   UNK N   1      34.313  14.086  10.211  0.00  0.00     0.037 A 
HETATM    4  C   UNK N   1      35.061  13.278  11.083  0.00  0.00     0.010 A 
HETATM    5  C   UNK N   1      35.869  13.862  12.069  0.00  0.00    -0.055 A 
HETATM    6  C   UNK N   1      35.936  15.254  12.157  0.00  0.00     0.010 A 
HETATM    7  C   UNK N   1      35.197  16.052  11.302  0.00  0.00     0.037 A 
BRANCH   5   8
HETATM    8  C   UNK N   1      36.652  12.990  13.018  0.00  0.00     0.081 C 
BRANCH   8   9
HETATM    9  C   UNK N   1      35.971  12.729  14.388  0.00  0.00     0.223 C 
BRANCH   9  10
HETATM   10  C   UNK N   1      36.451  13.633  15.511  0.00  0.00     0.170 C 
HETATM   11  O   UNK N   1      35.820  13.725  16.552  0.00  0.00    -0.648 OA
BRANCH  10  12
HETATM   12  O   UNK N   1      37.580  14.353  15.354  0.00  0.00    -0.774 OA
HETATM   13  H   UNK N   1      38.265  14.603  15.943  0.00  0.00     0.167 HD
ENDBRANCH  10  12
ENDBRANCH   9  10
BRANCH   9  14
HETATM   14  O   UNK N   1      34.560  12.725  14.285  0.00  0.00    -0.375 OA
BRANCH  14  15
HETATM   15  C   UNK N   1      34.038  11.504  14.746  0.00  0.00     0.164 C 
HETATM   16  C   UNK N   1      33.884  10.554  13.578  0.00  0.00     0.033 C 
ENDBRANCH  14  15
ENDBRANCH   9  14
ENDBRANCH   8   9
ENDBRANCH   5   8
ENDBRANCH   1   2
BRANCH   1  17
HETATM   17  C   UNK N   1      33.897  16.529   8.220  0.00  0.00     0.196 C 
BRANCH  17  18
HETATM   18  C   UNK N   1      33.212  17.827   7.777  0.00  0.00     0.156 C 
BRANCH  18  19
HETATM   19  N   UNK N   1      31.960  17.566   7.090  0.00  0.00    -0.340 N 
HETATM   20  C   UNK N   1      31.946  17.244   5.698  0.00  0.00     0.069 A 
HETATM   21  C   UNK N   1      30.710  17.031   5.052  0.00  0.00     0.103 A 
HETATM   22  C   UNK N   1      33.132  17.136   4.955  0.00  0.00     0.032 A 
HETATM   23  O   UNK N   1      29.549  17.144   5.747  0.00  0.00    -0.306 OA
HETATM   24  C   UNK N   1      30.675  16.708   3.692  0.00  0.00     0.039 A 
HETATM   25  C   UNK N   1      29.515  17.473   7.061  0.00  0.00     0.103 A 
HETATM   26  C   UNK N   1      30.712  17.691   7.775  0.00  0.00     0.069 A 
HETATM   27  C   UNK N   1      28.284  17.605   7.710  0.00  0.00     0.039 A 
HETATM   28  C   UNK N   1      30.654  18.041   9.132  0.00  0.00     0.032 A 
HETATM   29  C   UNK N   1      29.420  18.170   9.773  0.00  0.00     0.002 A 
HETATM   30  C   UNK N   1      28.237  17.952   9.062  0.00  0.00     0.003 A 
HETATM   31  C   UNK N   1      31.863  16.595   2.965  0.00  0.00     0.003 A 
HETATM   32  C   UNK N   1      33.090  16.811   3.597  0.00  0.00     0.002 A 
ENDBRANCH  18  19
ENDBRANCH  17  18
ENDBRANCH   1  17
TORSDOF 10
ENDMDL
MODEL 5
REMARK VINA RESULT:      -7.4      8.621     13.358
REMARK  10 active torsions:
REMARK  status: ('A' for Active; 'I' for Inactive)
REMARK    1  A    between atoms: O_1  and  C_2 
REMARK    2  A    between atoms: C_2  and  C_4 
REMARK    3  A    between atoms: C_4  and  O_5 
REMARK    4  A    between atoms: C_4  and  C_8 
REMARK    5  A    between atoms: O_5  and  C_6 
REMARK    6  A    between atoms: C_8  and  C_9 
REMARK    7  A    between atoms: C_12  and  O_13 
REMARK    8  A    between atoms: O_13  and  C_14 
REMARK    9  A    between atoms: C_14  and  C_15 
REMARK   10  A    between atoms: C_15  and  N_16 
ROOT
HETATM    1  O   UNK N   1      36.715  13.731  12.480  0.00  0.00    -0.350 OA
ENDROOT
BRANCH   1   2
HETATM    2  C   UNK N   1      35.946  14.260  11.496  0.00  0.00     0.068 A 
HETATM    3  C   UNK N   1      35.520  15.593  11.571  0.00  0.00     0.037 A 
HETATM    4  C   UNK N   1      34.657  16.111  10.591  0.00  0.00     0.010 A 
HETATM    5  C   UNK N   1      34.225  15.300   9.531  0.00  0.00    -0.055 A 
HETATM    6  C   UNK N   1      34.681  13.984   9.452  0.00  0.00     0.010 A 
HETATM    7  C   UNK N   1      35.528  13.470  10.419  0.00  0.00     0.037 A 
BRANCH   5   8
HETATM    8  C   UNK N   1      33.279  15.853   8.495  0.00  0.00     0.081 C 
BRANCH   8   9
HETATM    9  C   UNK N   1      33.179  17.401   8.453  0.00  0.00     0.223 C 
BRANCH   9  10
HETATM   10  C   UNK N   1      34.354  18.089   7.779  0.00  0.00     0.170 C 
HETATM   11  O   UNK N   1      34.622  17.866   6.610  0.00  0.00    -0.648 OA
BRANCH  10  12
HETATM   12  O   UNK N   1      35.118  18.950   8.482  0.00  0.00    -0.774 OA
HETATM   13  H   UNK N   1      34.932  19.756   8.922  0.00  0.00     0.167 HD
ENDBRANCH  10  12
ENDBRANCH   9  10
BRANCH   9  14
HETATM   14  O   UNK N   1      31.941  17.837   7.922  0.00  0.00    -0.375 OA
BRANCH  14  15
HETATM   15  C   UNK N   1      31.079  18.238   8.957  0.00  0.00     0.164 C 
HETATM   16  C   UNK N   1      29.819  17.400   8.909  0.00  0.00     0.033 C 
ENDBRANCH  14  15
ENDBRANCH   9  14
ENDBRANCH   8   9
ENDBRANCH   5   8
ENDBRANCH   1   2
BRANCH   1  17
HETATM   17  C   UNK N   1      36.409  13.881  13.823  0.00  0.00     0.196 C 
BRANCH  17  18
HETATM   18  C   UNK N   1      35.061  13.217  14.123  0.00  0.00     0.156 C 
BRANCH  18  19
HETATM   19  N   UNK N   1      35.212  12.060  14.987  0.00  0.00    -0.340 N 
HETATM   20  C   UNK N   1      35.260  12.212  16.407  0.00  0.00     0.069 A 
HETATM   21  C   UNK N   1      35.443  11.071  17.216  0.00  0.00     0.103 A 
HETATM   22  C   UNK N   1      35.131  13.469  17.018  0.00  0.00     0.032 A 
HETATM   23  O   UNK N   1      35.585   9.847  16.647  0.00  0.00    -0.306 OA
HETATM   24  C   UNK N   1      35.486  11.197  18.608  0.00  0.00     0.039 A 
HETATM   25  C   UNK N   1      35.573   9.661  15.305  0.00  0.00     0.103 A 
HETATM   26  C   UNK N   1      35.384  10.754  14.433  0.00  0.00     0.069 A 
HETATM   27  C   UNK N   1      35.757   8.377  14.782  0.00  0.00     0.039 A 
HETATM   28  C   UNK N   1      35.385  10.541  13.047  0.00  0.00     0.032 A 
HETATM   29  C   UNK N   1      35.568   9.256  12.533  0.00  0.00     0.002 A 
HETATM   30  C   UNK N   1      35.754   8.176  13.400  0.00  0.00     0.003 A 
HETATM   31  C   UNK N   1      35.347  12.454  19.205  0.00  0.00     0.003 A 
HETATM   32  C   UNK N   1      35.172  13.588  18.409  0.00  0.00     0.002 A 
ENDBRANCH  18  19
ENDBRANCH  17  18
ENDBRANCH   1  17
TORSDOF 10
ENDMDL
MODEL 6
REMARK VINA RESULT:      -7.3      6.029     12.735
REMARK  10 active torsions:
REMARK  status: ('A' for Active; 'I' for Inactive)
REMARK    1  A    between atoms: O_1  and  C_2 
REMARK    2  A    between atoms: C_2  and  C_4 
REMARK    3  A    between atoms: C_4  and  O_5 
REMARK    4  A    between atoms: C_4  and  C_8 
REMARK    5  A    between atoms: O_5  and  C_6 
REMARK    6  A    between atoms: C_8  and  C_9 
REMARK    7  A    between atoms: C_12  and  O_13 
REMARK    8  A    between atoms: O_13  and  C_14 
REMARK    9  A    between atoms: C_14  and  C_15 
REMARK   10  A    between atoms: C_15  and  N_16 
ROOT
HETATM    1  O   UNK N   1      33.722  16.415   9.519  0.00  0.00    -0.350 OA
ENDROOT
BRANCH   1   2
HETATM    2  C   UNK N   1      34.465  15.584  10.293  0.00  0.00     0.068 A 
HETATM    3  C   UNK N   1      34.356  14.195  10.144  0.00  0.00     0.037 A 
HETATM    4  C   UNK N   1      35.066  13.339  11.003  0.00  0.00     0.010 A 
HETATM    5  C   UNK N   1      35.892  13.871  12.005  0.00  0.00    -0.055 A 
HETATM    6  C   UNK N   1      36.015  15.256  12.121  0.00  0.00     0.010 A 
HETATM    7  C   UNK N   1      35.313  16.101  11.279  0.00  0.00     0.037 A 
BRANCH   5   8
HETATM    8  C   UNK N   1      36.634  12.949  12.939  0.00  0.00     0.081 C 
BRANCH   8   9
HETATM    9  C   UNK N   1      35.932  12.683  14.298  0.00  0.00     0.223 C 
BRANCH   9  10
HETATM   10  C   UNK N   1      36.430  13.549  15.443  0.00  0.00     0.170 C 
HETATM   11  O   UNK N   1      35.823  13.597  16.499  0.00  0.00    -0.648 OA
BRANCH  10  12
HETATM   12  O   UNK N   1      37.551  14.283  15.287  0.00  0.00    -0.774 OA
HETATM   13  H   UNK N   1      38.415  14.074  14.989  0.00  0.00     0.167 HD
ENDBRANCH  10  12
ENDBRANCH   9  10
BRANCH   9  14
HETATM   14  O   UNK N   1      34.522  12.726  14.182  0.00  0.00    -0.375 OA
BRANCH  14  15
HETATM   15  C   UNK N   1      33.963  11.488  14.542  0.00  0.00     0.164 C 
HETATM   16  C   UNK N   1      35.015  10.408  14.409  0.00  0.00     0.033 C 
ENDBRANCH  14  15
ENDBRANCH   9  14
ENDBRANCH   8   9
ENDBRANCH   5   8
ENDBRANCH   1   2
BRANCH   1  17
HETATM   17  C   UNK N   1      34.021  16.653   8.187  0.00  0.00     0.196 C 
BRANCH  17  18
HETATM   18  C   UNK N   1      33.326  17.938   7.723  0.00  0.00     0.156 C 
BRANCH  18  19
HETATM   19  N   UNK N   1      32.072  17.657   7.048  0.00  0.00    -0.340 N 
HETATM   20  C   UNK N   1      30.830  17.754   7.747  0.00  0.00     0.069 A 
HETATM   21  C   UNK N   1      29.632  17.441   7.071  0.00  0.00     0.103 A 
HETATM   22  C   UNK N   1      30.771  18.153   9.092  0.00  0.00     0.032 A 
HETATM   23  O   UNK N   1      29.666  17.039   5.775  0.00  0.00    -0.306 OA
HETATM   24  C   UNK N   1      28.405  17.536   7.735  0.00  0.00     0.039 A 
HETATM   25  C   UNK N   1      30.822  16.908   5.082  0.00  0.00     0.103 A 
HETATM   26  C   UNK N   1      32.059  17.213   5.689  0.00  0.00     0.069 A 
HETATM   27  C   UNK N   1      30.790  16.458   3.759  0.00  0.00     0.039 A 
HETATM   28  C   UNK N   1      33.246  17.061   4.958  0.00  0.00     0.032 A 
HETATM   29  C   UNK N   1      33.204  16.612   3.636  0.00  0.00     0.002 A 
HETATM   30  C   UNK N   1      31.978  16.311   3.038  0.00  0.00     0.003 A 
HETATM   31  C   UNK N   1      28.359  17.943   9.072  0.00  0.00     0.003 A 
HETATM   32  C   UNK N   1      29.542  18.248   9.749  0.00  0.00     0.002 A 
ENDBRANCH  18  19
ENDBRANCH  17  18
ENDBRANCH   1  17
TORSDOF 10
ENDMDL
MODEL 7
REMARK VINA RESULT:      -7.3     10.720     13.260
REMARK  10 active torsions:
REMARK  status: ('A' for Active; 'I' for Inactive)
REMARK    1  A    between atoms: O_1  and  C_2 
REMARK    2  A    between atoms: C_2  and  C_4 
REMARK    3  A    between atoms: C_4  and  O_5 
REMARK    4  A    between atoms: C_4  and  C_8 
REMARK    5  A    between atoms: O_5  and  C_6 
REMARK    6  A    between atoms: C_8  and  C_9 
REMARK    7  A    between atoms: C_12  and  O_13 
REMARK    8  A    between atoms: O_13  and  C_14 
REMARK    9  A    between atoms: C_14  and  C_15 
REMARK   10  A    between atoms: C_15  and  N_16 
ROOT
HETATM    1  O   UNK N   1      25.361  24.125  -6.070  0.00  0.00    -0.350 OA
ENDROOT
BRANCH   1   2
HETATM    2  C   UNK N   1      25.628  25.320  -5.484  0.00  0.00     0.068 A 
HETATM    3  C   UNK N   1      26.118  25.368  -4.172  0.00  0.00     0.037 A 
HETATM    4  C   UNK N   1      26.315  26.609  -3.542  0.00  0.00     0.010 A 
HETATM    5  C   UNK N   1      26.031  27.800  -4.225  0.00  0.00    -0.055 A 
HETATM    6  C   UNK N   1      25.572  27.737  -5.542  0.00  0.00     0.010 A 
HETATM    7  C   UNK N   1      25.374  26.516  -6.163  0.00  0.00     0.037 A 
BRANCH   5   8
HETATM    8  C   UNK N   1      26.221  29.129  -3.537  0.00  0.00     0.081 C 
BRANCH   8   9
HETATM    9  C   UNK N   1      27.680  29.656  -3.515  0.00  0.00     0.223 C 
BRANCH   9  10
HETATM   10  C   UNK N   1      28.387  29.496  -2.179  0.00  0.00     0.170 C 
HETATM   11  O   UNK N   1      27.754  29.478  -1.136  0.00  0.00    -0.648 OA
BRANCH  10  12
HETATM   12  O   UNK N   1      29.730  29.382  -2.143  0.00  0.00    -0.774 OA
HETATM   13  H   UNK N   1      30.417  29.761  -2.656  0.00  0.00     0.167 HD
ENDBRANCH  10  12
ENDBRANCH   9  10
BRANCH   9  14
HETATM   14  O   UNK N   1      28.449  29.132  -4.581  0.00  0.00    -0.375 OA
BRANCH  14  15
HETATM   15  C   UNK N   1      28.595  30.091  -5.598  0.00  0.00     0.164 C 
HETATM   16  C   UNK N   1      28.619  29.393  -6.941  0.00  0.00     0.033 C 
ENDBRANCH  14  15
ENDBRANCH   9  14
ENDBRANCH   8   9
ENDBRANCH   5   8
ENDBRANCH   1   2
BRANCH   1  17
HETATM   17  C   UNK N   1      26.242  23.057  -6.012  0.00  0.00     0.196 C 
BRANCH  17  18
HETATM   18  C   UNK N   1      27.610  23.485  -6.552  0.00  0.00     0.156 C 
BRANCH  18  19
HETATM   19  N   UNK N   1      28.646  22.527  -6.211  0.00  0.00    -0.340 N 
HETATM   20  C   UNK N   1      28.960  21.447  -7.093  0.00  0.00     0.069 A 
HETATM   21  C   UNK N   1      29.947  20.513  -6.716  0.00  0.00     0.103 A 
HETATM   22  C   UNK N   1      28.309  21.292  -8.327  0.00  0.00     0.032 A 
HETATM   23  O   UNK N   1      30.580  20.635  -5.521  0.00  0.00    -0.306 OA
HETATM   24  C   UNK N   1      30.274  19.454  -7.568  0.00  0.00     0.039 A 
HETATM   25  C   UNK N   1      30.296  21.627  -4.643  0.00  0.00     0.103 A 
HETATM   26  C   UNK N   1      29.327  22.604  -4.956  0.00  0.00     0.069 A 
HETATM   27  C   UNK N   1      30.962  21.677  -3.415  0.00  0.00     0.039 A 
HETATM   28  C   UNK N   1      29.039  23.616  -4.029  0.00  0.00     0.032 A 
HETATM   29  C   UNK N   1      29.710  23.659  -2.805  0.00  0.00     0.002 A 
HETATM   30  C   UNK N   1      30.670  22.691  -2.499  0.00  0.00     0.003 A 
HETATM   31  C   UNK N   1      29.625  19.315  -8.798  0.00  0.00     0.003 A 
HETATM   32  C   UNK N   1      28.641  20.232  -9.175  0.00  0.00     0.002 A 
ENDBRANCH  18  19
ENDBRANCH  17  18
ENDBRANCH   1  17
TORSDOF 10
ENDMDL
MODEL 8
REMARK VINA RESULT:      -7.2     10.733     12.979
REMARK  10 active torsions:
REMARK  status: ('A' for Active; 'I' for Inactive)
REMARK    1  A    between atoms: O_1  and  C_2 
REMARK    2  A    between atoms: C_2  and  C_4 
REMARK    3  A    between atoms: C_4  and  O_5 
REMARK    4  A    between atoms: C_4  and  C_8 
REMARK    5  A    between atoms: O_5  and  C_6 
REMARK    6  A    between atoms: C_8  and  C_9 
REMARK    7  A    between atoms: C_12  and  O_13 
REMARK    8  A    between atoms: O_13  and  C_14 
REMARK    9  A    between atoms: C_14  and  C_15 
REMARK   10  A    between atoms: C_15  and  N_16 
ROOT
HETATM    1  O   UNK N   1      25.333  24.150  -6.036  0.00  0.00    -0.350 OA
ENDROOT
BRANCH   1   2
HETATM    2  C   UNK N   1      25.608  25.346  -5.457  0.00  0.00     0.068 A 
HETATM    3  C   UNK N   1      26.116  25.399  -4.152  0.00  0.00     0.037 A 
HETATM    4  C   UNK N   1      26.322  26.640  -3.528  0.00  0.00     0.010 A 
HETATM    5  C   UNK N   1      26.030  27.830  -4.211  0.00  0.00    -0.055 A 
HETATM    6  C   UNK N   1      25.554  27.763  -5.521  0.00  0.00     0.010 A 
HETATM    7  C   UNK N   1      25.346  26.541  -6.136  0.00  0.00     0.037 A 
BRANCH   5   8
HETATM    8  C   UNK N   1      26.230  29.160  -3.529  0.00  0.00     0.081 C 
BRANCH   8   9
HETATM    9  C   UNK N   1      27.698  29.662  -3.481  0.00  0.00     0.223 C 
BRANCH   9  10
HETATM   10  C   UNK N   1      28.387  29.462  -2.142  0.00  0.00     0.170 C 
HETATM   11  O   UNK N   1      27.756  29.519  -1.099  0.00  0.00    -0.648 OA
BRANCH  10  12
HETATM   12  O   UNK N   1      29.715  29.229  -2.101  0.00  0.00    -0.774 OA
HETATM   13  H   UNK N   1      30.312  28.829  -2.703  0.00  0.00     0.167 HD
ENDBRANCH  10  12
ENDBRANCH   9  10
BRANCH   9  14
HETATM   14  O   UNK N   1      28.469  29.145  -4.550  0.00  0.00    -0.375 OA
BRANCH  14  15
HETATM   15  C   UNK N   1      28.582  30.097  -5.578  0.00  0.00     0.164 C 
HETATM   16  C   UNK N   1      28.563  29.391  -6.916  0.00  0.00     0.033 C 
ENDBRANCH  14  15
ENDBRANCH   9  14
ENDBRANCH   8   9
ENDBRANCH   5   8
ENDBRANCH   1   2
BRANCH   1  17
HETATM   17  C   UNK N   1      26.209  23.078  -5.977  0.00  0.00     0.196 C 
BRANCH  17  18
HETATM   18  C   UNK N   1      27.592  23.512  -6.473  0.00  0.00     0.156 C 
BRANCH  18  19
HETATM   19  N   UNK N   1      28.608  22.520  -6.168  0.00  0.00    -0.340 N 
HETATM   20  C   UNK N   1      29.355  22.593  -4.952  0.00  0.00     0.069 A 
HETATM   21  C   UNK N   1      30.358  21.634  -4.701  0.00  0.00     0.103 A 
HETATM   22  C   UNK N   1      29.115  23.596  -3.999  0.00  0.00     0.032 A 
HETATM   23  O   UNK N   1      30.617  20.663  -5.614  0.00  0.00    -0.306 OA
HETATM   24  C   UNK N   1      31.096  21.683  -3.514  0.00  0.00     0.039 A 
HETATM   25  C   UNK N   1      29.952  20.573  -6.791  0.00  0.00     0.103 A 
HETATM   26  C   UNK N   1      28.928  21.491  -7.106  0.00  0.00     0.069 A 
HETATM   27  C   UNK N   1      30.289  19.568  -7.703  0.00  0.00     0.039 A 
HETATM   28  C   UNK N   1      28.258  21.387  -8.334  0.00  0.00     0.032 A 
HETATM   29  C   UNK N   1      28.601  20.379  -9.238  0.00  0.00     0.002 A 
HETATM   30  C   UNK N   1      29.615  19.471  -8.922  0.00  0.00     0.003 A 
HETATM   31  C   UNK N   1      30.842  22.682  -2.570  0.00  0.00     0.003 A 
HETATM   32  C   UNK N   1      29.855  23.638  -2.814  0.00  0.00     0.002 A 
ENDBRANCH  18  19
ENDBRANCH  17  18
ENDBRANCH   1  17
TORSDOF 10
ENDMDL
MODEL 9
REMARK VINA RESULT:      -7.1      2.325      3.804
REMARK  10 active torsions:
REMARK  status: ('A' for Active; 'I' for Inactive)
REMARK    1  A    between atoms: O_1  and  C_2 
REMARK    2  A    between atoms: C_2  and  C_4 
REMARK    3  A    between atoms: C_4  and  O_5 
REMARK    4  A    between atoms: C_4  and  C_8 
REMARK    5  A    between atoms: O_5  and  C_6 
REMARK    6  A    between atoms: C_8  and  C_9 
REMARK    7  A    between atoms: C_12  and  O_13 
REMARK    8  A    between atoms: O_13  and  C_14 
REMARK    9  A    between atoms: C_14  and  C_15 
REMARK   10  A    between atoms: C_15  and  N_16 
ROOT
HETATM    1  O   UNK N   1      27.565  15.947   2.705  0.00  0.00    -0.350 OA
ENDROOT
BRANCH   1   2
HETATM    2  C   UNK N   1      26.222  15.796   2.822  0.00  0.00     0.068 A 
HETATM    3  C   UNK N   1      25.547  14.846   2.044  0.00  0.00     0.037 A 
HETATM    4  C   UNK N   1      24.147  14.751   2.109  0.00  0.00     0.010 A 
HETATM    5  C   UNK N   1      23.421  15.599   2.959  0.00  0.00    -0.055 A 
HETATM    6  C   UNK N   1      24.109  16.520   3.751  0.00  0.00     0.010 A 
HETATM    7  C   UNK N   1      25.488  16.618   3.685  0.00  0.00     0.037 A 
BRANCH   5   8
HETATM    8  C   UNK N   1      21.917  15.510   3.008  0.00  0.00     0.081 C 
BRANCH   8   9
HETATM    9  C   UNK N   1      21.167  16.836   2.713  0.00  0.00     0.223 C 
BRANCH   9  10
HETATM   10  C   UNK N   1      20.306  16.807   1.461  0.00  0.00     0.170 C 
HETATM   11  O   UNK N   1      20.629  16.134   0.496  0.00  0.00    -0.648 OA
BRANCH  10  12
HETATM   12  O   UNK N   1      19.177  17.542   1.410  0.00  0.00    -0.774 OA
HETATM   13  H   UNK N   1      18.532  17.675   0.743  0.00  0.00     0.167 HD
ENDBRANCH  10  12
ENDBRANCH   9  10
BRANCH   9  14
HETATM   14  O   UNK N   1      20.441  17.295   3.838  0.00  0.00    -0.375 OA
BRANCH  14  15
HETATM   15  C   UNK N   1      21.045  18.444   4.377  0.00  0.00     0.164 C 
HETATM   16  C   UNK N   1      21.461  18.166   5.805  0.00  0.00     0.033 C 
ENDBRANCH  14  15
ENDBRANCH   9  14
ENDBRANCH   8   9
ENDBRANCH   5   8
ENDBRANCH   1   2
BRANCH   1  17
HETATM   17  C   UNK N   1      28.426  15.789   3.779  0.00  0.00     0.196 C 
BRANCH  17  18
HETATM   18  C   UNK N   1      29.292  17.043   3.937  0.00  0.00     0.156 C 
BRANCH  18  19
HETATM   19  N   UNK N   1      29.072  17.691   5.218  0.00  0.00    -0.340 N 
HETATM   20  C   UNK N   1      28.175  18.796   5.331  0.00  0.00     0.069 A 
HETATM   21  C   UNK N   1      28.010  19.425   6.583  0.00  0.00     0.103 A 
HETATM   22  C   UNK N   1      27.452  19.274   4.226  0.00  0.00     0.032 A 
HETATM   23  O   UNK N   1      28.709  18.989   7.662  0.00  0.00    -0.306 OA
HETATM   24  C   UNK N   1      27.131  20.504   6.717  0.00  0.00     0.039 A 
HETATM   25  C   UNK N   1      29.590  17.962   7.594  0.00  0.00     0.103 A 
HETATM   26  C   UNK N   1      29.799  17.278   6.377  0.00  0.00     0.069 A 
HETATM   27  C   UNK N   1      30.302  17.583   8.735  0.00  0.00     0.039 A 
HETATM   28  C   UNK N   1      30.723  16.225   6.325  0.00  0.00     0.032 A 
HETATM   29  C   UNK N   1      31.430  15.852   7.471  0.00  0.00     0.002 A 
HETATM   30  C   UNK N   1      31.219  16.531   8.674  0.00  0.00     0.003 A 
HETATM   31  C   UNK N   1      26.411  20.965   5.612  0.00  0.00     0.003 A 
HETATM   32  C   UNK N   1      26.574  20.352   4.367  0.00  0.00     0.002 A 
ENDBRANCH  18  19
ENDBRANCH  17  18
ENDBRANCH   1  17
TORSDOF 10
ENDMDL
