MODEL 1
REMARK VINA RESULT:      -7.4      0.000      0.000
REMARK  9 active torsions:
REMARK  status: ('A' for Active; 'I' for Inactive)
REMARK    1  A    between atoms: C_12  and  C_11 
REMARK    2  A    between atoms: C_20  and  N_21 
REMARK    3  A    between atoms: O_22  and  N_21 
REMARK    4  A    between atoms: O_22  and  C_23 
REMARK    5  A    between atoms: C_23  and  C_24 
REMARK    6  A    between atoms: C_25  and  C_24 
REMARK    7  A    between atoms: C_25  and  O_26 
REMARK    8  A    between atoms: C_27  and  C_25 
REMARK    9  A    between atoms: O_28  and  C_27 
ROOT
HETATM    1  C   UNK N   1      36.617  13.150  12.798  0.00  0.00     0.079 A 
HETATM    2  N   UNK N   1      37.593  12.280  12.427  0.00  0.00    -0.353 N 
HETATM    3  C   UNK N   1      37.943  12.622  11.172  0.00  0.00     0.045 A 
HETATM    4  C   UNK N   1      38.905  12.007  10.374  0.00  0.00     0.030 A 
HETATM    5  C   UNK N   1      39.115  12.527   9.084  0.00  0.00     0.002 A 
HETATM    6  C   UNK N   1      38.368  13.639   8.629  0.00  0.00     0.001 A 
HETATM    7  C   UNK N   1      37.406  14.237   9.463  0.00  0.00     0.016 A 
HETATM    8  C   UNK N   1      37.223  13.695  10.732  0.00  0.00     0.021 A 
HETATM    9  C   UNK N   1      36.373  14.048  11.745  0.00  0.00     0.094 A 
HETATM   10  H   UNK N   1      37.969  11.547  12.966  0.00  0.00     0.166 HD
ENDROOT
BRANCH   1  11
HETATM   11  C   UNK N   1      35.994  13.060  14.151  0.00  0.00     0.073 A 
HETATM   12  C   UNK N   1      34.929  12.122  14.530  0.00  0.00     0.259 A 
HETATM   13  O   UNK N   1      34.413  11.272  13.820  0.00  0.00    -0.267 OA
HETATM   14  N   UNK N   1      34.594  12.325  15.815  0.00  0.00    -0.322 N 
HETATM   15  C   UNK N   1      35.332  13.276  16.249  0.00  0.00     0.046 A 
ATOM     16  HN  UNK N   1      33.885  11.818  16.344  1.00  0.00     0.169 HD
HETATM   17  C   UNK N   1      35.297  13.810  17.533  0.00  0.00     0.030 A 
HETATM   18  C   UNK N   1      36.203  13.752  15.275  0.00  0.00     0.009 A 
HETATM   19  C   UNK N   1      36.177  14.865  17.829  0.00  0.00     0.002 A 
HETATM   20  C   UNK N   1      37.064  15.354  16.847  0.00  0.00     0.001 A 
HETATM   21  C   UNK N   1      37.080  14.794  15.558  0.00  0.00     0.015 A 
ENDBRANCH   1  11
BRANCH   9  22
HETATM   22  N   UNK N   1      35.476  15.141  11.678  0.00  0.00    -0.264 N 
HETATM   23  H   UNK N   1      35.825  16.057  11.764  0.00  0.00     0.194 HD
BRANCH  22  24
HETATM   24  O   UNK N   1      34.159  14.951  11.500  0.00  0.00    -0.280 OA
BRANCH  24  25
HETATM   25  C   UNK N   1      33.972  14.832  10.113  0.00  0.00     0.204 C 
BRANCH  25  26
HETATM   26  C   UNK N   1      33.617  16.161   9.431  0.00  0.00     0.062 C 
BRANCH  26  27
HETATM   27  C   UNK N   1      34.811  17.035   9.044  0.00  0.00     0.143 C 
BRANCH  27  28
HETATM   28  O   UNK N   1      35.465  17.512  10.182  0.00  0.00    -0.393 OA
HETATM   29  H   UNK N   1      36.364  17.696  10.498  0.00  0.00     0.210 HD
ENDBRANCH  27  28
BRANCH  27  30
HETATM   30  C   UNK N   1      34.348  18.210   8.195  0.00  0.00     0.195 C 
BRANCH  30  31
HETATM   31  O   UNK N   1      35.161  19.327   8.409  0.00  0.00    -0.398 OA
HETATM   32  H   UNK N   1      35.912  19.624   8.946  0.00  0.00     0.209 HD
ENDBRANCH  30  31
ENDBRANCH  27  30
ENDBRANCH  26  27
ENDBRANCH  25  26
ENDBRANCH  24  25
ENDBRANCH  22  24
ENDBRANCH   9  22
TORSDOF 9
ENDMDL
MODEL 2
REMARK VINA RESULT:      -7.3     14.524     16.897
REMARK  9 active torsions:
REMARK  status: ('A' for Active; 'I' for Inactive)
REMARK    1  A    between atoms: C_12  and  C_11 
REMARK    2  A    between atoms: C_20  and  N_21 
REMARK    3  A    between atoms: O_22  and  N_21 
REMARK    4  A    between atoms: O_22  and  C_23 
REMARK    5  A    between atoms: C_23  and  C_24 
REMARK    6  A    between atoms: C_25  and  C_24 
REMARK    7  A    between atoms: C_25  and  O_26 
REMARK    8  A    between atoms: C_27  and  C_25 
REMARK    9  A    between atoms: O_28  and  C_27 
ROOT
HETATM    1  C   UNK N   1      23.021  17.985   5.158  0.00  0.00     0.079 A 
HETATM    2  N   UNK N   1      24.361  17.911   5.372  0.00  0.00    -0.353 N 
HETATM    3  C   UNK N   1      24.926  18.804   4.537  0.00  0.00     0.045 A 
HETATM    4  C   UNK N   1      26.284  19.078   4.397  0.00  0.00     0.030 A 
HETATM    5  C   UNK N   1      26.661  20.056   3.458  0.00  0.00     0.002 A 
HETATM    6  C   UNK N   1      25.681  20.731   2.694  0.00  0.00     0.001 A 
HETATM    7  C   UNK N   1      24.317  20.432   2.863  0.00  0.00     0.016 A 
HETATM    8  C   UNK N   1      23.980  19.456   3.799  0.00  0.00     0.021 A 
HETATM    9  C   UNK N   1      22.764  18.953   4.173  0.00  0.00     0.094 A 
HETATM   10  H   UNK N   1      24.827  17.322   6.010  0.00  0.00     0.166 HD
ENDROOT
BRANCH   1  11
HETATM   11  C   UNK N   1      22.080  17.121   5.929  0.00  0.00     0.073 A 
HETATM   12  C   UNK N   1      21.079  17.608   6.888  0.00  0.00     0.259 A 
HETATM   13  O   UNK N   1      20.849  18.770   7.182  0.00  0.00    -0.267 OA
HETATM   14  N   UNK N   1      20.418  16.561   7.409  0.00  0.00    -0.322 N 
HETATM   15  C   UNK N   1      20.907  15.505   6.876  0.00  0.00     0.046 A 
ATOM     16  HN  UNK N   1      19.668  16.600   8.100  1.00  0.00     0.169 HD
HETATM   17  C   UNK N   1      20.513  14.199   7.151  0.00  0.00     0.030 A 
HETATM   18  C   UNK N   1      21.918  15.795   5.966  0.00  0.00     0.009 A 
HETATM   19  C   UNK N   1      21.174  13.158   6.477  0.00  0.00     0.002 A 
HETATM   20  C   UNK N   1      22.200  13.444   5.551  0.00  0.00     0.001 A 
HETATM   21  C   UNK N   1      22.577  14.774   5.291  0.00  0.00     0.015 A 
ENDBRANCH   1  11
BRANCH   9  22
HETATM   22  N   UNK N   1      21.529  19.401   3.645  0.00  0.00    -0.264 N 
HETATM   23  H   UNK N   1      20.923  19.927   4.214  0.00  0.00     0.194 HD
BRANCH  22  24
HETATM   24  O   UNK N   1      21.168  19.120   2.383  0.00  0.00    -0.280 OA
BRANCH  24  25
HETATM   25  C   UNK N   1      20.010  18.333   2.481  0.00  0.00     0.204 C 
BRANCH  25  26
HETATM   26  C   UNK N   1      20.243  16.859   2.118  0.00  0.00     0.062 C 
BRANCH  26  27
HETATM   27  C   UNK N   1      20.263  16.553   0.620  0.00  0.00     0.143 C 
BRANCH  27  28
HETATM   28  O   UNK N   1      20.316  17.732  -0.127  0.00  0.00    -0.393 OA
HETATM   29  H   UNK N   1      20.261  18.691  -0.001  0.00  0.00     0.210 HD
ENDBRANCH  27  28
BRANCH  27  30
HETATM   30  C   UNK N   1      19.022  15.761   0.229  0.00  0.00     0.195 C 
BRANCH  30  31
HETATM   31  O   UNK N   1      17.969  16.620  -0.097  0.00  0.00    -0.398 OA
HETATM   32  H   UNK N   1      17.460  17.363   0.263  0.00  0.00     0.209 HD
ENDBRANCH  30  31
ENDBRANCH  27  30
ENDBRANCH  26  27
ENDBRANCH  25  26
ENDBRANCH  24  25
ENDBRANCH  22  24
ENDBRANCH   9  22
TORSDOF 9
ENDMDL
MODEL 3
REMARK VINA RESULT:      -7.3      5.817     10.052
REMARK  9 active torsions:
REMARK  status: ('A' for Active; 'I' for Inactive)
REMARK    1  A    between atoms: C_12  and  C_11 
REMARK    2  A    between atoms: C_20  and  N_21 
REMARK    3  A    between atoms: O_22  and  N_21 
REMARK    4  A    between atoms: O_22  and  C_23 
REMARK    5  A    between atoms: C_23  and  C_24 
REMARK    6  A    between atoms: C_25  and  C_24 
REMARK    7  A    between atoms: C_25  and  O_26 
REMARK    8  A    between atoms: C_27  and  C_25 
REMARK    9  A    between atoms: O_28  and  C_27 
ROOT
HETATM    1  C   UNK N   1      29.466  16.765   6.526  0.00  0.00     0.079 A 
HETATM    2  N   UNK N   1      28.910  15.784   5.767  0.00  0.00    -0.353 N 
HETATM    3  C   UNK N   1      29.884  14.880   5.549  0.00  0.00     0.045 A 
HETATM    4  C   UNK N   1      29.783  13.701   4.814  0.00  0.00     0.030 A 
HETATM    5  C   UNK N   1      30.931  12.893   4.712  0.00  0.00     0.002 A 
HETATM    6  C   UNK N   1      32.136  13.279   5.342  0.00  0.00     0.001 A 
HETATM    7  C   UNK N   1      32.202  14.474   6.079  0.00  0.00     0.016 A 
HETATM    8  C   UNK N   1      31.049  15.250   6.157  0.00  0.00     0.021 A 
HETATM    9  C   UNK N   1      30.810  16.445   6.782  0.00  0.00     0.094 A 
HETATM   10  H   UNK N   1      27.982  15.744   5.441  0.00  0.00     0.166 HD
ENDROOT
BRANCH   1  11
HETATM   11  C   UNK N   1      28.657  17.941   6.960  0.00  0.00     0.073 A 
HETATM   12  C   UNK N   1      28.286  18.245   8.348  0.00  0.00     0.259 A 
HETATM   13  O   UNK N   1      28.592  17.611   9.346  0.00  0.00    -0.267 OA
HETATM   14  N   UNK N   1      27.543  19.364   8.374  0.00  0.00    -0.322 N 
HETATM   15  C   UNK N   1      27.425  19.764   7.165  0.00  0.00     0.046 A 
ATOM     16  HN  UNK N   1      27.148  19.810   9.202  1.00  0.00     0.169 HD
HETATM   17  C   UNK N   1      26.718  20.887   6.745  0.00  0.00     0.030 A 
HETATM   18  C   UNK N   1      28.089  18.933   6.269  0.00  0.00     0.009 A 
HETATM   19  C   UNK N   1      26.686  21.167   5.369  0.00  0.00     0.002 A 
HETATM   20  C   UNK N   1      27.357  20.329   4.453  0.00  0.00     0.001 A 
HETATM   21  C   UNK N   1      28.067  19.202   4.904  0.00  0.00     0.015 A 
ENDBRANCH   1  11
BRANCH   9  22
HETATM   22  N   UNK N   1      31.776  17.140   7.548  0.00  0.00    -0.264 N 
HETATM   23  H   UNK N   1      32.136  17.992   7.212  0.00  0.00     0.194 HD
BRANCH  22  24
HETATM   24  O   UNK N   1      32.212  16.659   8.723  0.00  0.00    -0.280 OA
BRANCH  24  25
HETATM   25  C   UNK N   1      33.606  16.823   8.711  0.00  0.00     0.204 C 
BRANCH  25  26
HETATM   26  C   UNK N   1      34.375  15.521   8.978  0.00  0.00     0.062 C 
BRANCH  26  27
HETATM   27  C   UNK N   1      34.629  15.205  10.453  0.00  0.00     0.143 C 
BRANCH  27  28
HETATM   28  O   UNK N   1      33.424  15.070  11.147  0.00  0.00    -0.393 OA
HETATM   29  H   UNK N   1      32.469  15.109  10.986  0.00  0.00     0.210 HD
ENDBRANCH  27  28
BRANCH  27  30
HETATM   30  C   UNK N   1      35.460  16.310  11.091  0.00  0.00     0.195 C 
BRANCH  30  31
HETATM   31  O   UNK N   1      36.825  16.066  10.918  0.00  0.00    -0.398 OA
HETATM   32  H   UNK N   1      37.434  15.452  10.477  0.00  0.00     0.209 HD
ENDBRANCH  30  31
ENDBRANCH  27  30
ENDBRANCH  26  27
ENDBRANCH  25  26
ENDBRANCH  24  25
ENDBRANCH  22  24
ENDBRANCH   9  22
TORSDOF 9
ENDMDL
MODEL 4
REMARK VINA RESULT:      -7.3     18.134     22.648
REMARK  9 active torsions:
REMARK  status: ('A' for Active; 'I' for Inactive)
REMARK    1  A    between atoms: C_12  and  C_11 
REMARK    2  A    between atoms: C_20  and  N_21 
REMARK    3  A    between atoms: O_22  and  N_21 
REMARK    4  A    between atoms: O_22  and  C_23 
REMARK    5  A    between atoms: C_23  and  C_24 
REMARK    6  A    between atoms: C_25  and  C_24 
REMARK    7  A    between atoms: C_25  and  O_26 
REMARK    8  A    between atoms: C_27  and  C_25 
REMARK    9  A    between atoms: O_28  and  C_27 
ROOT
HETATM    1  C   UNK N   1      26.324  24.008  -6.174  0.00  0.00     0.079 A 
HETATM    2  N   UNK N   1      25.593  25.044  -6.664  0.00  0.00    -0.353 N 
HETATM    3  C   UNK N   1      25.578  25.984  -5.699  0.00  0.00     0.045 A 
HETATM    4  C   UNK N   1      24.945  27.223  -5.747  0.00  0.00     0.030 A 
HETATM    5  C   UNK N   1      25.057  28.059  -4.620  0.00  0.00     0.002 A 
HETATM    6  C   UNK N   1      25.793  27.640  -3.488  0.00  0.00     0.001 A 
HETATM    7  C   UNK N   1      26.423  26.383  -3.475  0.00  0.00     0.016 A 
HETATM    8  C   UNK N   1      26.289  25.581  -4.606  0.00  0.00     0.021 A 
HETATM    9  C   UNK N   1      26.771  24.330  -4.881  0.00  0.00     0.094 A 
HETATM   10  H   UNK N   1      25.160  25.097  -7.547  0.00  0.00     0.166 HD
ENDROOT
BRANCH   1  11
HETATM   11  C   UNK N   1      26.548  22.782  -6.994  0.00  0.00     0.073 A 
HETATM   12  C   UNK N   1      25.545  22.151  -7.861  0.00  0.00     0.259 A 
HETATM   13  O   UNK N   1      24.403  22.533  -8.062  0.00  0.00    -0.267 OA
HETATM   14  N   UNK N   1      26.078  21.060  -8.436  0.00  0.00    -0.322 N 
HETATM   15  C   UNK N   1      27.282  20.963  -8.012  0.00  0.00     0.046 A 
ATOM     16  HN  UNK N   1      25.612  20.427  -9.086  1.00  0.00     0.169 HD
HETATM   17  C   UNK N   1      28.185  19.960  -8.351  0.00  0.00     0.030 A 
HETATM   18  C   UNK N   1      27.615  21.990  -7.135  0.00  0.00     0.009 A 
HETATM   19  C   UNK N   1      29.466  20.007  -7.776  0.00  0.00     0.002 A 
HETATM   20  C   UNK N   1      29.812  21.046  -6.887  0.00  0.00     0.001 A 
HETATM   21  C   UNK N   1      28.881  22.049  -6.562  0.00  0.00     0.015 A 
ENDBRANCH   1  11
BRANCH   9  22
HETATM   22  N   UNK N   1      27.584  23.585  -3.994  0.00  0.00    -0.264 N 
HETATM   23  H   UNK N   1      27.224  22.769  -3.578  0.00  0.00     0.194 HD
BRANCH  22  24
HETATM   24  O   UNK N   1      28.837  23.971  -3.707  0.00  0.00    -0.280 OA
BRANCH  24  25
HETATM   25  C   UNK N   1      29.226  23.216  -2.589  0.00  0.00     0.204 C 
BRANCH  25  26
HETATM   26  C   UNK N   1      30.258  22.129  -2.918  0.00  0.00     0.062 C 
BRANCH  26  27
HETATM   27  C   UNK N   1      31.640  22.644  -3.327  0.00  0.00     0.143 C 
BRANCH  27  28
HETATM   28  O   UNK N   1      31.609  23.174  -4.619  0.00  0.00    -0.393 OA
HETATM   29  H   UNK N   1      31.443  22.891  -5.532  0.00  0.00     0.210 HD
ENDBRANCH  27  28
BRANCH  27  30
HETATM   30  C   UNK N   1      32.660  21.515  -3.266  0.00  0.00     0.195 C 
BRANCH  30  31
HETATM   31  O   UNK N   1      32.825  21.068  -1.952  0.00  0.00    -0.398 OA
HETATM   32  H   UNK N   1      32.861  20.252  -1.430  0.00  0.00     0.209 HD
ENDBRANCH  30  31
ENDBRANCH  27  30
ENDBRANCH  26  27
ENDBRANCH  25  26
ENDBRANCH  24  25
ENDBRANCH  22  24
ENDBRANCH   9  22
TORSDOF 9
ENDMDL
MODEL 5
REMARK VINA RESULT:      -7.1     14.723     17.246
REMARK  9 active torsions:
REMARK  status: ('A' for Active; 'I' for Inactive)
REMARK    1  A    between atoms: C_12  and  C_11 
REMARK    2  A    between atoms: C_20  and  N_21 
REMARK    3  A    between atoms: O_22  and  N_21 
REMARK    4  A    between atoms: O_22  and  C_23 
REMARK    5  A    between atoms: C_23  and  C_24 
REMARK    6  A    between atoms: C_25  and  C_24 
REMARK    7  A    between atoms: C_25  and  O_26 
REMARK    8  A    between atoms: C_27  and  C_25 
REMARK    9  A    between atoms: O_28  and  C_27 
ROOT
HETATM    1  C   UNK N   1      22.064  17.617   5.505  0.00  0.00     0.079 A 
HETATM    2  N   UNK N   1      21.231  17.968   6.520  0.00  0.00    -0.353 N 
HETATM    3  C   UNK N   1      20.996  16.842   7.221  0.00  0.00     0.045 A 
HETATM    4  C   UNK N   1      20.192  16.712   8.350  0.00  0.00     0.030 A 
HETATM    5  C   UNK N   1      20.083  15.434   8.932  0.00  0.00     0.002 A 
HETATM    6  C   UNK N   1      20.776  14.334   8.377  0.00  0.00     0.001 A 
HETATM    7  C   UNK N   1      21.582  14.503   7.237  0.00  0.00     0.016 A 
HETATM    8  C   UNK N   1      21.664  15.779   6.686  0.00  0.00     0.021 A 
HETATM    9  C   UNK N   1      22.348  16.243   5.595  0.00  0.00     0.094 A 
HETATM   10  H   UNK N   1      20.871  18.866   6.706  0.00  0.00     0.166 HD
ENDROOT
BRANCH   1  11
HETATM   11  C   UNK N   1      22.536  18.635   4.522  0.00  0.00     0.073 A 
HETATM   12  C   UNK N   1      21.666  19.427   3.642  0.00  0.00     0.259 A 
HETATM   13  O   UNK N   1      20.447  19.393   3.592  0.00  0.00    -0.267 OA
HETATM   14  N   UNK N   1      22.422  20.232   2.877  0.00  0.00    -0.322 N 
HETATM   15  C   UNK N   1      23.642  20.013   3.195  0.00  0.00     0.046 A 
ATOM     16  HN  UNK N   1      22.087  20.891   2.175  1.00  0.00     0.169 HD
HETATM   17  C   UNK N   1      24.753  20.632   2.629  0.00  0.00     0.030 A 
HETATM   18  C   UNK N   1      23.762  19.054   4.195  0.00  0.00     0.009 A 
HETATM   19  C   UNK N   1      26.024  20.256   3.096  0.00  0.00     0.002 A 
HETATM   20  C   UNK N   1      26.154  19.284   4.111  0.00  0.00     0.001 A 
HETATM   21  C   UNK N   1      25.014  18.676   4.667  0.00  0.00     0.015 A 
ENDBRANCH   1  11
BRANCH   9  22
HETATM   22  N   UNK N   1      23.185  15.438   4.787  0.00  0.00    -0.264 N 
HETATM   23  H   UNK N   1      23.868  14.872   5.214  0.00  0.00     0.194 HD
BRANCH  22  24
HETATM   24  O   UNK N   1      23.067  15.433   3.450  0.00  0.00    -0.280 OA
BRANCH  24  25
HETATM   25  C   UNK N   1      21.944  14.640   3.167  0.00  0.00     0.204 C 
BRANCH  25  26
HETATM   26  C   UNK N   1      21.246  15.019   1.854  0.00  0.00     0.062 C 
BRANCH  26  27
HETATM   27  C   UNK N   1      20.584  16.398   1.841  0.00  0.00     0.143 C 
BRANCH  27  28
HETATM   28  O   UNK N   1      19.683  16.525   2.900  0.00  0.00    -0.393 OA
HETATM   29  H   UNK N   1      19.099  15.976   3.446  0.00  0.00     0.210 HD
ENDBRANCH  27  28
BRANCH  27  30
HETATM   30  C   UNK N   1      19.854  16.618   0.524  0.00  0.00     0.195 C 
BRANCH  30  31
HETATM   31  O   UNK N   1      20.309  17.779  -0.108  0.00  0.00    -0.398 OA
HETATM   32  H   UNK N   1      21.101  18.334  -0.191  0.00  0.00     0.209 HD
ENDBRANCH  30  31
ENDBRANCH  27  30
ENDBRANCH  26  27
ENDBRANCH  25  26
ENDBRANCH  24  25
ENDBRANCH  22  24
ENDBRANCH   9  22
TORSDOF 9
ENDMDL
MODEL 6
REMARK VINA RESULT:      -7.0     18.771     22.821
REMARK  9 active torsions:
REMARK  status: ('A' for Active; 'I' for Inactive)
REMARK    1  A    between atoms: C_12  and  C_11 
REMARK    2  A    between atoms: C_20  and  N_21 
REMARK    3  A    between atoms: O_22  and  N_21 
REMARK    4  A    between atoms: O_22  and  C_23 
REMARK    5  A    between atoms: C_23  and  C_24 
REMARK    6  A    between atoms: C_25  and  C_24 
REMARK    7  A    between atoms: C_25  and  O_26 
REMARK    8  A    between atoms: C_27  and  C_25 
REMARK    9  A    between atoms: O_28  and  C_27 
ROOT
HETATM    1  C   UNK N   1      26.852  24.517  -6.012  0.00  0.00     0.079 A 
HETATM    2  N   UNK N   1      25.665  23.870  -6.152  0.00  0.00    -0.353 N 
HETATM    3  C   UNK N   1      25.913  22.789  -6.916  0.00  0.00     0.045 A 
HETATM    4  C   UNK N   1      24.995  21.828  -7.331  0.00  0.00     0.030 A 
HETATM    5  C   UNK N   1      25.470  20.772  -8.131  0.00  0.00     0.002 A 
HETATM    6  C   UNK N   1      26.836  20.702  -8.489  0.00  0.00     0.001 A 
HETATM    7  C   UNK N   1      27.737  21.689  -8.049  0.00  0.00     0.016 A 
HETATM    8  C   UNK N   1      27.232  22.721  -7.262  0.00  0.00     0.021 A 
HETATM    9  C   UNK N   1      27.849  23.807  -6.702  0.00  0.00     0.094 A 
HETATM   10  H   UNK N   1      24.796  24.138  -5.772  0.00  0.00     0.166 HD
ENDROOT
BRANCH   1  11
HETATM   11  C   UNK N   1      26.942  25.773  -5.212  0.00  0.00     0.073 A 
HETATM   12  C   UNK N   1      26.629  25.888  -3.781  0.00  0.00     0.259 A 
HETATM   13  O   UNK N   1      26.275  24.990  -3.033  0.00  0.00    -0.267 OA
HETATM   14  N   UNK N   1      26.802  27.161  -3.389  0.00  0.00    -0.322 N 
HETATM   15  C   UNK N   1      27.180  27.822  -4.418  0.00  0.00     0.046 A 
ATOM     16  HN  UNK N   1      26.659  27.531  -2.450  1.00  0.00     0.169 HD
HETATM   17  C   UNK N   1      27.456  29.185  -4.451  0.00  0.00     0.030 A 
HETATM   18  C   UNK N   1      27.284  27.020  -5.549  0.00  0.00     0.009 A 
HETATM   19  C   UNK N   1      27.848  29.746  -5.679  0.00  0.00     0.002 A 
HETATM   20  C   UNK N   1      27.957  28.940  -6.831  0.00  0.00     0.001 A 
HETATM   21  C   UNK N   1      27.674  27.564  -6.769  0.00  0.00     0.015 A 
ENDBRANCH   1  11
BRANCH   9  22
HETATM   22  N   UNK N   1      29.234  24.073  -6.815  0.00  0.00    -0.264 N 
HETATM   23  H   UNK N   1      29.629  24.204  -7.707  0.00  0.00     0.194 HD
BRANCH  22  24
HETATM   24  O   UNK N   1      30.020  24.147  -5.729  0.00  0.00    -0.280 OA
BRANCH  24  25
HETATM   25  C   UNK N   1      30.792  22.974  -5.734  0.00  0.00     0.204 C 
BRANCH  25  26
HETATM   26  C   UNK N   1      30.177  21.837  -4.907  0.00  0.00     0.062 C 
BRANCH  26  27
HETATM   27  C   UNK N   1      29.765  22.215  -3.483  0.00  0.00     0.143 C 
BRANCH  27  28
HETATM   28  O   UNK N   1      28.816  23.240  -3.498  0.00  0.00    -0.393 OA
HETATM   29  H   UNK N   1      28.287  23.751  -4.130  0.00  0.00     0.210 HD
ENDBRANCH  27  28
BRANCH  27  30
HETATM   30  C   UNK N   1      30.982  22.662  -2.685  0.00  0.00     0.195 C 
BRANCH  30  31
HETATM   31  O   UNK N   1      30.617  23.023  -1.385  0.00  0.00    -0.398 OA
HETATM   32  H   UNK N   1      30.018  22.762  -0.668  0.00  0.00     0.209 HD
ENDBRANCH  30  31
ENDBRANCH  27  30
ENDBRANCH  26  27
ENDBRANCH  25  26
ENDBRANCH  24  25
ENDBRANCH  22  24
ENDBRANCH   9  22
TORSDOF 9
ENDMDL
MODEL 7
REMARK VINA RESULT:      -7.0     18.633     22.173
REMARK  9 active torsions:
REMARK  status: ('A' for Active; 'I' for Inactive)
REMARK    1  A    between atoms: C_12  and  C_11 
REMARK    2  A    between atoms: C_20  and  N_21 
REMARK    3  A    between atoms: O_22  and  N_21 
REMARK    4  A    between atoms: O_22  and  C_23 
REMARK    5  A    between atoms: C_23  and  C_24 
REMARK    6  A    between atoms: C_25  and  C_24 
REMARK    7  A    between atoms: C_25  and  O_26 
REMARK    8  A    between atoms: C_27  and  C_25 
REMARK    9  A    between atoms: O_28  and  C_27 
ROOT
HETATM    1  C   UNK N   1      28.666  24.667  -4.040  0.00  0.00     0.079 A 
HETATM    2  N   UNK N   1      29.273  25.875  -3.903  0.00  0.00    -0.353 N 
HETATM    3  C   UNK N   1      28.299  26.799  -4.003  0.00  0.00     0.045 A 
HETATM    4  C   UNK N   1      28.446  28.182  -3.930  0.00  0.00     0.030 A 
HETATM    5  C   UNK N   1      27.288  28.971  -4.060  0.00  0.00     0.002 A 
HETATM    6  C   UNK N   1      26.026  28.364  -4.254  0.00  0.00     0.001 A 
HETATM    7  C   UNK N   1      25.914  26.963  -4.320  0.00  0.00     0.016 A 
HETATM    8  C   UNK N   1      27.080  26.214  -4.191  0.00  0.00     0.021 A 
HETATM    9  C   UNK N   1      27.286  24.861  -4.220  0.00  0.00     0.094 A 
HETATM   10  H   UNK N   1      30.234  26.041  -3.761  0.00  0.00     0.166 HD
ENDROOT
BRANCH   1  11
HETATM   11  C   UNK N   1      29.461  23.405  -3.977  0.00  0.00     0.073 A 
HETATM   12  C   UNK N   1      30.207  22.935  -2.803  0.00  0.00     0.259 A 
HETATM   13  O   UNK N   1      30.276  23.477  -1.711  0.00  0.00    -0.267 OA
HETATM   14  N   UNK N   1      30.819  21.777  -3.101  0.00  0.00    -0.322 N 
HETATM   15  C   UNK N   1      30.528  21.500  -4.316  0.00  0.00     0.046 A 
ATOM     16  HN  UNK N   1      31.406  21.222  -2.477  1.00  0.00     0.169 HD
HETATM   17  C   UNK N   1      30.972  20.388  -5.025  0.00  0.00     0.030 A 
HETATM   18  C   UNK N   1      29.701  22.459  -4.890  0.00  0.00     0.009 A 
HETATM   19  C   UNK N   1      30.560  20.254  -6.362  0.00  0.00     0.002 A 
HETATM   20  C   UNK N   1      29.720  21.222  -6.951  0.00  0.00     0.001 A 
HETATM   21  C   UNK N   1      29.284  22.335  -6.211  0.00  0.00     0.015 A 
ENDBRANCH   1  11
BRANCH   9  22
HETATM   22  N   UNK N   1      26.250  23.909  -4.371  0.00  0.00    -0.264 N 
HETATM   23  H   UNK N   1      26.112  23.231  -3.672  0.00  0.00     0.194 HD
BRANCH  22  24
HETATM   24  O   UNK N   1      25.454  23.912  -5.452  0.00  0.00    -0.280 OA
BRANCH  24  25
HETATM   25  C   UNK N   1      26.244  23.436  -6.511  0.00  0.00     0.204 C 
BRANCH  25  26
HETATM   26  C   UNK N   1      25.474  23.307  -7.833  0.00  0.00     0.062 C 
BRANCH  26  27
HETATM   27  C   UNK N   1      24.695  22.003  -8.009  0.00  0.00     0.143 C 
BRANCH  27  28
HETATM   28  O   UNK N   1      24.267  21.511  -6.774  0.00  0.00    -0.393 OA
HETATM   29  H   UNK N   1      24.082  21.825  -5.876  0.00  0.00     0.210 HD
ENDBRANCH  27  28
BRANCH  27  30
HETATM   30  C   UNK N   1      25.565  20.960  -8.697  0.00  0.00     0.195 C 
BRANCH  30  31
HETATM   31  O   UNK N   1      25.214  20.832 -10.044  0.00  0.00    -0.398 OA
HETATM   32  H   UNK N   1      24.777  21.318 -10.761  0.00  0.00     0.209 HD
ENDBRANCH  30  31
ENDBRANCH  27  30
ENDBRANCH  26  27
ENDBRANCH  25  26
ENDBRANCH  24  25
ENDBRANCH  22  24
ENDBRANCH   9  22
TORSDOF 9
ENDMDL
MODEL 8
REMARK VINA RESULT:      -6.9     18.378     23.298
REMARK  9 active torsions:
REMARK  status: ('A' for Active; 'I' for Inactive)
REMARK    1  A    between atoms: C_12  and  C_11 
REMARK    2  A    between atoms: C_20  and  N_21 
REMARK    3  A    between atoms: O_22  and  N_21 
REMARK    4  A    between atoms: O_22  and  C_23 
REMARK    5  A    between atoms: C_23  and  C_24 
REMARK    6  A    between atoms: C_25  and  C_24 
REMARK    7  A    between atoms: C_25  and  O_26 
REMARK    8  A    between atoms: C_27  and  C_25 
REMARK    9  A    between atoms: O_28  and  C_27 
ROOT
HETATM    1  C   UNK N   1      26.862  26.992  -4.861  0.00  0.00     0.079 A 
HETATM    2  N   UNK N   1      26.051  28.057  -4.625  0.00  0.00    -0.353 N 
HETATM    3  C   UNK N   1      26.803  28.965  -3.974  0.00  0.00     0.045 A 
HETATM    4  C   UNK N   1      26.398  30.217  -3.520  0.00  0.00     0.030 A 
HETATM    5  C   UNK N   1      27.351  31.014  -2.859  0.00  0.00     0.002 A 
HETATM    6  C   UNK N   1      28.672  30.545  -2.674  0.00  0.00     0.001 A 
HETATM    7  C   UNK N   1      29.049  29.276  -3.149  0.00  0.00     0.016 A 
HETATM    8  C   UNK N   1      28.079  28.513  -3.795  0.00  0.00     0.021 A 
HETATM    9  C   UNK N   1      28.142  27.262  -4.347  0.00  0.00     0.094 A 
HETATM   10  H   UNK N   1      25.104  28.146  -4.878  0.00  0.00     0.166 HD
ENDROOT
BRANCH   1  11
HETATM   11  C   UNK N   1      26.346  25.788  -5.576  0.00  0.00     0.073 A 
HETATM   12  C   UNK N   1      25.998  24.511  -4.940  0.00  0.00     0.259 A 
HETATM   13  O   UNK N   1      26.054  24.246  -3.749  0.00  0.00    -0.267 OA
HETATM   14  N   UNK N   1      25.585  23.644  -5.879  0.00  0.00    -0.322 N 
HETATM   15  C   UNK N   1      25.645  24.253  -7.003  0.00  0.00     0.046 A 
ATOM     16  HN  UNK N   1      25.280  22.683  -5.725  1.00  0.00     0.169 HD
HETATM   17  C   UNK N   1      25.317  23.708  -8.241  0.00  0.00     0.030 A 
HETATM   18  C   UNK N   1      26.099  25.560  -6.870  0.00  0.00     0.009 A 
HETATM   19  C   UNK N   1      25.459  24.523  -9.376  0.00  0.00     0.002 A 
HETATM   20  C   UNK N   1      25.917  25.851  -9.249  0.00  0.00     0.001 A 
HETATM   21  C   UNK N   1      26.240  26.378  -7.986  0.00  0.00     0.015 A 
ENDBRANCH   1  11
BRANCH   9  22
HETATM   22  N   UNK N   1      29.316  26.474  -4.383  0.00  0.00    -0.264 N 
HETATM   23  H   UNK N   1      30.053  26.732  -4.981  0.00  0.00     0.194 HD
BRANCH  22  24
HETATM   24  O   UNK N   1      29.444  25.379  -3.617  0.00  0.00    -0.280 OA
BRANCH  24  25
HETATM   25  C   UNK N   1      30.824  25.154  -3.495  0.00  0.00     0.204 C 
BRANCH  25  26
HETATM   26  C   UNK N   1      31.252  23.745  -3.931  0.00  0.00     0.062 C 
BRANCH  26  27
HETATM   27  C   UNK N   1      30.773  22.609  -3.025  0.00  0.00     0.143 C 
BRANCH  27  28
HETATM   28  O   UNK N   1      30.715  23.027  -1.694  0.00  0.00    -0.393 OA
HETATM   29  H   UNK N   1      30.854  23.826  -1.162  0.00  0.00     0.210 HD
ENDBRANCH  27  28
BRANCH  27  30
HETATM   30  C   UNK N   1      31.710  21.415  -3.141  0.00  0.00     0.195 C 
BRANCH  30  31
HETATM   31  O   UNK N   1      32.530  21.317  -2.013  0.00  0.00    -0.398 OA
HETATM   32  H   UNK N   1      32.514  21.454  -1.053  0.00  0.00     0.209 HD
ENDBRANCH  30  31
ENDBRANCH  27  30
ENDBRANCH  26  27
ENDBRANCH  25  26
ENDBRANCH  24  25
ENDBRANCH  22  24
ENDBRANCH   9  22
TORSDOF 9
ENDMDL
MODEL 9
REMARK VINA RESULT:      -6.9      6.871     11.413
REMARK  9 active torsions:
REMARK  status: ('A' for Active; 'I' for Inactive)
REMARK    1  A    between atoms: C_12  and  C_11 
REMARK    2  A    between atoms: C_20  and  N_21 
REMARK    3  A    between atoms: O_22  and  N_21 
REMARK    4  A    between atoms: O_22  and  C_23 
REMARK    5  A    between atoms: C_23  and  C_24 
REMARK    6  A    between atoms: C_25  and  C_24 
REMARK    7  A    between atoms: C_25  and  O_26 
REMARK    8  A    between atoms: C_27  and  C_25 
REMARK    9  A    between atoms: O_28  and  C_27 
ROOT
HETATM    1  C   UNK N   1      29.051  17.273   4.582  0.00  0.00     0.079 A 
HETATM    2  N   UNK N   1      28.296  18.054   3.765  0.00  0.00    -0.353 N 
HETATM    3  C   UNK N   1      27.789  19.031   4.540  0.00  0.00     0.045 A 
HETATM    4  C   UNK N   1      26.947  20.066   4.140  0.00  0.00     0.030 A 
HETATM    5  C   UNK N   1      26.531  20.986   5.120  0.00  0.00     0.002 A 
HETATM    6  C   UNK N   1      26.964  20.852   6.459  0.00  0.00     0.001 A 
HETATM    7  C   UNK N   1      27.817  19.796   6.827  0.00  0.00     0.016 A 
HETATM    8  C   UNK N   1      28.206  18.903   5.833  0.00  0.00     0.021 A 
HETATM    9  C   UNK N   1      29.007  17.794   5.887  0.00  0.00     0.094 A 
HETATM   10  H   UNK N   1      28.149  17.930   2.798  0.00  0.00     0.166 HD
ENDROOT
BRANCH   1  11
HETATM   11  C   UNK N   1      29.772  16.083   4.044  0.00  0.00     0.073 A 
HETATM   12  C   UNK N   1      29.178  14.755   3.845  0.00  0.00     0.259 A 
HETATM   13  O   UNK N   1      28.022  14.427   4.064  0.00  0.00    -0.267 OA
HETATM   14  N   UNK N   1      30.112  13.918   3.362  0.00  0.00    -0.322 N 
HETATM   15  C   UNK N   1      31.195  14.590   3.250  0.00  0.00     0.046 A 
ATOM     16  HN  UNK N   1      29.982  12.933   3.130  1.00  0.00     0.169 HD
HETATM   17  C   UNK N   1      32.415  14.096   2.797  0.00  0.00     0.030 A 
HETATM   18  C   UNK N   1      31.037  15.913   3.648  0.00  0.00     0.009 A 
HETATM   19  C   UNK N   1      33.506  14.980   2.753  0.00  0.00     0.002 A 
HETATM   20  C   UNK N   1      33.354  16.324   3.154  0.00  0.00     0.001 A 
HETATM   21  C   UNK N   1      32.109  16.798   3.605  0.00  0.00     0.015 A 
ENDBRANCH   1  11
BRANCH   9  22
HETATM   22  N   UNK N   1      29.656  17.345   7.062  0.00  0.00    -0.264 N 
HETATM   23  H   UNK N   1      29.117  16.992   7.806  0.00  0.00     0.194 HD
BRANCH  22  24
HETATM   24  O   UNK N   1      30.992  17.394   7.182  0.00  0.00    -0.280 OA
BRANCH  24  25
HETATM   25  C   UNK N   1      31.413  16.063   7.328  0.00  0.00     0.204 C 
BRANCH  25  26
HETATM   26  C   UNK N   1      32.936  15.893   7.243  0.00  0.00     0.062 C 
BRANCH  26  27
HETATM   27  C   UNK N   1      33.735  16.626   8.322  0.00  0.00     0.143 C 
BRANCH  27  28
HETATM   28  O   UNK N   1      32.915  16.970   9.399  0.00  0.00    -0.393 OA
HETATM   29  H   UNK N   1      32.986  17.236  10.329  0.00  0.00     0.210 HD
ENDBRANCH  27  28
BRANCH  27  30
HETATM   30  C   UNK N   1      34.367  17.885   7.743  0.00  0.00     0.195 C 
BRANCH  30  31
HETATM   31  O   UNK N   1      34.136  17.966   6.367  0.00  0.00    -0.398 OA
HETATM   32  H   UNK N   1      34.311  17.489   5.541  0.00  0.00     0.209 HD
ENDBRANCH  30  31
ENDBRANCH  27  30
ENDBRANCH  26  27
ENDBRANCH  25  26
ENDBRANCH  24  25
ENDBRANCH  22  24
ENDBRANCH   9  22
TORSDOF 9
ENDMDL
