REMARK  9 active torsions:
REMARK  status: ('A' for Active; 'I' for Inactive)
REMARK    1  A    between atoms: C_12  and  C_11 
REMARK    2  A    between atoms: C_20  and  N_21 
REMARK    3  A    between atoms: O_22  and  N_21 
REMARK    4  A    between atoms: O_22  and  C_23 
REMARK    5  A    between atoms: C_23  and  C_24 
REMARK    6  A    between atoms: C_25  and  C_24 
REMARK    7  A    between atoms: C_25  and  O_26 
REMARK    8  A    between atoms: C_27  and  C_25 
REMARK    9  A    between atoms: O_28  and  C_27 
ROOT
HETATM    1  C   UNK N   1      -1.894  -0.426   0.043  0.00  0.00     0.079 A 
HETATM    2  N   UNK N   1      -2.863  -1.367  -0.109  0.00  0.00    -0.353 N 
HETATM    3  C   UNK N   1      -2.241  -2.560  -0.054  0.00  0.00     0.045 A 
HETATM    4  C   UNK N   1      -2.829  -3.817  -0.168  0.00  0.00     0.030 A 
HETATM    5  C   UNK N   1      -1.989  -4.943  -0.081  0.00  0.00     0.002 A 
HETATM    6  C   UNK N   1      -0.598  -4.785   0.119  0.00  0.00     0.001 A 
HETATM    7  C   UNK N   1      -0.038  -3.500   0.233  0.00  0.00     0.016 A 
HETATM    8  C   UNK N   1      -0.898  -2.409   0.139  0.00  0.00     0.021 A 
HETATM    9  C   UNK N   1      -0.652  -1.064   0.202  0.00  0.00     0.094 A 
HETATM   10  H   UNK N   1      -3.827  -1.208  -0.235  0.00  0.00     0.166 HD
ENDROOT
BRANCH   1  11
HETATM   11  C   UNK N   1      -2.237   1.026   0.034  0.00  0.00     0.073 A 
HETATM   12  C   UNK N   1      -3.599   1.572  -0.024  0.00  0.00     0.259 A 
HETATM   13  O   UNK N   1      -4.643   0.939  -0.051  0.00  0.00    -0.267 OA
HETATM   14  N   UNK N   1      -3.540   2.914  -0.033  0.00  0.00    -0.322 N 
HETATM   15  C   UNK N   1      -2.302   3.235   0.011  0.00  0.00     0.046 A 
ATOM     16  HN  UNK N   1      -4.332   3.556  -0.069  1.00  0.00     0.169 HD
HETATM   17  C   UNK N   1      -1.798   4.532   0.005  0.00  0.00     0.030 A 
HETATM   18  C   UNK N   1      -1.471   2.121   0.057  0.00  0.00     0.009 A 
HETATM   19  C   UNK N   1      -0.403   4.695   0.045  0.00  0.00     0.002 A 
HETATM   20  C   UNK N   1       0.447   3.570   0.093  0.00  0.00     0.001 A 
HETATM   21  C   UNK N   1      -0.089   2.270   0.100  0.00  0.00     0.015 A 
ENDBRANCH   1  11
BRANCH   9  22
HETATM   22  N   UNK N   1       0.630  -0.506   0.422  0.00  0.00    -0.264 N 
HETATM   23  H   UNK N   1       0.996  -0.483   1.335  0.00  0.00     0.194 HD
BRANCH  22  24
HETATM   24  O   UNK N   1       1.355  -0.006  -0.591  0.00  0.00    -0.280 OA
BRANCH  24  25
HETATM   25  C   UNK N   1       2.162  -1.062  -1.043  0.00  0.00     0.204 C 
BRANCH  25  26
HETATM   26  C   UNK N   1       3.495  -1.175  -0.290  0.00  0.00     0.062 C 
BRANCH  26  27
HETATM   27  C   UNK N   1       4.071   0.148   0.218  0.00  0.00     0.143 C 
BRANCH  27  28
HETATM   28  O   UNK N   1       4.080   1.107  -0.797  0.00  0.00    -0.393 OA
HETATM   29  H   UNK N   1       4.660   1.434  -1.502  0.00  0.00     0.210 HD
ENDBRANCH  27  28
BRANCH  27  30
HETATM   30  C   UNK N   1       5.489  -0.060   0.732  0.00  0.00     0.195 C 
BRANCH  30  31
HETATM   31  O   UNK N   1       6.349  -0.407  -0.314  0.00  0.00    -0.398 OA
HETATM   32  H   UNK N   1       6.438  -1.044  -1.040  0.00  0.00     0.209 HD
ENDBRANCH  30  31
ENDBRANCH  27  30
ENDBRANCH  26  27
ENDBRANCH  25  26
ENDBRANCH  24  25
ENDBRANCH  22  24
ENDBRANCH   9  22
TORSDOF 9
