MODEL 1
REMARK VINA RESULT:      -5.0      0.000      0.000
REMARK  0 active torsions:
REMARK  status: ('A' for Active; 'I' for Inactive)
ROOT
HETATM    1  C   UNK N   1      23.219  11.703  13.112  0.00  0.00     0.089 C 
HETATM    2  C   UNK N   1      22.952  12.245  11.756  0.00  0.00     0.080 A 
HETATM    3  N   UNK N   1      23.986  12.586  10.953  0.00  0.00    -0.349 N 
ATOM      4  HN  UNK N   1      24.939  12.464  11.297  1.00  0.00     0.167 HD
HETATM    5  C   UNK N   1      23.796  13.085   9.704  0.00  0.00     0.023 A 
HETATM    6  C   UNK N   1      25.031  13.415   8.938  0.00  0.00     0.068 A 
HETATM    7  C   UNK N   1      24.988  13.980   7.532  0.00  0.00     0.080 A 
HETATM    8  S   UNK N   1      23.414  14.296   6.681  0.00  0.00    -0.164 SA
HETATM    9  C   UNK N   1      22.134  13.794   7.871  0.00  0.00     0.120 A 
HETATM   10  C   UNK N   1      22.483  13.255   9.225  0.00  0.00     0.042 A 
HETATM   11  C   UNK N   1      21.420  12.894  10.076  0.00  0.00     0.255 A 
HETATM   12  O   UNK N   1      20.263  13.021   9.711  0.00  0.00    -0.268 OA
HETATM   13  N   UNK N   1      21.679  12.397  11.323  0.00  0.00    -0.313 N 
HETATM   14  H   UNK N   1      20.930  12.146  11.913  0.00  0.00     0.170 HD
ENDROOT
TORSDOF 0
ENDMDL
MODEL 2
REMARK VINA RESULT:      -4.9     13.034     14.083
REMARK  0 active torsions:
REMARK  status: ('A' for Active; 'I' for Inactive)
ROOT
HETATM    1  C   UNK N   1      37.506  15.756  16.218  0.00  0.00     0.089 C 
HETATM    2  C   UNK N   1      36.833  14.766  15.340  0.00  0.00     0.080 A 
HETATM    3  N   UNK N   1      36.207  13.698  15.888  0.00  0.00    -0.349 N 
ATOM      4  HN  UNK N   1      36.210  13.591  16.902  1.00  0.00     0.167 HD
HETATM    5  C   UNK N   1      35.576  12.764  15.130  0.00  0.00     0.023 A 
HETATM    6  C   UNK N   1      34.933  11.645  15.874  0.00  0.00     0.068 A 
HETATM    7  C   UNK N   1      34.190  10.525  15.174  0.00  0.00     0.080 A 
HETATM    8  S   UNK N   1      34.034  10.472  13.364  0.00  0.00    -0.164 SA
HETATM    9  C   UNK N   1      34.913  11.952  12.779  0.00  0.00     0.120 A 
HETATM   10  C   UNK N   1      35.570  12.907  13.729  0.00  0.00     0.042 A 
HETATM   11  C   UNK N   1      36.226  14.025  13.178  0.00  0.00     0.255 A 
HETATM   12  O   UNK N   1      36.251  14.197  11.971  0.00  0.00    -0.268 OA
HETATM   13  N   UNK N   1      36.843  14.930  13.997  0.00  0.00    -0.313 N 
HETATM   14  H   UNK N   1      37.300  15.710  13.605  0.00  0.00     0.170 HD
ENDROOT
TORSDOF 0
ENDMDL
MODEL 3
REMARK VINA RESULT:      -4.8     22.087     23.975
REMARK  0 active torsions:
REMARK  status: ('A' for Active; 'I' for Inactive)
ROOT
HETATM    1  C   UNK N   1      45.569  25.329   1.894  0.00  0.00     0.089 C 
HETATM    2  C   UNK N   1      44.811  24.116   2.292  0.00  0.00     0.080 A 
HETATM    3  N   UNK N   1      43.520  23.975   1.912  0.00  0.00    -0.349 N 
ATOM      4  HN  UNK N   1      43.087  24.711   1.354  1.00  0.00     0.167 HD
HETATM    5  C   UNK N   1      42.783  22.885   2.249  0.00  0.00     0.023 A 
HETATM    6  C   UNK N   1      41.376  22.871   1.758  0.00  0.00     0.068 A 
HETATM    7  C   UNK N   1      40.425  21.727   2.049  0.00  0.00     0.080 A 
HETATM    8  S   UNK N   1      40.943  20.285   3.026  0.00  0.00    -0.164 SA
HETATM    9  C   UNK N   1      42.677  20.616   3.459  0.00  0.00     0.120 A 
HETATM   10  C   UNK N   1      43.376  21.866   3.019  0.00  0.00     0.042 A 
HETATM   11  C   UNK N   1      44.720  22.031   3.406  0.00  0.00     0.255 A 
HETATM   12  O   UNK N   1      45.283  21.180   4.073  0.00  0.00    -0.268 OA
HETATM   13  N   UNK N   1      45.408  23.154   3.033  0.00  0.00    -0.313 N 
HETATM   14  H   UNK N   1      46.348  23.262   3.307  0.00  0.00     0.170 HD
ENDROOT
TORSDOF 0
ENDMDL
MODEL 4
REMARK VINA RESULT:      -4.8     10.539     11.820
REMARK  0 active torsions:
REMARK  status: ('A' for Active; 'I' for Inactive)
ROOT
HETATM    1  C   UNK N   1      35.283  13.483  12.720  0.00  0.00     0.089 C 
HETATM    2  C   UNK N   1      34.936  14.446  11.643  0.00  0.00     0.080 A 
HETATM    3  N   UNK N   1      33.955  14.143  10.762  0.00  0.00    -0.349 N 
ATOM      4  HN  UNK N   1      33.467  13.252  10.854  1.00  0.00     0.167 HD
HETATM    5  C   UNK N   1      33.599  14.988   9.760  0.00  0.00     0.023 A 
HETATM    6  C   UNK N   1      32.502  14.518   8.868  0.00  0.00     0.068 A 
HETATM    7  C   UNK N   1      31.990  15.343   7.705  0.00  0.00     0.080 A 
HETATM    8  S   UNK N   1      32.687  16.977   7.318  0.00  0.00    -0.164 SA
HETATM    9  C   UNK N   1      33.977  17.240   8.572  0.00  0.00     0.120 A 
HETATM   10  C   UNK N   1      34.269  16.220   9.629  0.00  0.00     0.042 A 
HETATM   11  C   UNK N   1      35.287  16.516  10.557  0.00  0.00     0.255 A 
HETATM   12  O   UNK N   1      35.900  17.569  10.490  0.00  0.00    -0.268 OA
HETATM   13  N   UNK N   1      35.598  15.622  11.544  0.00  0.00    -0.313 N 
HETATM   14  H   UNK N   1      36.311  15.836  12.189  0.00  0.00     0.170 HD
ENDROOT
TORSDOF 0
ENDMDL
MODEL 5
REMARK VINA RESULT:      -4.8     13.109     14.283
REMARK  0 active torsions:
REMARK  status: ('A' for Active; 'I' for Inactive)
ROOT
HETATM    1  C   UNK N   1      35.995  15.371  11.414  0.00  0.00     0.089 C 
HETATM    2  C   UNK N   1      35.983  14.552  12.653  0.00  0.00     0.080 A 
HETATM    3  N   UNK N   1      35.242  13.421  12.704  0.00  0.00    -0.349 N 
ATOM      4  HN  UNK N   1      34.700  13.149  11.883  1.00  0.00     0.167 HD
HETATM    5  C   UNK N   1      35.197  12.637  13.812  0.00  0.00     0.023 A 
HETATM    6  C   UNK N   1      34.337  11.424  13.718  0.00  0.00     0.068 A 
HETATM    7  C   UNK N   1      34.180  10.449  14.868  0.00  0.00     0.080 A 
HETATM    8  S   UNK N   1      35.039  10.697  16.450  0.00  0.00    -0.164 SA
HETATM    9  C   UNK N   1      35.982  12.235  16.230  0.00  0.00     0.120 A 
HETATM   10  C   UNK N   1      35.943  13.008  14.947  0.00  0.00     0.042 A 
HETATM   11  C   UNK N   1      36.709  14.188  14.874  0.00  0.00     0.255 A 
HETATM   12  O   UNK N   1      37.373  14.556  15.827  0.00  0.00    -0.268 OA
HETATM   13  N   UNK N   1      36.711  14.934  13.727  0.00  0.00    -0.313 N 
HETATM   14  H   UNK N   1      37.249  15.758  13.684  0.00  0.00     0.170 HD
ENDROOT
TORSDOF 0
ENDMDL
MODEL 6
REMARK VINA RESULT:      -4.7     17.612     18.401
REMARK  0 active torsions:
REMARK  status: ('A' for Active; 'I' for Inactive)
ROOT
HETATM    1  C   UNK N   1      32.705  19.722  -4.477  0.00  0.00     0.089 C 
HETATM    2  C   UNK N   1      31.698  20.776  -4.189  0.00  0.00     0.080 A 
HETATM    3  N   UNK N   1      30.808  21.133  -5.143  0.00  0.00    -0.349 N 
ATOM      4  HN  UNK N   1      30.844  20.668  -6.051  1.00  0.00     0.167 HD
HETATM    5  C   UNK N   1      29.868  22.090  -4.931  0.00  0.00     0.023 A 
HETATM    6  C   UNK N   1      28.957  22.375  -6.075  0.00  0.00     0.068 A 
HETATM    7  C   UNK N   1      27.856  23.414  -5.998  0.00  0.00     0.080 A 
HETATM    8  S   UNK N   1      27.572  24.389  -4.491  0.00  0.00    -0.164 SA
HETATM    9  C   UNK N   1      28.829  23.804  -3.316  0.00  0.00     0.120 A 
HETATM   10  C   UNK N   1      29.814  22.734  -3.680  0.00  0.00     0.042 A 
HETATM   11  C   UNK N   1      30.749  22.348  -2.700  0.00  0.00     0.255 A 
HETATM   12  O   UNK N   1      30.747  22.874  -1.600  0.00  0.00    -0.268 OA
HETATM   13  N   UNK N   1      31.671  21.377  -2.977  0.00  0.00    -0.313 N 
HETATM   14  H   UNK N   1      32.322  21.113  -2.287  0.00  0.00     0.170 HD
ENDROOT
TORSDOF 0
ENDMDL
MODEL 7
REMARK VINA RESULT:      -4.6      8.955      9.713
REMARK  0 active torsions:
REMARK  status: ('A' for Active; 'I' for Inactive)
ROOT
HETATM    1  C   UNK N   1      26.043  20.723   2.741  0.00  0.00     0.089 C 
HETATM    2  C   UNK N   1      26.659  20.263   4.012  0.00  0.00     0.080 A 
HETATM    3  N   UNK N   1      27.606  19.297   3.988  0.00  0.00    -0.349 N 
ATOM      4  HN  UNK N   1      27.882  18.899   3.090  1.00  0.00     0.167 HD
HETATM    5  C   UNK N   1      28.201  18.841   5.121  0.00  0.00     0.023 A 
HETATM    6  C   UNK N   1      29.225  17.775   4.937  0.00  0.00     0.068 A 
HETATM    7  C   UNK N   1      29.979  17.163   6.101  0.00  0.00     0.080 A 
HETATM    8  S   UNK N   1      29.679  17.693   7.813  0.00  0.00    -0.164 SA
HETATM    9  C   UNK N   1      28.399  18.977   7.684  0.00  0.00     0.120 A 
HETATM   10  C   UNK N   1      27.824  19.388   6.362  0.00  0.00     0.042 A 
HETATM   11  C   UNK N   1      26.836  20.393   6.366  0.00  0.00     0.255 A 
HETATM   12  O   UNK N   1      26.472  20.900   7.413  0.00  0.00    -0.268 OA
HETATM   13  N   UNK N   1      26.276  20.808   5.190  0.00  0.00    -0.313 N 
HETATM   14  H   UNK N   1      25.586  21.511   5.200  0.00  0.00     0.170 HD
ENDROOT
TORSDOF 0
ENDMDL
MODEL 8
REMARK VINA RESULT:      -4.6      9.530     11.485
REMARK  0 active torsions:
REMARK  status: ('A' for Active; 'I' for Inactive)
ROOT
HETATM    1  C   UNK N   1      33.068  16.061   3.020  0.00  0.00     0.089 C 
HETATM    2  C   UNK N   1      32.797  16.575   4.386  0.00  0.00     0.080 A 
HETATM    3  N   UNK N   1      31.528  16.593   4.858  0.00  0.00    -0.349 N 
ATOM      4  HN  UNK N   1      30.775  16.250   4.261  1.00  0.00     0.167 HD
HETATM    5  C   UNK N   1      31.227  17.052   6.099  0.00  0.00     0.023 A 
HETATM    6  C   UNK N   1      29.786  17.010   6.479  0.00  0.00     0.068 A 
HETATM    7  C   UNK N   1      29.287  17.486   7.829  0.00  0.00     0.080 A 
HETATM    8  S   UNK N   1      30.423  18.146   9.084  0.00  0.00    -0.164 SA
HETATM    9  C   UNK N   1      32.068  18.059   8.314  0.00  0.00     0.120 A 
HETATM   10  C   UNK N   1      32.263  17.527   6.927  0.00  0.00     0.042 A 
HETATM   11  C   UNK N   1      33.576  17.500   6.418  0.00  0.00     0.255 A 
HETATM   12  O   UNK N   1      34.510  17.898   7.092  0.00  0.00    -0.268 OA
HETATM   13  N   UNK N   1      33.813  17.024   5.158  0.00  0.00    -0.313 N 
HETATM   14  H   UNK N   1      34.735  17.008   4.809  0.00  0.00     0.170 HD
ENDROOT
TORSDOF 0
ENDMDL
MODEL 9
REMARK VINA RESULT:      -4.5      1.655      1.977
REMARK  0 active torsions:
REMARK  status: ('A' for Active; 'I' for Inactive)
ROOT
HETATM    1  C   UNK N   1      23.044  11.913  11.490  0.00  0.00     0.089 C 
HETATM    2  C   UNK N   1      22.395  12.762  10.458  0.00  0.00     0.080 A 
HETATM    3  N   UNK N   1      23.106  13.176   9.384  0.00  0.00    -0.349 N 
ATOM      4  HN  UNK N   1      24.083  12.896   9.302  1.00  0.00     0.167 HD
HETATM    5  C   UNK N   1      22.559  13.953   8.413  0.00  0.00     0.023 A 
HETATM    6  C   UNK N   1      23.466  14.330   7.292  0.00  0.00     0.068 A 
HETATM    7  C   UNK N   1      23.008  15.191   6.132  0.00  0.00     0.080 A 
HETATM    8  S   UNK N   1      21.308  15.827   6.031  0.00  0.00    -0.164 SA
HETATM    9  C   UNK N   1      20.487  15.194   7.525  0.00  0.00     0.120 A 
HETATM   10  C   UNK N   1      21.210  14.342   8.522  0.00  0.00     0.042 A 
HETATM   11  C   UNK N   1      20.487  13.900   9.648  0.00  0.00     0.255 A 
HETATM   12  O   UNK N   1      19.316  14.208   9.792  0.00  0.00    -0.268 OA
HETATM   13  N   UNK N   1      21.096  13.119  10.591  0.00  0.00    -0.313 N 
HETATM   14  H   UNK N   1      20.584  12.814  11.375  0.00  0.00     0.170 HD
ENDROOT
TORSDOF 0
ENDMDL
