MODEL 1
REMARK VINA RESULT:      -7.2      0.000      0.000
REMARK  3 active torsions:
REMARK  status: ('A' for Active; 'I' for Inactive)
REMARK    1  A    between atoms: C_4  and  C_2 
REMARK    2  A    between atoms: C_8  and  C_9 
REMARK    3  A    between atoms: C_9  and  O_11 
ROOT
HETATM    1  C   UNK N   1      29.103  24.109  -4.963  0.00  0.00     0.180 C 
HETATM    2  C   UNK N   1      28.078  24.175  -6.074  0.00  0.00     0.241 C 
HETATM    3  O   UNK N   1      28.423  24.457  -7.216  0.00  0.00    -0.271 OA
HETATM    4  N   UNK N   1      26.763  23.992  -5.775  0.00  0.00    -0.345 N 
HETATM    5  C   UNK N   1      25.648  24.093  -6.712  0.00  0.00     0.186 C 
HETATM    6  C   UNK N   1      25.659  25.426  -7.488  0.00  0.00     0.074 C 
HETATM    7  C   UNK N   1      25.902  26.593  -6.594  0.00  0.00    -0.056 A 
HETATM    8  C   UNK N   1      24.927  27.049  -5.697  0.00  0.00     0.010 A 
HETATM    9  C   UNK N   1      25.240  28.063  -4.782  0.00  0.00     0.037 A 
HETATM   10  C   UNK N   1      27.168  27.174  -6.600  0.00  0.00     0.010 A 
HETATM   11  C   UNK N   1      27.483  28.168  -5.685  0.00  0.00     0.037 A 
HETATM   12  C   UNK N   1      26.533  28.602  -4.750  0.00  0.00     0.068 A 
HETATM   13  O   UNK N   1      26.861  29.501  -3.789  0.00  0.00    -0.351 OA
HETATM   14  C   UNK N   1      28.162  29.898  -3.531  0.00  0.00     0.175 C 
HETATM   15  C   UNK N   1      28.982  28.747  -2.942  0.00  0.00     0.027 C 
HETATM   16  C   UNK N   1      29.978  28.217  -3.968  0.00  0.00     0.011 C 
HETATM   17  C   UNK N   1      30.865  27.144  -3.348  0.00  0.00     0.103 C 
HETATM   18  C   UNK N   1      30.447  25.730  -3.654  0.00  0.00     0.218 C 
HETATM   19  O   UNK N   1      30.877  24.829  -2.947  0.00  0.00    -0.274 OA
HETATM   20  N   UNK N   1      29.605  25.448  -4.687  0.00  0.00    -0.347 N 
HETATM   21  H   UNK N   1      26.544  23.772  -4.841  0.00  0.00     0.163 HD
HETATM   22  H   UNK N   1      29.321  26.185  -5.275  0.00  0.00     0.163 HD
ENDROOT
BRANCH   5  23
HETATM   23  C   UNK N   1      25.623  22.939  -7.679  0.00  0.00     0.163 C 
HETATM   24  O   UNK N   1      24.634  22.749  -8.371  0.00  0.00    -0.648 OA
BRANCH  23  25
HETATM   25  O   UNK N   1      26.671  22.098  -7.776  0.00  0.00    -0.775 OA
HETATM   26  H   UNK N   1      27.481  22.395  -8.140  0.00  0.00     0.167 HD
ENDBRANCH  23  25
ENDBRANCH   5  23
BRANCH   1  27
HETATM   27  C   UNK N   1      30.250  23.114  -5.257  0.00  0.00     0.009 C 
HETATM   28  C   UNK N   1      31.235  23.616  -6.301  0.00  0.00     0.012 C 
HETATM   29  C   UNK N   1      29.729  21.743  -5.654  0.00  0.00     0.012 C 
ENDBRANCH   1  27
TORSDOF 3
ENDMDL
MODEL 2
REMARK VINA RESULT:      -7.2     13.848     16.854
REMARK  3 active torsions:
REMARK  status: ('A' for Active; 'I' for Inactive)
REMARK    1  A    between atoms: C_4  and  C_2 
REMARK    2  A    between atoms: C_8  and  C_9 
REMARK    3  A    between atoms: C_9  and  O_11 
ROOT
HETATM    1  C   UNK N   1      30.232  16.812   8.338  0.00  0.00     0.180 C 
HETATM    2  C   UNK N   1      31.721  17.053   8.466  0.00  0.00     0.241 C 
HETATM    3  O   UNK N   1      32.161  18.197   8.490  0.00  0.00    -0.271 OA
HETATM    4  N   UNK N   1      32.567  15.987   8.477  0.00  0.00    -0.345 N 
HETATM    5  C   UNK N   1      34.025  16.049   8.523  0.00  0.00     0.186 C 
HETATM    6  C   UNK N   1      34.604  16.957   7.419  0.00  0.00     0.074 C 
HETATM    7  C   UNK N   1      33.977  16.695   6.092  0.00  0.00    -0.056 A 
HETATM    8  C   UNK N   1      34.251  15.528   5.366  0.00  0.00     0.010 A 
HETATM    9  C   UNK N   1      33.543  15.257   4.189  0.00  0.00     0.037 A 
HETATM   10  C   UNK N   1      33.029  17.600   5.622  0.00  0.00     0.010 A 
HETATM   11  C   UNK N   1      32.317  17.326   4.463  0.00  0.00     0.037 A 
HETATM   12  C   UNK N   1      32.546  16.140   3.751  0.00  0.00     0.068 A 
HETATM   13  O   UNK N   1      31.789  15.816   2.675  0.00  0.00    -0.351 OA
HETATM   14  C   UNK N   1      30.637  16.499   2.322  0.00  0.00     0.175 C 
HETATM   15  C   UNK N   1      29.528  16.278   3.354  0.00  0.00     0.027 C 
HETATM   16  C   UNK N   1      29.309  17.539   4.184  0.00  0.00     0.011 C 
HETATM   17  C   UNK N   1      28.135  17.354   5.140  0.00  0.00     0.103 C 
HETATM   18  C   UNK N   1      28.524  17.005   6.552  0.00  0.00     0.218 C 
HETATM   19  O   UNK N   1      27.676  16.517   7.286  0.00  0.00    -0.274 OA
HETATM   20  N   UNK N   1      29.789  17.216   7.011  0.00  0.00    -0.347 N 
HETATM   21  H   UNK N   1      32.159  15.092   8.452  0.00  0.00     0.163 HD
HETATM   22  H   UNK N   1      30.435  17.664   6.417  0.00  0.00     0.163 HD
ENDROOT
BRANCH   5  23
HETATM   23  C   UNK N   1      34.524  16.503   9.870  0.00  0.00     0.163 C 
HETATM   24  O   UNK N   1      35.253  17.480   9.948  0.00  0.00    -0.648 OA
BRANCH  23  25
HETATM   25  O   UNK N   1      34.195  15.831  10.990  0.00  0.00    -0.775 OA
HETATM   26  H   UNK N   1      34.779  15.187  11.341  0.00  0.00     0.167 HD
ENDBRANCH  23  25
ENDBRANCH   5  23
BRANCH   1  27
HETATM   27  C   UNK N   1      29.411  17.498   9.454  0.00  0.00     0.009 C 
HETATM   28  C   UNK N   1      29.840  18.930   9.729  0.00  0.00     0.012 C 
HETATM   29  C   UNK N   1      29.421  16.698  10.745  0.00  0.00     0.012 C 
ENDBRANCH   1  27
TORSDOF 3
ENDMDL
MODEL 3
REMARK VINA RESULT:      -6.9      2.146      5.511
REMARK  3 active torsions:
REMARK  status: ('A' for Active; 'I' for Inactive)
REMARK    1  A    between atoms: C_4  and  C_2 
REMARK    2  A    between atoms: C_8  and  C_9 
REMARK    3  A    between atoms: C_9  and  O_11 
ROOT
HETATM    1  C   UNK N   1      29.095  23.782  -4.744  0.00  0.00     0.180 C 
HETATM    2  C   UNK N   1      27.950  24.723  -4.434  0.00  0.00     0.241 C 
HETATM    3  O   UNK N   1      26.978  24.324  -3.803  0.00  0.00    -0.271 OA
HETATM    4  N   UNK N   1      27.980  25.990  -4.930  0.00  0.00    -0.345 N 
HETATM    5  C   UNK N   1      26.930  26.993  -4.785  0.00  0.00     0.186 C 
HETATM    6  C   UNK N   1      25.552  26.463  -5.233  0.00  0.00     0.074 C 
HETATM    7  C   UNK N   1      25.627  25.742  -6.536  0.00  0.00    -0.056 A 
HETATM    8  C   UNK N   1      25.830  26.423  -7.743  0.00  0.00     0.010 A 
HETATM    9  C   UNK N   1      26.026  25.700  -8.927  0.00  0.00     0.037 A 
HETATM   10  C   UNK N   1      25.582  24.350  -6.521  0.00  0.00     0.010 A 
HETATM   11  C   UNK N   1      25.790  23.633  -7.690  0.00  0.00     0.037 A 
HETATM   12  C   UNK N   1      26.042  24.299  -8.898  0.00  0.00     0.068 A 
HETATM   13  O   UNK N   1      26.344  23.608 -10.025  0.00  0.00    -0.351 OA
HETATM   14  C   UNK N   1      26.620  22.251 -10.034  0.00  0.00     0.175 C 
HETATM   15  C   UNK N   1      27.941  21.954  -9.320  0.00  0.00     0.027 C 
HETATM   16  C   UNK N   1      27.685  21.287  -7.973  0.00  0.00     0.011 C 
HETATM   17  C   UNK N   1      29.001  20.896  -7.309  0.00  0.00     0.103 C 
HETATM   18  C   UNK N   1      29.487  21.861  -6.260  0.00  0.00     0.218 C 
HETATM   19  O   UNK N   1      30.663  21.814  -5.926  0.00  0.00    -0.274 OA
HETATM   20  N   UNK N   1      28.649  22.773  -5.694  0.00  0.00    -0.347 N 
HETATM   21  H   UNK N   1      28.784  26.254  -5.433  0.00  0.00     0.163 HD
HETATM   22  H   UNK N   1      27.695  22.749  -5.939  0.00  0.00     0.163 HD
ENDROOT
BRANCH   5  23
HETATM   23  C   UNK N   1      26.842  27.511  -3.373  0.00  0.00     0.163 C 
HETATM   24  O   UNK N   1      27.569  28.426  -3.016  0.00  0.00    -0.648 OA
BRANCH  23  25
HETATM   25  O   UNK N   1      25.987  26.961  -2.489  0.00  0.00    -0.775 OA
HETATM   26  H   UNK N   1      25.088  27.226  -2.476  0.00  0.00     0.167 HD
ENDBRANCH  23  25
ENDBRANCH   5  23
BRANCH   1  27
HETATM   27  C   UNK N   1      29.714  23.147  -3.478  0.00  0.00     0.009 C 
HETATM   28  C   UNK N   1      28.766  23.117  -2.289  0.00  0.00     0.012 C 
HETATM   29  C   UNK N   1      31.019  23.818  -3.081  0.00  0.00     0.012 C 
ENDBRANCH   1  27
TORSDOF 3
ENDMDL
MODEL 4
REMARK VINA RESULT:      -6.6     21.584     24.589
REMARK  3 active torsions:
REMARK  status: ('A' for Active; 'I' for Inactive)
REMARK    1  A    between atoms: C_4  and  C_2 
REMARK    2  A    between atoms: C_8  and  C_9 
REMARK    3  A    between atoms: C_9  and  O_11 
ROOT
HETATM    1  C   UNK N   1      36.602  12.356  13.952  0.00  0.00     0.180 C 
HETATM    2  C   UNK N   1      35.906  13.120  12.846  0.00  0.00     0.241 C 
HETATM    3  O   UNK N   1      34.710  13.373  12.929  0.00  0.00    -0.271 OA
HETATM    4  N   UNK N   1      36.608  13.453  11.728  0.00  0.00    -0.345 N 
HETATM    5  C   UNK N   1      36.071  14.122  10.546  0.00  0.00     0.186 C 
HETATM    6  C   UNK N   1      34.823  13.408   9.989  0.00  0.00     0.074 C 
HETATM    7  C   UNK N   1      35.012  11.931   9.906  0.00  0.00    -0.056 A 
HETATM    8  C   UNK N   1      35.853  11.350   8.947  0.00  0.00     0.010 A 
HETATM    9  C   UNK N   1      36.107   9.973   8.986  0.00  0.00     0.037 A 
HETATM   10  C   UNK N   1      34.403  11.134  10.872  0.00  0.00     0.010 A 
HETATM   11  C   UNK N   1      34.665   9.773  10.920  0.00  0.00     0.037 A 
HETATM   12  C   UNK N   1      35.541   9.184   9.997  0.00  0.00     0.068 A 
HETATM   13  O   UNK N   1      35.881   7.875  10.095  0.00  0.00    -0.351 OA
HETATM   14  C   UNK N   1      35.567   7.088  11.191  0.00  0.00     0.175 C 
HETATM   15  C   UNK N   1      36.345   7.537  12.430  0.00  0.00     0.027 C 
HETATM   16  C   UNK N   1      35.421   8.239  13.420  0.00  0.00     0.011 C 
HETATM   17  C   UNK N   1      36.173   8.591  14.698  0.00  0.00     0.103 C 
HETATM   18  C   UNK N   1      36.643  10.020  14.777  0.00  0.00     0.218 C 
HETATM   19  O   UNK N   1      37.521  10.300  15.581  0.00  0.00    -0.274 OA
HETATM   20  N   UNK N   1      36.115  10.984  13.973  0.00  0.00    -0.347 N 
HETATM   21  H   UNK N   1      37.564  13.221  11.715  0.00  0.00     0.163 HD
HETATM   22  H   UNK N   1      35.370  10.742  13.377  0.00  0.00     0.163 HD
ENDROOT
BRANCH   5  23
HETATM   23  C   UNK N   1      35.752  15.568  10.819  0.00  0.00     0.163 C 
HETATM   24  O   UNK N   1      36.635  16.409  10.738  0.00  0.00    -0.648 OA
BRANCH  23  25
HETATM   25  O   UNK N   1      34.509  15.946  11.174  0.00  0.00    -0.775 OA
HETATM   26  H   UNK N   1      34.167  15.709  12.014  0.00  0.00     0.167 HD
ENDBRANCH  23  25
ENDBRANCH   5  23
BRANCH   1  27
HETATM   27  C   UNK N   1      36.465  13.037  15.334  0.00  0.00     0.009 C 
HETATM   28  C   UNK N   1      35.052  12.993  15.894  0.00  0.00     0.012 C 
HETATM   29  C   UNK N   1      36.970  14.470  15.318  0.00  0.00     0.012 C 
ENDBRANCH   1  27
TORSDOF 3
ENDMDL
MODEL 5
REMARK VINA RESULT:      -6.5      2.615      5.818
REMARK  3 active torsions:
REMARK  status: ('A' for Active; 'I' for Inactive)
REMARK    1  A    between atoms: C_4  and  C_2 
REMARK    2  A    between atoms: C_8  and  C_9 
REMARK    3  A    between atoms: C_9  and  O_11 
ROOT
HETATM    1  C   UNK N   1      30.188  21.723  -7.144  0.00  0.00     0.180 C 
HETATM    2  C   UNK N   1      30.612  21.724  -5.691  0.00  0.00     0.241 C 
HETATM    3  O   UNK N   1      30.050  20.992  -4.884  0.00  0.00    -0.271 OA
HETATM    4  N   UNK N   1      31.568  22.601  -5.280  0.00  0.00    -0.345 N 
HETATM    5  C   UNK N   1      32.037  22.779  -3.909  0.00  0.00     0.186 C 
HETATM    6  C   UNK N   1      30.876  23.024  -2.924  0.00  0.00     0.074 C 
HETATM    7  C   UNK N   1      29.902  24.027  -3.444  0.00  0.00    -0.056 A 
HETATM    8  C   UNK N   1      30.217  25.391  -3.514  0.00  0.00     0.010 A 
HETATM    9  C   UNK N   1      29.327  26.280  -4.131  0.00  0.00     0.037 A 
HETATM   10  C   UNK N   1      28.691  23.565  -3.953  0.00  0.00     0.010 A 
HETATM   11  C   UNK N   1      27.816  24.443  -4.576  0.00  0.00     0.037 A 
HETATM   12  C   UNK N   1      28.137  25.802  -4.696  0.00  0.00     0.068 A 
HETATM   13  O   UNK N   1      27.337  26.649  -5.389  0.00  0.00    -0.351 OA
HETATM   14  C   UNK N   1      26.281  26.224  -6.178  0.00  0.00     0.175 C 
HETATM   15  C   UNK N   1      26.786  25.461  -7.406  0.00  0.00     0.027 C 
HETATM   16  C   UNK N   1      26.504  23.969  -7.264  0.00  0.00     0.011 C 
HETATM   17  C   UNK N   1      26.910  23.224  -8.531  0.00  0.00     0.103 C 
HETATM   18  C   UNK N   1      28.252  22.544  -8.456  0.00  0.00     0.218 C 
HETATM   19  O   UNK N   1      28.799  22.220  -9.501  0.00  0.00    -0.274 OA
HETATM   20  N   UNK N   1      28.854  22.295  -7.260  0.00  0.00    -0.347 N 
HETATM   21  H   UNK N   1      31.981  23.168  -5.971  0.00  0.00     0.163 HD
HETATM   22  H   UNK N   1      28.365  22.514  -6.434  0.00  0.00     0.163 HD
ENDROOT
BRANCH   5  23
HETATM   23  C   UNK N   1      32.862  21.608  -3.444  0.00  0.00     0.163 C 
HETATM   24  O   UNK N   1      33.673  21.098  -4.202  0.00  0.00    -0.648 OA
BRANCH  23  25
HETATM   25  O   UNK N   1      32.700  21.098  -2.208  0.00  0.00    -0.775 OA
HETATM   26  H   UNK N   1      32.400  20.217  -2.097  0.00  0.00     0.167 HD
ENDBRANCH  23  25
ENDBRANCH   5  23
BRANCH   1  27
HETATM   27  C   UNK N   1      30.273  20.324  -7.797  0.00  0.00     0.009 C 
HETATM   28  C   UNK N   1      29.116  19.410  -7.425  0.00  0.00     0.012 C 
HETATM   29  C   UNK N   1      31.593  19.633  -7.500  0.00  0.00     0.012 C 
ENDBRANCH   1  27
TORSDOF 3
ENDMDL
MODEL 6
REMARK VINA RESULT:      -6.5     12.069     13.922
REMARK  3 active torsions:
REMARK  status: ('A' for Active; 'I' for Inactive)
REMARK    1  A    between atoms: C_4  and  C_2 
REMARK    2  A    between atoms: C_8  and  C_9 
REMARK    3  A    between atoms: C_9  and  O_11 
ROOT
HETATM    1  C   UNK N   1      24.011  14.924   2.197  0.00  0.00     0.180 C 
HETATM    2  C   UNK N   1      24.959  15.549   3.198  0.00  0.00     0.241 C 
HETATM    3  O   UNK N   1      24.864  15.280   4.390  0.00  0.00    -0.271 OA
HETATM    4  N   UNK N   1      25.866  16.469   2.766  0.00  0.00    -0.345 N 
HETATM    5  C   UNK N   1      26.798  17.213   3.607  0.00  0.00     0.186 C 
HETATM    6  C   UNK N   1      26.087  17.928   4.775  0.00  0.00     0.074 C 
HETATM    7  C   UNK N   1      24.857  18.642   4.328  0.00  0.00    -0.056 A 
HETATM    8  C   UNK N   1      24.923  19.815   3.565  0.00  0.00     0.010 A 
HETATM    9  C   UNK N   1      23.748  20.382   3.055  0.00  0.00     0.037 A 
HETATM   10  C   UNK N   1      23.622  18.063   4.609  0.00  0.00     0.010 A 
HETATM   11  C   UNK N   1      22.459  18.616   4.092  0.00  0.00     0.037 A 
HETATM   12  C   UNK N   1      22.513  19.762   3.287  0.00  0.00     0.068 A 
HETATM   13  O   UNK N   1      21.396  20.252   2.696  0.00  0.00    -0.351 OA
HETATM   14  C   UNK N   1      20.189  19.574   2.671  0.00  0.00     0.175 C 
HETATM   15  C   UNK N   1      20.281  18.321   1.795  0.00  0.00     0.027 C 
HETATM   16  C   UNK N   1      20.290  17.063   2.657  0.00  0.00     0.011 C 
HETATM   17  C   UNK N   1      20.275  15.814   1.783  0.00  0.00     0.103 C 
HETATM   18  C   UNK N   1      21.622  15.172   1.582  0.00  0.00     0.218 C 
HETATM   19  O   UNK N   1      21.762  14.392   0.651  0.00  0.00    -0.274 OA
HETATM   20  N   UNK N   1      22.670  15.451   2.407  0.00  0.00    -0.347 N 
HETATM   21  H   UNK N   1      25.894  16.649   1.799  0.00  0.00     0.163 HD
HETATM   22  H   UNK N   1      22.513  16.037   3.183  0.00  0.00     0.163 HD
ENDROOT
BRANCH   5  23
HETATM   23  C   UNK N   1      27.896  16.331   4.142  0.00  0.00     0.163 C 
HETATM   24  O   UNK N   1      28.909  16.156   3.481  0.00  0.00    -0.648 OA
BRANCH  23  25
HETATM   25  O   UNK N   1      27.766  15.712   5.331  0.00  0.00    -0.775 OA
HETATM   26  H   UNK N   1      27.387  16.164   6.058  0.00  0.00     0.167 HD
ENDBRANCH  23  25
ENDBRANCH   5  23
BRANCH   1  27
HETATM   27  C   UNK N   1      24.034  13.378   2.228  0.00  0.00     0.009 C 
HETATM   28  C   UNK N   1      23.428  12.788   3.491  0.00  0.00     0.012 C 
HETATM   29  C   UNK N   1      25.432  12.823   2.016  0.00  0.00     0.012 C 
ENDBRANCH   1  27
TORSDOF 3
ENDMDL
MODEL 7
REMARK VINA RESULT:      -6.4      2.632      5.858
REMARK  3 active torsions:
REMARK  status: ('A' for Active; 'I' for Inactive)
REMARK    1  A    between atoms: C_4  and  C_2 
REMARK    2  A    between atoms: C_8  and  C_9 
REMARK    3  A    between atoms: C_9  and  O_11 
ROOT
HETATM    1  C   UNK N   1      27.876  21.859  -7.287  0.00  0.00     0.180 C 
HETATM    2  C   UNK N   1      27.620  23.235  -6.710  0.00  0.00     0.241 C 
HETATM    3  O   UNK N   1      28.154  24.221  -7.205  0.00  0.00    -0.271 OA
HETATM    4  N   UNK N   1      26.852  23.352  -5.592  0.00  0.00    -0.345 N 
HETATM    5  C   UNK N   1      26.568  24.591  -4.873  0.00  0.00     0.186 C 
HETATM    6  C   UNK N   1      27.854  25.361  -4.510  0.00  0.00     0.074 C 
HETATM    7  C   UNK N   1      28.901  24.467  -3.936  0.00  0.00    -0.056 A 
HETATM    8  C   UNK N   1      28.782  23.929  -2.648  0.00  0.00     0.010 A 
HETATM    9  C   UNK N   1      29.718  22.990  -2.196  0.00  0.00     0.037 A 
HETATM   10  C   UNK N   1      29.968  24.096  -4.750  0.00  0.00     0.010 A 
HETATM   11  C   UNK N   1      30.888  23.156  -4.308  0.00  0.00     0.037 A 
HETATM   12  C   UNK N   1      30.756  22.573  -3.040  0.00  0.00     0.068 A 
HETATM   13  O   UNK N   1      31.590  21.583  -2.638  0.00  0.00    -0.351 OA
HETATM   14  C   UNK N   1      32.479  20.945  -3.488  0.00  0.00     0.175 C 
HETATM   15  C   UNK N   1      31.736  20.100  -4.526  0.00  0.00     0.027 C 
HETATM   16  C   UNK N   1      31.812  20.753  -5.903  0.00  0.00     0.011 C 
HETATM   17  C   UNK N   1      31.165  19.860  -6.956  0.00  0.00     0.103 C 
HETATM   18  C   UNK N   1      29.755  20.242  -7.322  0.00  0.00     0.218 C 
HETATM   19  O   UNK N   1      29.054  19.413  -7.884  0.00  0.00    -0.274 OA
HETATM   20  N   UNK N   1      29.258  21.477  -7.033  0.00  0.00    -0.347 N 
HETATM   21  H   UNK N   1      26.452  22.526  -5.235  0.00  0.00     0.163 HD
HETATM   22  H   UNK N   1      29.862  22.144  -6.632  0.00  0.00     0.163 HD
ENDROOT
BRANCH   5  23
HETATM   23  C   UNK N   1      25.638  25.487  -5.648  0.00  0.00     0.163 C 
HETATM   24  O   UNK N   1      25.212  26.509  -5.131  0.00  0.00    -0.648 OA
BRANCH  23  25
HETATM   25  O   UNK N   1      25.250  25.164  -6.896  0.00  0.00    -0.775 OA
HETATM   26  H   UNK N   1      24.353  24.956  -7.071  0.00  0.00     0.167 HD
ENDBRANCH  23  25
ENDBRANCH   5  23
BRANCH   1  27
HETATM   27  C   UNK N   1      27.517  21.756  -8.787  0.00  0.00     0.009 C 
HETATM   28  C   UNK N   1      28.467  22.525  -9.692  0.00  0.00     0.012 C 
HETATM   29  C   UNK N   1      26.083  22.180  -9.062  0.00  0.00     0.012 C 
ENDBRANCH   1  27
TORSDOF 3
ENDMDL
MODEL 8
REMARK VINA RESULT:      -6.4     12.825     14.101
REMARK  3 active torsions:
REMARK  status: ('A' for Active; 'I' for Inactive)
REMARK    1  A    between atoms: C_4  and  C_2 
REMARK    2  A    between atoms: C_8  and  C_9 
REMARK    3  A    between atoms: C_9  and  O_11 
ROOT
HETATM    1  C   UNK N   1      27.091  17.594   5.393  0.00  0.00     0.180 C 
HETATM    2  C   UNK N   1      26.267  16.331   5.524  0.00  0.00     0.241 C 
HETATM    3  O   UNK N   1      26.299  15.479   4.643  0.00  0.00    -0.271 OA
HETATM    4  N   UNK N   1      25.435  16.190   6.592  0.00  0.00    -0.345 N 
HETATM    5  C   UNK N   1      24.525  15.074   6.830  0.00  0.00     0.186 C 
HETATM    6  C   UNK N   1      23.608  14.803   5.620  0.00  0.00     0.074 C 
HETATM    7  C   UNK N   1      23.015  16.057   5.074  0.00  0.00    -0.056 A 
HETATM    8  C   UNK N   1      22.013  16.756   5.760  0.00  0.00     0.010 A 
HETATM    9  C   UNK N   1      21.577  17.998   5.281  0.00  0.00     0.037 A 
HETATM   10  C   UNK N   1      23.548  16.580   3.898  0.00  0.00     0.010 A 
HETATM   11  C   UNK N   1      23.126  17.816   3.431  0.00  0.00     0.037 A 
HETATM   12  C   UNK N   1      22.158  18.550   4.131  0.00  0.00     0.068 A 
HETATM   13  O   UNK N   1      21.812  19.800   3.738  0.00  0.00    -0.351 OA
HETATM   14  C   UNK N   1      22.502  20.512   2.771  0.00  0.00     0.175 C 
HETATM   15  C   UNK N   1      23.900  20.895   3.264  0.00  0.00     0.027 C 
HETATM   16  C   UNK N   1      24.964  20.060   2.560  0.00  0.00     0.011 C 
HETATM   17  C   UNK N   1      26.360  20.513   2.971  0.00  0.00     0.103 C 
HETATM   18  C   UNK N   1      27.007  19.666   4.036  0.00  0.00     0.218 C 
HETATM   19  O   UNK N   1      27.952  20.132   4.656  0.00  0.00    -0.274 OA
HETATM   20  N   UNK N   1      26.555  18.412   4.314  0.00  0.00    -0.347 N 
HETATM   21  H   UNK N   1      25.448  16.908   7.266  0.00  0.00     0.163 HD
HETATM   22  H   UNK N   1      25.831  18.040   3.760  0.00  0.00     0.163 HD
ENDROOT
BRANCH   5  23
HETATM   23  C   UNK N   1      25.268  13.816   7.198  0.00  0.00     0.163 C 
HETATM   24  O   UNK N   1      25.363  13.490   8.372  0.00  0.00    -0.648 OA
BRANCH  23  25
HETATM   25  O   UNK N   1      25.851  13.056   6.251  0.00  0.00    -0.775 OA
HETATM   26  H   UNK N   1      26.677  13.307   5.889  0.00  0.00     0.167 HD
ENDBRANCH  23  25
ENDBRANCH   5  23
BRANCH   1  27
HETATM   27  C   UNK N   1      28.601  17.313   5.208  0.00  0.00     0.009 C 
HETATM   28  C   UNK N   1      28.949  16.754   3.837  0.00  0.00     0.012 C 
HETATM   29  C   UNK N   1      29.151  16.403   6.293  0.00  0.00     0.012 C 
ENDBRANCH   1  27
TORSDOF 3
ENDMDL
MODEL 9
REMARK VINA RESULT:      -6.3      1.767      2.399
REMARK  3 active torsions:
REMARK  status: ('A' for Active; 'I' for Inactive)
REMARK    1  A    between atoms: C_4  and  C_2 
REMARK    2  A    between atoms: C_8  and  C_9 
REMARK    3  A    between atoms: C_9  and  O_11 
ROOT
HETATM    1  C   UNK N   1      29.129  22.187  -6.303  0.00  0.00     0.180 C 
HETATM    2  C   UNK N   1      28.061  22.854  -7.144  0.00  0.00     0.241 C 
HETATM    3  O   UNK N   1      28.337  23.297  -8.253  0.00  0.00    -0.271 OA
HETATM    4  N   UNK N   1      26.815  23.021  -6.622  0.00  0.00    -0.345 N 
HETATM    5  C   UNK N   1      25.699  23.704  -7.269  0.00  0.00     0.186 C 
HETATM    6  C   UNK N   1      26.082  25.118  -7.751  0.00  0.00     0.074 C 
HETATM    7  C   UNK N   1      26.833  25.880  -6.713  0.00  0.00    -0.056 A 
HETATM    8  C   UNK N   1      26.203  26.372  -5.561  0.00  0.00     0.010 A 
HETATM    9  C   UNK N   1      26.967  26.965  -4.549  0.00  0.00     0.037 A 
HETATM   10  C   UNK N   1      28.211  26.016  -6.864  0.00  0.00     0.010 A 
HETATM   11  C   UNK N   1      28.970  26.591  -5.855  0.00  0.00     0.037 A 
HETATM   12  C   UNK N   1      28.360  27.045  -4.677  0.00  0.00     0.068 A 
HETATM   13  O   UNK N   1      29.103  27.517  -3.645  0.00  0.00    -0.351 OA
HETATM   14  C   UNK N   1      30.482  27.406  -3.588  0.00  0.00     0.175 C 
HETATM   15  C   UNK N   1      30.910  25.946  -3.421  0.00  0.00     0.027 C 
HETATM   16  C   UNK N   1      31.516  25.413  -4.714  0.00  0.00     0.011 C 
HETATM   17  C   UNK N   1      32.038  23.994  -4.517  0.00  0.00     0.103 C 
HETATM   18  C   UNK N   1      31.112  22.911  -5.005  0.00  0.00     0.218 C 
HETATM   19  O   UNK N   1      31.282  21.771  -4.595  0.00  0.00    -0.274 OA
HETATM   20  N   UNK N   1      30.101  23.183  -5.877  0.00  0.00    -0.347 N 
HETATM   21  H   UNK N   1      26.652  22.649  -5.725  0.00  0.00     0.163 HD
HETATM   22  H   UNK N   1      30.024  24.097  -6.235  0.00  0.00     0.163 HD
ENDROOT
BRANCH   5  23
HETATM   23  C   UNK N   1      25.146  22.905  -8.421  0.00  0.00     0.163 C 
HETATM   24  O   UNK N   1      24.258  22.090  -8.222  0.00  0.00    -0.648 OA
BRANCH  23  25
HETATM   25  O   UNK N   1      25.636  23.060  -9.666  0.00  0.00    -0.775 OA
HETATM   26  H   UNK N   1      25.100  23.428 -10.340  0.00  0.00     0.167 HD
ENDBRANCH  23  25
ENDBRANCH   5  23
BRANCH   1  27
HETATM   27  C   UNK N   1      29.803  20.993  -7.019  0.00  0.00     0.009 C 
HETATM   28  C   UNK N   1      30.820  21.412  -8.069  0.00  0.00     0.012 C 
HETATM   29  C   UNK N   1      28.786  20.046  -7.633  0.00  0.00     0.012 C 
ENDBRANCH   1  27
TORSDOF 3
ENDMDL
