REMARK  3 active torsions:
REMARK  status: ('A' for Active; 'I' for Inactive)
REMARK    1  A    between atoms: C_4  and  C_2 
REMARK    2  A    between atoms: C_8  and  C_9 
REMARK    3  A    between atoms: C_9  and  O_11 
ROOT
HETATM    1  C   UNK N   1       1.806  -0.459   0.336  0.00  0.00     0.180 C 
HETATM    2  C   UNK N   1       0.548  -1.183  -0.094  0.00  0.00     0.241 C 
HETATM    3  O   UNK N   1       0.377  -1.476  -1.272  0.00  0.00    -0.271 OA
HETATM    4  N   UNK N   1      -0.420  -1.435   0.829  0.00  0.00    -0.345 N 
HETATM    5  C   UNK N   1      -1.715  -2.056   0.566  0.00  0.00     0.186 C 
HETATM    6  C   UNK N   1      -2.478  -1.351  -0.574  0.00  0.00     0.074 C 
HETATM    7  C   UNK N   1      -2.453   0.133  -0.431  0.00  0.00    -0.056 A 
HETATM    8  C   UNK N   1      -3.196   0.789   0.560  0.00  0.00     0.010 A 
HETATM    9  C   UNK N   1      -3.043   2.169   0.746  0.00  0.00     0.037 A 
HETATM   10  C   UNK N   1      -1.594   0.859  -1.252  0.00  0.00     0.010 A 
HETATM   11  C   UNK N   1      -1.432   2.223  -1.059  0.00  0.00     0.037 A 
HETATM   12  C   UNK N   1      -2.132   2.886  -0.041  0.00  0.00     0.068 A 
HETATM   13  O   UNK N   1      -1.907   4.197   0.220  0.00  0.00    -0.351 OA
HETATM   14  C   UNK N   1      -0.862   4.915  -0.337  0.00  0.00     0.175 C 
HETATM   15  C   UNK N   1       0.487   4.425   0.196  0.00  0.00     0.027 C 
HETATM   16  C   UNK N   1       1.237   3.644  -0.878  0.00  0.00     0.011 C 
HETATM   17  C   UNK N   1       2.623   3.247  -0.383  0.00  0.00     0.103 C 
HETATM   18  C   UNK N   1       2.729   1.831   0.119  0.00  0.00     0.218 C 
HETATM   19  O   UNK N   1       3.679   1.535   0.830  0.00  0.00    -0.274 OA
HETATM   20  N   UNK N   1       1.792   0.895  -0.199  0.00  0.00    -0.347 N 
HETATM   21  H   UNK N   1      -0.230  -1.174   1.759  0.00  0.00     0.163 HD
HETATM   22  H   UNK N   1       1.070   1.146  -0.820  0.00  0.00     0.163 HD
ENDROOT
BRANCH   5  23
HETATM   23  C   UNK N   1      -1.579  -3.524   0.257  0.00  0.00     0.163 C 
HETATM   24  O   UNK N   1      -2.581  -4.203   0.088  0.00  0.00    -0.648 OA
BRANCH  23  25
HETATM   25  O   UNK N   1      -0.366  -4.105   0.188  0.00  0.00    -0.775 OA
HETATM   26  H   UNK N   1      -0.293  -5.038   0.140  0.00  0.00     0.167 HD
ENDBRANCH  23  25
ENDBRANCH   5  23
BRANCH   1  27
HETATM   27  C   UNK N   1       3.099  -1.216  -0.046  0.00  0.00     0.009 C 
HETATM   28  C   UNK N   1       3.304  -1.346  -1.547  0.00  0.00     0.012 C 
HETATM   29  C   UNK N   1       3.174  -2.586   0.607  0.00  0.00     0.012 C 
ENDBRANCH   1  27
TORSDOF 3
