MODEL 1
REMARK VINA RESULT:      -8.0      0.000      0.000
REMARK  6 active torsions:
REMARK  status: ('A' for Active; 'I' for Inactive)
REMARK    1  A    between atoms: C_10  and  C_11 
REMARK    2  A    between atoms: C_11  and  C_16 
REMARK    3  A    between atoms: C_11  and  P_12 
REMARK    4  A    between atoms: P_12  and  O_13 
REMARK    5  A    between atoms: P_12  and  O_15 
REMARK       I    between atoms: C_16  and  N_18 
REMARK    6  A    between atoms: N_18  and  C_19 
ROOT
HETATM    1  C   UNK N   1      35.600  13.862  11.034  0.00  0.00     0.223 C 
ENDROOT
BRANCH   1   2
HETATM    2  C   UNK N   1      35.013  12.570  11.612  0.00  0.00    -0.015 A 
HETATM    3  C   UNK N   1      34.817  12.212  12.998  0.00  0.00    -0.009 A 
HETATM    4  C   UNK N   1      34.326  10.917  13.165  0.00  0.00     0.015 A 
HETATM    5  C   UNK N   1      35.097  12.973  14.136  0.00  0.00     0.037 A 
HETATM    6  C   UNK N   1      34.102  10.342  14.410  0.00  0.00     0.021 A 
HETATM    7  S   UNK N   1      34.130  10.252  11.676  0.00  0.00    -0.101 SA
HETATM    8  C   UNK N   1      34.394  11.107  15.547  0.00  0.00     0.025 A 
HETATM    9  C   UNK N   1      34.890  12.418  15.412  0.00  0.00     0.035 A 
HETATM   10 Cl   UNK N   1      35.279  13.349  16.841  0.00  0.00    -0.084 Cl
HETATM   11  C   UNK N   1      34.663  11.518  10.735  0.00  0.00     0.059 A 
ENDBRANCH   1   2
BRANCH   1  12
HETATM   12  C   UNK N   1      34.793  14.554   9.943  0.00  0.00     0.242 C 
HETATM   13  O   UNK N   1      33.597  14.734  10.108  0.00  0.00    -0.272 OA
HETATM   14  N   UNK N   1      35.421  15.077   8.849  0.00  0.00    -0.326 N 
HETATM   15  H   UNK N   1      36.400  14.988   8.801  0.00  0.00     0.169 HD
BRANCH  14  16
HETATM   16  C   UNK N   1      34.767  15.740   7.774  0.00  0.00     0.035 A 
HETATM   17  C   UNK N   1      34.329  17.070   7.886  0.00  0.00     0.030 A 
HETATM   18  C   UNK N   1      33.712  17.708   6.804  0.00  0.00     0.014 A 
HETATM   19  C   UNK N   1      33.545  17.026   5.596  0.00  0.00    -0.026 A 
HETATM   20  C   UNK N   1      33.979  15.687   5.478  0.00  0.00    -0.024 A 
HETATM   21  C   UNK N   1      32.960  17.669   4.501  0.00  0.00     0.012 A 
HETATM   22  C   UNK N   1      34.574  15.050   6.570  0.00  0.00     0.042 A 
HETATM   23  C   UNK N   1      33.828  15.012   4.263  0.00  0.00     0.012 A 
HETATM   24  C   UNK N   1      33.250  15.664   3.169  0.00  0.00     0.001 A 
HETATM   25  C   UNK N   1      32.815  16.988   3.288  0.00  0.00     0.001 A 
ENDBRANCH  14  16
ENDBRANCH   1  12
BRANCH   1  26
HETATM   26  P   UNK N   1      37.386  13.604  10.484  0.00  0.00     0.254 P 
HETATM   27  O   UNK N   1      37.461  12.757   9.186  0.00  0.00    -0.653 OA
BRANCH  26  28
HETATM   28  O   UNK N   1      38.304  15.032  10.127  0.00  0.00    -0.328 OA
HETATM   29  H   UNK N   1      38.760  15.793   9.734  0.00  0.00     0.220 HD
ENDBRANCH  26  28
BRANCH  26  30
HETATM   30  O   UNK N   1      38.324  12.679  11.615  0.00  0.00    -0.328 OA
HETATM   31  H   UNK N   1      38.374  11.710  11.628  0.00  0.00     0.220 HD
ENDBRANCH  26  30
ENDBRANCH   1  26
TORSDOF 6
ENDMDL
MODEL 2
REMARK VINA RESULT:      -8.0     12.577     15.353
REMARK  6 active torsions:
REMARK  status: ('A' for Active; 'I' for Inactive)
REMARK    1  A    between atoms: C_10  and  C_11 
REMARK    2  A    between atoms: C_11  and  C_16 
REMARK    3  A    between atoms: C_11  and  P_12 
REMARK    4  A    between atoms: P_12  and  O_13 
REMARK    5  A    between atoms: P_12  and  O_15 
REMARK       I    between atoms: C_16  and  N_18 
REMARK    6  A    between atoms: N_18  and  C_19 
ROOT
HETATM    1  C   UNK N   1      21.377  18.709   4.447  0.00  0.00     0.223 C 
ENDROOT
BRANCH   1   2
HETATM    2  C   UNK N   1      22.748  19.122   3.900  0.00  0.00    -0.015 A 
HETATM    3  C   UNK N   1      24.037  18.523   4.157  0.00  0.00    -0.009 A 
HETATM    4  C   UNK N   1      25.090  19.208   3.551  0.00  0.00     0.015 A 
HETATM    5  C   UNK N   1      24.331  17.408   4.948  0.00  0.00     0.037 A 
HETATM    6  C   UNK N   1      26.422  18.840   3.695  0.00  0.00     0.021 A 
HETATM    7  S   UNK N   1      24.460  20.482   2.728  0.00  0.00    -0.101 SA
HETATM    8  C   UNK N   1      26.710  17.728   4.497  0.00  0.00     0.025 A 
HETATM    9  C   UNK N   1      25.670  17.014   5.122  0.00  0.00     0.035 A 
HETATM   10 Cl   UNK N   1      26.050  15.647   6.145  0.00  0.00    -0.084 Cl
HETATM   11  C   UNK N   1      22.848  20.276   3.090  0.00  0.00     0.059 A 
ENDBRANCH   1   2
BRANCH   1  12
HETATM   12  C   UNK N   1      21.365  17.957   5.771  0.00  0.00     0.242 C 
HETATM   13  O   UNK N   1      21.485  18.581   6.813  0.00  0.00    -0.272 OA
HETATM   14  N   UNK N   1      21.100  16.617   5.800  0.00  0.00    -0.326 N 
HETATM   15  H   UNK N   1      20.920  16.171   4.941  0.00  0.00     0.169 HD
BRANCH  14  16
HETATM   16  C   UNK N   1      21.066  15.819   6.977  0.00  0.00     0.035 A 
HETATM   17  C   UNK N   1      19.987  15.876   7.875  0.00  0.00     0.030 A 
HETATM   18  C   UNK N   1      19.966  15.061   9.011  0.00  0.00     0.014 A 
HETATM   19  C   UNK N   1      21.014  14.169   9.249  0.00  0.00    -0.026 A 
HETATM   20  C   UNK N   1      22.104  14.109   8.353  0.00  0.00    -0.024 A 
HETATM   21  C   UNK N   1      20.983  13.327  10.365  0.00  0.00     0.012 A 
HETATM   22  C   UNK N   1      22.129  14.943   7.231  0.00  0.00     0.042 A 
HETATM   23  C   UNK N   1      23.144  13.203   8.581  0.00  0.00     0.012 A 
HETATM   24  C   UNK N   1      23.102  12.357   9.695  0.00  0.00     0.001 A 
HETATM   25  C   UNK N   1      22.025  12.421  10.586  0.00  0.00     0.001 A 
ENDBRANCH  14  16
ENDBRANCH   1  12
BRANCH   1  26
HETATM   26  P   UNK N   1      20.381  17.781   3.141  0.00  0.00     0.254 P 
HETATM   27  O   UNK N   1      21.206  16.622   2.519  0.00  0.00    -0.653 OA
BRANCH  26  28
HETATM   28  O   UNK N   1      18.909  17.032   3.671  0.00  0.00    -0.328 OA
HETATM   29  H   UNK N   1      18.206  16.527   4.109  0.00  0.00     0.220 HD
ENDBRANCH  26  28
BRANCH  26  30
HETATM   30  O   UNK N   1      19.975  18.760   1.765  0.00  0.00    -0.328 OA
HETATM   31  H   UNK N   1      20.353  19.634   1.579  0.00  0.00     0.220 HD
ENDBRANCH  26  30
ENDBRANCH   1  26
TORSDOF 6
ENDMDL
MODEL 3
REMARK VINA RESULT:      -7.8      4.804      8.828
REMARK  6 active torsions:
REMARK  status: ('A' for Active; 'I' for Inactive)
REMARK    1  A    between atoms: C_10  and  C_11 
REMARK    2  A    between atoms: C_11  and  C_16 
REMARK    3  A    between atoms: C_11  and  P_12 
REMARK    4  A    between atoms: P_12  and  O_13 
REMARK    5  A    between atoms: P_12  and  O_15 
REMARK       I    between atoms: C_16  and  N_18 
REMARK    6  A    between atoms: N_18  and  C_19 
ROOT
HETATM    1  C   UNK N   1      36.307  14.478  11.342  0.00  0.00     0.223 C 
ENDROOT
BRANCH   1   2
HETATM    2  C   UNK N   1      36.947  13.594  10.267  0.00  0.00    -0.015 A 
HETATM    3  C   UNK N   1      36.418  12.398   9.652  0.00  0.00    -0.009 A 
HETATM    4  C   UNK N   1      37.309  11.800   8.761  0.00  0.00     0.015 A 
HETATM    5  C   UNK N   1      35.183  11.783   9.879  0.00  0.00     0.037 A 
HETATM    6  C   UNK N   1      37.032  10.617   8.087  0.00  0.00     0.021 A 
HETATM    7  S   UNK N   1      38.677  12.708   8.724  0.00  0.00    -0.101 SA
HETATM    8  C   UNK N   1      35.797  10.000   8.326  0.00  0.00     0.025 A 
HETATM    9  C   UNK N   1      34.875  10.579   9.218  0.00  0.00     0.035 A 
HETATM   10 Cl   UNK N   1      33.351   9.781   9.529  0.00  0.00    -0.084 Cl
HETATM   11  C   UNK N   1      38.258  13.884   9.825  0.00  0.00     0.059 A 
ENDBRANCH   1   2
BRANCH   1  12
HETATM   12  C   UNK N   1      35.872  13.789  12.628  0.00  0.00     0.242 C 
HETATM   13  O   UNK N   1      34.688  13.555  12.810  0.00  0.00    -0.272 OA
HETATM   14  N   UNK N   1      36.807  13.326  13.510  0.00  0.00    -0.326 N 
HETATM   15  H   UNK N   1      37.754  13.456  13.279  0.00  0.00     0.169 HD
BRANCH  14  16
HETATM   16  C   UNK N   1      36.512  12.671  14.739  0.00  0.00     0.035 A 
HETATM   17  C   UNK N   1      36.754  11.298  14.918  0.00  0.00     0.030 A 
HETATM   18  C   UNK N   1      36.481  10.685  16.145  0.00  0.00     0.014 A 
HETATM   19  C   UNK N   1      35.982  11.441  17.208  0.00  0.00    -0.026 A 
HETATM   20  C   UNK N   1      35.733  12.821  17.034  0.00  0.00    -0.024 A 
HETATM   21  C   UNK N   1      35.740  10.841  18.447  0.00  0.00     0.012 A 
HETATM   22  C   UNK N   1      35.988  13.423  15.798  0.00  0.00     0.042 A 
HETATM   23  C   UNK N   1      35.253  13.582  18.103  0.00  0.00     0.012 A 
HETATM   24  C   UNK N   1      35.020  12.976  19.343  0.00  0.00     0.001 A 
HETATM   25  C   UNK N   1      35.261  11.608  19.513  0.00  0.00     0.001 A 
ENDBRANCH  14  16
ENDBRANCH   1  12
BRANCH   1  26
HETATM   26  P   UNK N   1      34.896  15.502  10.620  0.00  0.00     0.254 P 
HETATM   27  O   UNK N   1      34.908  15.467   9.068  0.00  0.00    -0.653 OA
BRANCH  26  28
HETATM   28  O   UNK N   1      33.286  15.024  11.054  0.00  0.00    -0.328 OA
HETATM   29  H   UNK N   1      32.387  14.664  11.115  0.00  0.00     0.220 HD
ENDBRANCH  26  28
BRANCH  26  30
HETATM   30  O   UNK N   1      35.026  17.196  10.979  0.00  0.00    -0.328 OA
HETATM   31  H   UNK N   1      34.413  17.689  11.546  0.00  0.00     0.220 HD
ENDBRANCH  26  30
ENDBRANCH   1  26
TORSDOF 6
ENDMDL
MODEL 4
REMARK VINA RESULT:      -7.4      4.793      8.779
REMARK  6 active torsions:
REMARK  status: ('A' for Active; 'I' for Inactive)
REMARK    1  A    between atoms: C_10  and  C_11 
REMARK    2  A    between atoms: C_11  and  C_16 
REMARK    3  A    between atoms: C_11  and  P_12 
REMARK    4  A    between atoms: P_12  and  O_13 
REMARK    5  A    between atoms: P_12  and  O_15 
REMARK       I    between atoms: C_16  and  N_18 
REMARK    6  A    between atoms: N_18  and  C_19 
ROOT
HETATM    1  C   UNK N   1      32.451  15.956   7.055  0.00  0.00     0.223 C 
ENDROOT
BRANCH   1   2
HETATM    2  C   UNK N   1      31.315  16.847   7.570  0.00  0.00    -0.015 A 
HETATM    3  C   UNK N   1      30.097  17.231   6.896  0.00  0.00    -0.009 A 
HETATM    4  C   UNK N   1      29.318  18.120   7.636  0.00  0.00     0.015 A 
HETATM    5  C   UNK N   1      29.659  16.859   5.621  0.00  0.00     0.037 A 
HETATM    6  C   UNK N   1      28.125  18.659   7.169  0.00  0.00     0.021 A 
HETATM    7  S   UNK N   1      30.088  18.407   9.058  0.00  0.00    -0.101 SA
HETATM    8  C   UNK N   1      27.698  18.290   5.887  0.00  0.00     0.025 A 
HETATM    9  C   UNK N   1      28.460  17.394   5.115  0.00  0.00     0.035 A 
HETATM   10 Cl   UNK N   1      27.928  16.966   3.505  0.00  0.00    -0.084 Cl
HETATM   11  C   UNK N   1      31.443  17.466   8.834  0.00  0.00     0.059 A 
ENDBRANCH   1   2
BRANCH   1  12
HETATM   12  C   UNK N   1      33.058  14.976   8.050  0.00  0.00     0.242 C 
HETATM   13  O   UNK N   1      32.430  13.978   8.366  0.00  0.00    -0.272 OA
HETATM   14  N   UNK N   1      34.341  15.146   8.489  0.00  0.00    -0.326 N 
HETATM   15  H   UNK N   1      34.843  15.917   8.138  0.00  0.00     0.169 HD
BRANCH  14  16
HETATM   16  C   UNK N   1      35.004  14.295   9.416  0.00  0.00     0.035 A 
HETATM   17  C   UNK N   1      35.696  13.147   8.997  0.00  0.00     0.030 A 
HETATM   18  C   UNK N   1      36.363  12.341   9.926  0.00  0.00     0.014 A 
HETATM   19  C   UNK N   1      36.358  12.688  11.279  0.00  0.00    -0.026 A 
HETATM   20  C   UNK N   1      35.661  13.839  11.709  0.00  0.00    -0.024 A 
HETATM   21  C   UNK N   1      37.051  11.906  12.209  0.00  0.00     0.012 A 
HETATM   22  C   UNK N   1      34.978  14.627  10.777  0.00  0.00     0.042 A 
HETATM   23  C   UNK N   1      35.672  14.196  13.060  0.00  0.00     0.012 A 
HETATM   24  C   UNK N   1      36.375  13.414  13.983  0.00  0.00     0.001 A 
HETATM   25  C   UNK N   1      37.061  12.270  13.559  0.00  0.00     0.001 A 
ENDBRANCH  14  16
ENDBRANCH   1  12
BRANCH   1  26
HETATM   26  P   UNK N   1      33.794  16.988   6.226  0.00  0.00     0.254 P 
HETATM   27  O   UNK N   1      34.950  16.095   5.700  0.00  0.00    -0.653 OA
BRANCH  26  28
HETATM   28  O   UNK N   1      33.314  17.931   4.852  0.00  0.00    -0.328 OA
HETATM   29  H   UNK N   1      32.968  18.282   4.016  0.00  0.00     0.220 HD
ENDBRANCH  26  28
BRANCH  26  30
HETATM   30  O   UNK N   1      34.598  18.073   7.319  0.00  0.00    -0.328 OA
HETATM   31  H   UNK N   1      35.037  18.897   7.054  0.00  0.00     0.220 HD
ENDBRANCH  26  30
ENDBRANCH   1  26
TORSDOF 6
ENDMDL
MODEL 5
REMARK VINA RESULT:      -7.3      1.485      2.183
REMARK  6 active torsions:
REMARK  status: ('A' for Active; 'I' for Inactive)
REMARK    1  A    between atoms: C_10  and  C_11 
REMARK    2  A    between atoms: C_11  and  C_16 
REMARK    3  A    between atoms: C_11  and  P_12 
REMARK    4  A    between atoms: P_12  and  O_13 
REMARK    5  A    between atoms: P_12  and  O_15 
REMARK       I    between atoms: C_16  and  N_18 
REMARK    6  A    between atoms: N_18  and  C_19 
ROOT
HETATM    1  C   UNK N   1      34.766  14.135  10.983  0.00  0.00     0.223 C 
ENDROOT
BRANCH   1   2
HETATM    2  C   UNK N   1      35.357  12.791  11.420  0.00  0.00    -0.015 A 
HETATM    3  C   UNK N   1      35.462  12.245  12.754  0.00  0.00    -0.009 A 
HETATM    4  C   UNK N   1      36.131  11.021  12.794  0.00  0.00     0.015 A 
HETATM    5  C   UNK N   1      35.025  12.808  13.956  0.00  0.00     0.037 A 
HETATM    6  C   UNK N   1      36.388  10.332  13.973  0.00  0.00     0.021 A 
HETATM    7  S   UNK N   1      36.560  10.626  11.259  0.00  0.00    -0.101 SA
HETATM    8  C   UNK N   1      35.956  10.907  15.175  0.00  0.00     0.025 A 
HETATM    9  C   UNK N   1      35.277  12.140  15.169  0.00  0.00     0.035 A 
HETATM   10 Cl   UNK N   1      34.771  12.859  16.681  0.00  0.00    -0.084 Cl
HETATM   11  C   UNK N   1      35.964  11.956  10.454  0.00  0.00     0.059 A 
ENDBRANCH   1   2
BRANCH   1  12
HETATM   12  C   UNK N   1      34.314  14.245   9.533  0.00  0.00     0.242 C 
HETATM   13  O   UNK N   1      33.275  13.706   9.188  0.00  0.00    -0.272 OA
HETATM   14  N   UNK N   1      34.997  15.041   8.658  0.00  0.00    -0.326 N 
HETATM   15  H   UNK N   1      35.778  15.530   9.002  0.00  0.00     0.169 HD
BRANCH  14  16
HETATM   16  C   UNK N   1      34.664  15.215   7.285  0.00  0.00     0.035 A 
HETATM   17  C   UNK N   1      35.149  14.346   6.294  0.00  0.00     0.030 A 
HETATM   18  C   UNK N   1      34.785  14.523   4.955  0.00  0.00     0.014 A 
HETATM   19  C   UNK N   1      33.918  15.559   4.599  0.00  0.00    -0.026 A 
HETATM   20  C   UNK N   1      33.430  16.440   5.590  0.00  0.00    -0.024 A 
HETATM   21  C   UNK N   1      33.523  15.721   3.268  0.00  0.00     0.012 A 
HETATM   22  C   UNK N   1      33.816  16.270   6.923  0.00  0.00     0.042 A 
HETATM   23  C   UNK N   1      32.548  17.465   5.237  0.00  0.00     0.012 A 
HETATM   24  C   UNK N   1      32.150  17.616   3.904  0.00  0.00     0.001 A 
HETATM   25  C   UNK N   1      32.639  16.748   2.921  0.00  0.00     0.001 A 
ENDBRANCH  14  16
ENDBRANCH   1  12
BRANCH   1  26
HETATM   26  P   UNK N   1      35.916  15.558  11.436  0.00  0.00     0.254 P 
HETATM   27  O   UNK N   1      35.262  16.933  11.134  0.00  0.00    -0.653 OA
BRANCH  26  28
HETATM   28  O   UNK N   1      36.405  15.665  13.097  0.00  0.00    -0.328 OA
HETATM   29  H   UNK N   1      36.703  15.523  14.010  0.00  0.00     0.220 HD
ENDBRANCH  26  28
BRANCH  26  30
HETATM   30  O   UNK N   1      37.370  15.594  10.486  0.00  0.00    -0.328 OA
HETATM   31  H   UNK N   1      37.440  15.273   9.573  0.00  0.00     0.220 HD
ENDBRANCH  26  30
ENDBRANCH   1  26
TORSDOF 6
ENDMDL
MODEL 6
REMARK VINA RESULT:      -7.2     18.478     21.281
REMARK  6 active torsions:
REMARK  status: ('A' for Active; 'I' for Inactive)
REMARK    1  A    between atoms: C_10  and  C_11 
REMARK    2  A    between atoms: C_11  and  C_16 
REMARK    3  A    between atoms: C_11  and  P_12 
REMARK    4  A    between atoms: P_12  and  O_13 
REMARK    5  A    between atoms: P_12  and  O_15 
REMARK       I    between atoms: C_16  and  N_18 
REMARK    6  A    between atoms: N_18  and  C_19 
ROOT
HETATM    1  C   UNK N   1      27.214  23.207  -8.331  0.00  0.00     0.223 C 
ENDROOT
BRANCH   1   2
HETATM    2  C   UNK N   1      28.196  22.109  -7.906  0.00  0.00    -0.015 A 
HETATM    3  C   UNK N   1      28.914  21.977  -6.660  0.00  0.00    -0.009 A 
HETATM    4  C   UNK N   1      29.788  20.890  -6.644  0.00  0.00     0.015 A 
HETATM    5  C   UNK N   1      28.862  22.810  -5.539  0.00  0.00     0.037 A 
HETATM    6  C   UNK N   1      30.614  20.592  -5.567  0.00  0.00     0.021 A 
HETATM    7  S   UNK N   1      29.669  20.122  -8.091  0.00  0.00    -0.101 SA
HETATM    8  C   UNK N   1      30.564  21.437  -4.451  0.00  0.00     0.025 A 
HETATM    9  C   UNK N   1      29.692  22.542  -4.435  0.00  0.00     0.035 A 
HETATM   10 Cl   UNK N   1      29.664  23.604  -3.046  0.00  0.00    -0.084 Cl
HETATM   11  C   UNK N   1      28.546  21.102  -8.834  0.00  0.00     0.059 A 
ENDBRANCH   1   2
BRANCH   1  12
HETATM   12  C   UNK N   1      27.342  24.551  -7.626  0.00  0.00     0.242 C 
HETATM   13  O   UNK N   1      28.318  25.250  -7.845  0.00  0.00    -0.272 OA
HETATM   14  N   UNK N   1      26.319  25.024  -6.855  0.00  0.00    -0.326 N 
HETATM   15  H   UNK N   1      25.511  24.466  -6.778  0.00  0.00     0.169 HD
BRANCH  14  16
HETATM   16  C   UNK N   1      26.333  26.261  -6.152  0.00  0.00     0.035 A 
HETATM   17  C   UNK N   1      25.510  26.484  -5.035  0.00  0.00     0.030 A 
HETATM   18  C   UNK N   1      25.563  27.699  -4.346  0.00  0.00     0.014 A 
HETATM   19  C   UNK N   1      26.452  28.695  -4.756  0.00  0.00    -0.026 A 
HETATM   20  C   UNK N   1      27.280  28.480  -5.881  0.00  0.00    -0.024 A 
HETATM   21  C   UNK N   1      26.535  29.900  -4.051  0.00  0.00     0.012 A 
HETATM   22  C   UNK N   1      27.205  27.271  -6.578  0.00  0.00     0.042 A 
HETATM   23  C   UNK N   1      28.184  29.469  -6.280  0.00  0.00     0.012 A 
HETATM   24  C   UNK N   1      28.266  30.669  -5.564  0.00  0.00     0.001 A 
HETATM   25  C   UNK N   1      27.443  30.885  -4.454  0.00  0.00     0.001 A 
ENDBRANCH  14  16
ENDBRANCH   1  12
BRANCH   1  26
HETATM   26  P   UNK N   1      25.435  22.583  -8.267  0.00  0.00     0.254 P 
HETATM   27  O   UNK N   1      24.440  23.659  -8.780  0.00  0.00    -0.653 OA
BRANCH  26  28
HETATM   28  O   UNK N   1      25.072  21.171  -9.205  0.00  0.00    -0.328 OA
HETATM   29  H   UNK N   1      24.830  20.296  -9.549  0.00  0.00     0.220 HD
ENDBRANCH  26  28
BRANCH  26  30
HETATM   30  O   UNK N   1      24.878  22.266  -6.653  0.00  0.00    -0.328 OA
HETATM   31  H   UNK N   1      24.149  22.737  -6.219  0.00  0.00     0.220 HD
ENDBRANCH  26  30
ENDBRANCH   1  26
TORSDOF 6
ENDMDL
MODEL 7
REMARK VINA RESULT:      -7.2     12.144     15.170
REMARK  6 active torsions:
REMARK  status: ('A' for Active; 'I' for Inactive)
REMARK    1  A    between atoms: C_10  and  C_11 
REMARK    2  A    between atoms: C_11  and  C_16 
REMARK    3  A    between atoms: C_11  and  P_12 
REMARK    4  A    between atoms: P_12  and  O_13 
REMARK    5  A    between atoms: P_12  and  O_15 
REMARK       I    between atoms: C_16  and  N_18 
REMARK    6  A    between atoms: N_18  and  C_19 
ROOT
HETATM    1  C   UNK N   1      22.552  16.008   4.764  0.00  0.00     0.223 C 
ENDROOT
BRANCH   1   2
HETATM    2  C   UNK N   1      23.613  17.087   4.523  0.00  0.00    -0.015 A 
HETATM    3  C   UNK N   1      23.450  18.392   3.924  0.00  0.00    -0.009 A 
HETATM    4  C   UNK N   1      24.651  19.087   3.790  0.00  0.00     0.015 A 
HETATM    5  C   UNK N   1      22.277  18.984   3.446  0.00  0.00     0.037 A 
HETATM    6  C   UNK N   1      24.743  20.343   3.202  0.00  0.00     0.021 A 
HETATM    7  S   UNK N   1      25.853  18.145   4.394  0.00  0.00    -0.101 SA
HETATM    8  C   UNK N   1      23.566  20.926   2.715  0.00  0.00     0.025 A 
HETATM    9  C   UNK N   1      22.337  20.250   2.836  0.00  0.00     0.035 A 
HETATM   10 Cl   UNK N   1      20.881  20.979   2.197  0.00  0.00    -0.084 Cl
HETATM   11  C   UNK N   1      24.963  16.810   4.836  0.00  0.00     0.059 A 
ENDBRANCH   1   2
BRANCH   1  12
HETATM   12  C   UNK N   1      22.302  15.604   6.211  0.00  0.00     0.242 C 
HETATM   13  O   UNK N   1      21.846  16.424   6.991  0.00  0.00    -0.272 OA
HETATM   14  N   UNK N   1      22.470  14.306   6.602  0.00  0.00    -0.326 N 
HETATM   15  H   UNK N   1      22.754  13.658   5.917  0.00  0.00     0.169 HD
BRANCH  14  16
HETATM   16  C   UNK N   1      22.268  13.820   7.924  0.00  0.00     0.035 A 
HETATM   17  C   UNK N   1      20.988  13.762   8.499  0.00  0.00     0.030 A 
HETATM   18  C   UNK N   1      20.813  13.255   9.791  0.00  0.00     0.014 A 
HETATM   19  C   UNK N   1      21.914  12.786  10.511  0.00  0.00    -0.026 A 
HETATM   20  C   UNK N   1      23.205  12.845   9.940  0.00  0.00    -0.024 A 
HETATM   21  C   UNK N   1      21.741  12.246  11.789  0.00  0.00     0.012 A 
HETATM   22  C   UNK N   1      23.375  13.373   8.657  0.00  0.00     0.042 A 
HETATM   23  C   UNK N   1      24.304  12.358  10.653  0.00  0.00     0.012 A 
HETATM   24  C   UNK N   1      24.122  11.812  11.929  0.00  0.00     0.001 A 
HETATM   25  C   UNK N   1      22.845  11.758  12.496  0.00  0.00     0.001 A 
ENDBRANCH  14  16
ENDBRANCH   1  12
BRANCH   1  26
HETATM   26  P   UNK N   1      22.875  14.492   3.691  0.00  0.00     0.254 P 
HETATM   27  O   UNK N   1      23.108  14.888   2.208  0.00  0.00    -0.653 OA
BRANCH  26  28
HETATM   28  O   UNK N   1      24.255  13.525   4.105  0.00  0.00    -0.328 OA
HETATM   29  H   UNK N   1      25.037  13.107   4.499  0.00  0.00     0.220 HD
ENDBRANCH  26  28
BRANCH  26  30
HETATM   30  O   UNK N   1      21.518  13.412   3.603  0.00  0.00    -0.328 OA
HETATM   31  H   UNK N   1      20.592  13.694   3.545  0.00  0.00     0.220 HD
ENDBRANCH  26  30
ENDBRANCH   1  26
TORSDOF 6
ENDMDL
MODEL 8
REMARK VINA RESULT:      -7.2      3.319      8.990
REMARK  6 active torsions:
REMARK  status: ('A' for Active; 'I' for Inactive)
REMARK    1  A    between atoms: C_10  and  C_11 
REMARK    2  A    between atoms: C_11  and  C_16 
REMARK    3  A    between atoms: C_11  and  P_12 
REMARK    4  A    between atoms: P_12  and  O_13 
REMARK    5  A    between atoms: P_12  and  O_15 
REMARK       I    between atoms: C_16  and  N_18 
REMARK    6  A    between atoms: N_18  and  C_19 
ROOT
HETATM    1  C   UNK N   1      35.931  13.194  10.246  0.00  0.00     0.223 C 
ENDROOT
BRANCH   1   2
HETATM    2  C   UNK N   1      35.538  14.664  10.062  0.00  0.00    -0.015 A 
HETATM    3  C   UNK N   1      35.026  15.317   8.880  0.00  0.00    -0.009 A 
HETATM    4  C   UNK N   1      34.847  16.691   9.047  0.00  0.00     0.015 A 
HETATM    5  C   UNK N   1      34.746  14.753   7.632  0.00  0.00     0.037 A 
HETATM    6  C   UNK N   1      34.405  17.530   8.031  0.00  0.00     0.021 A 
HETATM    7  S   UNK N   1      35.286  17.077  10.581  0.00  0.00    -0.101 SA
HETATM    8  C   UNK N   1      34.137  16.960   6.780  0.00  0.00     0.025 A 
HETATM    9  C   UNK N   1      34.306  15.577   6.579  0.00  0.00     0.035 A 
HETATM   10 Cl   UNK N   1      33.996  14.885   5.003  0.00  0.00    -0.084 Cl
HETATM   11  C   UNK N   1      35.746  15.572  11.125  0.00  0.00     0.059 A 
ENDBRANCH   1   2
BRANCH   1  12
HETATM   12  C   UNK N   1      35.656  12.577  11.611  0.00  0.00     0.242 C 
HETATM   13  O   UNK N   1      34.685  11.852  11.755  0.00  0.00    -0.272 OA
HETATM   14  N   UNK N   1      36.553  12.732  12.630  0.00  0.00    -0.326 N 
HETATM   15  H   UNK N   1      37.369  13.250  12.442  0.00  0.00     0.169 HD
BRANCH  14  16
HETATM   16  C   UNK N   1      36.397  12.202  13.941  0.00  0.00     0.035 A 
HETATM   17  C   UNK N   1      36.822  10.903  14.266  0.00  0.00     0.030 A 
HETATM   18  C   UNK N   1      36.681  10.415  15.569  0.00  0.00     0.014 A 
HETATM   19  C   UNK N   1      36.131  11.229  16.562  0.00  0.00    -0.026 A 
HETATM   20  C   UNK N   1      35.697  12.535  16.242  0.00  0.00    -0.024 A 
HETATM   21  C   UNK N   1      36.018  10.760  17.875  0.00  0.00     0.012 A 
HETATM   22  C   UNK N   1      35.821  13.007  14.932  0.00  0.00     0.042 A 
HETATM   23  C   UNK N   1      35.164  13.356  17.239  0.00  0.00     0.012 A 
HETATM   24  C   UNK N   1      35.062  12.882  18.552  0.00  0.00     0.001 A 
HETATM   25  C   UNK N   1      35.486  11.587  18.869  0.00  0.00     0.001 A 
ENDBRANCH  14  16
ENDBRANCH   1  12
BRANCH   1  26
HETATM   26  P   UNK N   1      37.720  12.904   9.727  0.00  0.00     0.254 P 
HETATM   27  O   UNK N   1      38.032  11.389   9.593  0.00  0.00    -0.653 OA
BRANCH  26  28
HETATM   28  O   UNK N   1      38.211  13.586   8.209  0.00  0.00    -0.328 OA
HETATM   29  H   UNK N   1      38.392  13.803   7.281  0.00  0.00     0.220 HD
ENDBRANCH  26  28
BRANCH  26  30
HETATM   30  O   UNK N   1      38.873  13.442  10.910  0.00  0.00    -0.328 OA
HETATM   31  H   UNK N   1      39.833  13.323  10.838  0.00  0.00     0.220 HD
ENDBRANCH  26  30
ENDBRANCH   1  26
TORSDOF 6
ENDMDL
MODEL 9
REMARK VINA RESULT:      -7.2      1.410      2.156
REMARK  6 active torsions:
REMARK  status: ('A' for Active; 'I' for Inactive)
REMARK    1  A    between atoms: C_10  and  C_11 
REMARK    2  A    between atoms: C_11  and  C_16 
REMARK    3  A    between atoms: C_11  and  P_12 
REMARK    4  A    between atoms: P_12  and  O_13 
REMARK    5  A    between atoms: P_12  and  O_15 
REMARK       I    between atoms: C_16  and  N_18 
REMARK    6  A    between atoms: N_18  and  C_19 
ROOT
HETATM    1  C   UNK N   1      35.927  14.234  10.986  0.00  0.00     0.223 C 
ENDROOT
BRANCH   1   2
HETATM    2  C   UNK N   1      35.512  13.298  12.126  0.00  0.00    -0.015 A 
HETATM    3  C   UNK N   1      35.767  13.435  13.541  0.00  0.00    -0.009 A 
HETATM    4  C   UNK N   1      35.308  12.350  14.288  0.00  0.00     0.015 A 
HETATM    5  C   UNK N   1      36.433  14.470  14.204  0.00  0.00     0.037 A 
HETATM    6  C   UNK N   1      35.481  12.243  15.663  0.00  0.00     0.021 A 
HETATM    7  S   UNK N   1      34.610  11.281  13.255  0.00  0.00    -0.101 SA
HETATM    8  C   UNK N   1      36.159  13.279  16.319  0.00  0.00     0.025 A 
HETATM    9  C   UNK N   1      36.633  14.388  15.594  0.00  0.00     0.035 A 
HETATM   10 Cl   UNK N   1      37.503  15.658  16.424  0.00  0.00    -0.084 Cl
HETATM   11  C   UNK N   1      34.854  12.085  11.817  0.00  0.00     0.059 A 
ENDBRANCH   1   2
BRANCH   1  12
HETATM   12  C   UNK N   1      34.868  14.551   9.938  0.00  0.00     0.242 C 
HETATM   13  O   UNK N   1      33.810  15.049  10.289  0.00  0.00    -0.272 OA
HETATM   14  N   UNK N   1      35.145  14.395   8.610  0.00  0.00    -0.326 N 
HETATM   15  H   UNK N   1      36.044  14.075   8.368  0.00  0.00     0.169 HD
BRANCH  14  16
HETATM   16  C   UNK N   1      34.232  14.658   7.551  0.00  0.00     0.035 A 
HETATM   17  C   UNK N   1      33.235  13.735   7.191  0.00  0.00     0.030 A 
HETATM   18  C   UNK N   1      32.333  14.030   6.164  0.00  0.00     0.014 A 
HETATM   19  C   UNK N   1      32.409  15.257   5.501  0.00  0.00    -0.026 A 
HETATM   20  C   UNK N   1      33.411  16.188   5.854  0.00  0.00    -0.024 A 
HETATM   21  C   UNK N   1      31.488  15.572   4.496  0.00  0.00     0.012 A 
HETATM   22  C   UNK N   1      34.323  15.877   6.867  0.00  0.00     0.042 A 
HETATM   23  C   UNK N   1      33.474  17.423   5.203  0.00  0.00     0.012 A 
HETATM   24  C   UNK N   1      32.545  17.735   4.205  0.00  0.00     0.001 A 
HETATM   25  C   UNK N   1      31.556  16.811   3.851  0.00  0.00     0.001 A 
ENDBRANCH  14  16
ENDBRANCH   1  12
BRANCH   1  26
HETATM   26  P   UNK N   1      37.520  13.639  10.170  0.00  0.00     0.254 P 
HETATM   27  O   UNK N   1      38.348  12.746  11.132  0.00  0.00    -0.653 OA
BRANCH  26  28
HETATM   28  O   UNK N   1      37.348  12.686   8.731  0.00  0.00    -0.328 OA
HETATM   29  H   UNK N   1      37.445  12.211   7.890  0.00  0.00     0.220 HD
ENDBRANCH  26  28
BRANCH  26  30
HETATM   30  O   UNK N   1      38.616  14.930   9.786  0.00  0.00    -0.328 OA
HETATM   31  H   UNK N   1      39.477  14.812   9.354  0.00  0.00     0.220 HD
ENDBRANCH  26  30
ENDBRANCH   1  26
TORSDOF 6
ENDMDL
