MODEL 1
REMARK VINA RESULT:      -5.0      0.000      0.000
REMARK  11 active torsions:
REMARK  status: ('A' for Active; 'I' for Inactive)
REMARK    1  A    between atoms: S_1  and  C_5 
REMARK    2  A    between atoms: C_5  and  C_6 
REMARK    3  A    between atoms: C_6  and  C_7 
REMARK    4  A    between atoms: C_7  and  C_8 
REMARK    5  A    between atoms: C_8  and  C_9 
REMARK    6  A    between atoms: C_9  and  C_10 
REMARK    7  A    between atoms: C_10  and  C_11 
REMARK    8  A    between atoms: C_11  and  C_12 
REMARK    9  A    between atoms: C_12  and  C_13 
REMARK   10  A    between atoms: C_13  and  C_14 
REMARK   11  A    between atoms: C_14  and  C_15 
ROOT
HETATM    1  C   UNK N   1      27.158  23.847  -5.470  0.00  0.00     0.000 C 
ENDROOT
BRANCH   1   2
HETATM    2  C   UNK N   1      27.248  24.249  -4.009  0.00  0.00     0.001 C 
BRANCH   2   3
HETATM    3  C   UNK N   1      28.698  24.376  -3.590  0.00  0.00     0.018 C 
BRANCH   3   4
HETATM    4  C   UNK N   1      29.180  23.076  -2.963  0.00  0.00     0.165 C 
BRANCH   4   5
HETATM    5  S   UNK N   1      30.990  23.093  -2.831  0.00  0.00     0.101 S 
HETATM    6  O   UNK N   1      31.642  21.820  -2.279  0.00  0.00    -0.595 OA
HETATM    7  O   UNK N   1      30.371  23.135  -1.426  0.00  0.00    -0.595 OA
HETATM    8  O   UNK N   1      30.200  21.835  -3.691  0.00  0.00    -0.595 OA
ENDBRANCH   4   5
ENDBRANCH   3   4
ENDBRANCH   2   3
ENDBRANCH   1   2
BRANCH   1   9
HETATM    9  C   UNK N   1      26.256  24.830  -6.177  0.00  0.00     0.000 C 
BRANCH   9  10
HETATM   10  C   UNK N   1      25.206  25.384  -5.238  0.00  0.00     0.000 C 
BRANCH  10  11
HETATM   11  C   UNK N   1      24.879  26.774  -5.734  0.00  0.00     0.000 C 
BRANCH  11  12
HETATM   12  C   UNK N   1      25.922  27.791  -5.332  0.00  0.00     0.000 C 
BRANCH  12  13
HETATM   13  C   UNK N   1      25.726  28.041  -3.852  0.00  0.00     0.000 C 
BRANCH  13  14
HETATM   14  C   UNK N   1      27.025  28.397  -3.167  0.00  0.00    -0.000 C 
BRANCH  14  15
HETATM   15  C   UNK N   1      28.085  28.564  -4.237  0.00  0.00    -0.005 C 
HETATM   16  C   UNK N   1      29.374  27.906  -3.795  0.00  0.00     0.005 C 
ENDBRANCH  14  15
ENDBRANCH  13  14
ENDBRANCH  12  13
ENDBRANCH  11  12
ENDBRANCH  10  11
ENDBRANCH   9  10
ENDBRANCH   1   9
TORSDOF 11
ENDMDL
MODEL 2
REMARK VINA RESULT:      -4.8      1.242      2.002
REMARK  11 active torsions:
REMARK  status: ('A' for Active; 'I' for Inactive)
REMARK    1  A    between atoms: S_1  and  C_5 
REMARK    2  A    between atoms: C_5  and  C_6 
REMARK    3  A    between atoms: C_6  and  C_7 
REMARK    4  A    between atoms: C_7  and  C_8 
REMARK    5  A    between atoms: C_8  and  C_9 
REMARK    6  A    between atoms: C_9  and  C_10 
REMARK    7  A    between atoms: C_10  and  C_11 
REMARK    8  A    between atoms: C_11  and  C_12 
REMARK    9  A    between atoms: C_12  and  C_13 
REMARK   10  A    between atoms: C_13  and  C_14 
REMARK   11  A    between atoms: C_14  and  C_15 
ROOT
HETATM    1  C   UNK N   1      28.339  24.151  -5.505  0.00  0.00     0.000 C 
ENDROOT
BRANCH   1   2
HETATM    2  C   UNK N   1      28.064  24.664  -4.103  0.00  0.00     0.001 C 
BRANCH   2   3
HETATM    3  C   UNK N   1      28.499  23.639  -3.076  0.00  0.00     0.018 C 
BRANCH   3   4
HETATM    4  C   UNK N   1      30.009  23.680  -2.899  0.00  0.00     0.165 C 
BRANCH   4   5
HETATM    5  S   UNK N   1      30.674  21.991  -2.914  0.00  0.00     0.101 S 
HETATM    6  O   UNK N   1      32.099  21.818  -2.373  0.00  0.00    -0.595 OA
HETATM    7  O   UNK N   1      31.400  22.840  -3.968  0.00  0.00    -0.595 OA
HETATM    8  O   UNK N   1      30.662  22.901  -1.458  0.00  0.00    -0.595 OA
ENDBRANCH   4   5
ENDBRANCH   3   4
ENDBRANCH   2   3
ENDBRANCH   1   2
BRANCH   1   9
HETATM    9  C   UNK N   1      27.095  23.459  -6.008  0.00  0.00     0.000 C 
BRANCH   9  10
HETATM   10  C   UNK N   1      25.862  24.304  -5.768  0.00  0.00     0.000 C 
BRANCH  10  11
HETATM   11  C   UNK N   1      25.720  25.207  -6.972  0.00  0.00     0.000 C 
BRANCH  11  12
HETATM   12  C   UNK N   1      25.463  26.646  -6.587  0.00  0.00     0.000 C 
BRANCH  12  13
HETATM   13  C   UNK N   1      26.756  27.391  -6.838  0.00  0.00     0.000 C 
BRANCH  13  14
HETATM   14  C   UNK N   1      27.157  28.234  -5.649  0.00  0.00    -0.000 C 
BRANCH  14  15
HETATM   15  C   UNK N   1      25.940  28.392  -4.760  0.00  0.00    -0.005 C 
HETATM   16  C   UNK N   1      26.335  29.046  -3.455  0.00  0.00     0.005 C 
ENDBRANCH  14  15
ENDBRANCH  13  14
ENDBRANCH  12  13
ENDBRANCH  11  12
ENDBRANCH  10  11
ENDBRANCH   9  10
ENDBRANCH   1   9
TORSDOF 11
ENDMDL
MODEL 3
REMARK VINA RESULT:      -4.8      1.443      2.141
REMARK  11 active torsions:
REMARK  status: ('A' for Active; 'I' for Inactive)
REMARK    1  A    between atoms: S_1  and  C_5 
REMARK    2  A    between atoms: C_5  and  C_6 
REMARK    3  A    between atoms: C_6  and  C_7 
REMARK    4  A    between atoms: C_7  and  C_8 
REMARK    5  A    between atoms: C_8  and  C_9 
REMARK    6  A    between atoms: C_9  and  C_10 
REMARK    7  A    between atoms: C_10  and  C_11 
REMARK    8  A    between atoms: C_11  and  C_12 
REMARK    9  A    between atoms: C_12  and  C_13 
REMARK   10  A    between atoms: C_13  and  C_14 
REMARK   11  A    between atoms: C_14  and  C_15 
ROOT
HETATM    1  C   UNK N   1      26.754  24.905  -3.434  0.00  0.00     0.000 C 
ENDROOT
BRANCH   1   2
HETATM    2  C   UNK N   1      27.580  23.999  -4.328  0.00  0.00     0.001 C 
BRANCH   2   3
HETATM    3  C   UNK N   1      29.046  24.094  -3.957  0.00  0.00     0.018 C 
BRANCH   3   4
HETATM    4  C   UNK N   1      29.460  22.883  -3.134  0.00  0.00     0.165 C 
BRANCH   4   5
HETATM    5  S   UNK N   1      31.268  22.835  -2.983  0.00  0.00     0.101 S 
HETATM    6  O   UNK N   1      31.855  21.624  -2.247  0.00  0.00    -0.595 OA
HETATM    7  O   UNK N   1      30.644  23.106  -1.607  0.00  0.00    -0.595 OA
HETATM    8  O   UNK N   1      30.423  21.505  -3.665  0.00  0.00    -0.595 OA
ENDBRANCH   4   5
ENDBRANCH   3   4
ENDBRANCH   2   3
ENDBRANCH   1   2
BRANCH   1   9
HETATM    9  C   UNK N   1      26.995  26.334  -3.855  0.00  0.00     0.000 C 
BRANCH   9  10
HETATM   10  C   UNK N   1      26.158  27.295  -3.039  0.00  0.00     0.000 C 
BRANCH  10  11
HETATM   11  C   UNK N   1      25.805  28.443  -3.957  0.00  0.00     0.000 C 
BRANCH  11  12
HETATM   12  C   UNK N   1      26.485  29.732  -3.558  0.00  0.00     0.000 C 
BRANCH  12  13
HETATM   13  C   UNK N   1      27.121  30.285  -4.815  0.00  0.00     0.000 C 
BRANCH  13  14
HETATM   14  C   UNK N   1      28.416  29.579  -5.146  0.00  0.00    -0.000 C 
BRANCH  14  15
HETATM   15  C   UNK N   1      28.470  29.385  -6.647  0.00  0.00    -0.005 C 
HETATM   16  C   UNK N   1      27.735  28.120  -7.033  0.00  0.00     0.005 C 
ENDBRANCH  14  15
ENDBRANCH  13  14
ENDBRANCH  12  13
ENDBRANCH  11  12
ENDBRANCH  10  11
ENDBRANCH   9  10
ENDBRANCH   1   9
TORSDOF 11
ENDMDL
MODEL 4
REMARK VINA RESULT:      -4.5     10.912     13.162
REMARK  11 active torsions:
REMARK  status: ('A' for Active; 'I' for Inactive)
REMARK    1  A    between atoms: S_1  and  C_5 
REMARK    2  A    between atoms: C_5  and  C_6 
REMARK    3  A    between atoms: C_6  and  C_7 
REMARK    4  A    between atoms: C_7  and  C_8 
REMARK    5  A    between atoms: C_8  and  C_9 
REMARK    6  A    between atoms: C_9  and  C_10 
REMARK    7  A    between atoms: C_10  and  C_11 
REMARK    8  A    between atoms: C_11  and  C_12 
REMARK    9  A    between atoms: C_12  and  C_13 
REMARK   10  A    between atoms: C_13  and  C_14 
REMARK   11  A    between atoms: C_14  and  C_15 
ROOT
HETATM    1  C   UNK N   1      29.893  17.121   5.909  0.00  0.00     0.000 C 
ENDROOT
BRANCH   1   2
HETATM    2  C   UNK N   1      30.625  15.852   6.307  0.00  0.00     0.001 C 
BRANCH   2   3
HETATM    3  C   UNK N   1      32.123  16.056   6.196  0.00  0.00     0.018 C 
BRANCH   3   4
HETATM    4  C   UNK N   1      32.504  17.438   6.706  0.00  0.00     0.165 C 
BRANCH   4   5
HETATM    5  S   UNK N   1      34.083  17.347   7.597  0.00  0.00     0.101 S 
HETATM    6  O   UNK N   1      34.688  18.684   8.043  0.00  0.00    -0.595 OA
HETATM    7  O   UNK N   1      34.313  17.946   6.202  0.00  0.00    -0.595 OA
HETATM    8  O   UNK N   1      32.749  18.179   8.287  0.00  0.00    -0.595 OA
ENDBRANCH   4   5
ENDBRANCH   3   4
ENDBRANCH   2   3
ENDBRANCH   1   2
BRANCH   1   9
HETATM    9  C   UNK N   1      28.434  16.954   6.254  0.00  0.00     0.000 C 
BRANCH   9  10
HETATM   10  C   UNK N   1      28.159  17.358   7.687  0.00  0.00     0.000 C 
BRANCH  10  11
HETATM   11  C   UNK N   1      28.618  18.791   7.824  0.00  0.00     0.000 C 
BRANCH  11  12
HETATM   12  C   UNK N   1      27.488  19.779   7.647  0.00  0.00     0.000 C 
BRANCH  12  13
HETATM   13  C   UNK N   1      27.851  20.632   6.451  0.00  0.00     0.000 C 
BRANCH  13  14
HETATM   14  C   UNK N   1      26.623  21.130   5.725  0.00  0.00    -0.000 C 
BRANCH  14  15
HETATM   15  C   UNK N   1      26.138  20.020   4.815  0.00  0.00    -0.005 C 
HETATM   16  C   UNK N   1      27.252  19.588   3.887  0.00  0.00     0.005 C 
ENDBRANCH  14  15
ENDBRANCH  13  14
ENDBRANCH  12  13
ENDBRANCH  11  12
ENDBRANCH  10  11
ENDBRANCH   9  10
ENDBRANCH   1   9
TORSDOF 11
ENDMDL
MODEL 5
REMARK VINA RESULT:      -4.5     13.023     15.043
REMARK  11 active torsions:
REMARK  status: ('A' for Active; 'I' for Inactive)
REMARK    1  A    between atoms: S_1  and  C_5 
REMARK    2  A    between atoms: C_5  and  C_6 
REMARK    3  A    between atoms: C_6  and  C_7 
REMARK    4  A    between atoms: C_7  and  C_8 
REMARK    5  A    between atoms: C_8  and  C_9 
REMARK    6  A    between atoms: C_9  and  C_10 
REMARK    7  A    between atoms: C_10  and  C_11 
REMARK    8  A    between atoms: C_11  and  C_12 
REMARK    9  A    between atoms: C_12  and  C_13 
REMARK   10  A    between atoms: C_13  and  C_14 
REMARK   11  A    between atoms: C_14  and  C_15 
ROOT
HETATM    1  C   UNK N   1      32.969  13.642   6.225  0.00  0.00     0.000 C 
ENDROOT
BRANCH   1   2
HETATM    2  C   UNK N   1      33.888  14.105   7.341  0.00  0.00     0.001 C 
BRANCH   2   3
HETATM    3  C   UNK N   1      33.433  15.450   7.869  0.00  0.00     0.018 C 
BRANCH   3   4
HETATM    4  C   UNK N   1      34.545  16.477   7.717  0.00  0.00     0.165 C 
BRANCH   4   5
HETATM    5  S   UNK N   1      34.003  18.071   8.396  0.00  0.00     0.101 S 
HETATM    6  O   UNK N   1      35.022  19.216   8.335  0.00  0.00    -0.595 OA
HETATM    7  O   UNK N   1      35.064  17.453   9.318  0.00  0.00    -0.595 OA
HETATM    8  O   UNK N   1      34.614  17.978   6.794  0.00  0.00    -0.595 OA
ENDBRANCH   4   5
ENDBRANCH   3   4
ENDBRANCH   2   3
ENDBRANCH   1   2
BRANCH   1   9
HETATM    9  C   UNK N   1      33.807  13.387   4.996  0.00  0.00     0.000 C 
BRANCH   9  10
HETATM   10  C   UNK N   1      34.218  14.685   4.333  0.00  0.00     0.000 C 
BRANCH  10  11
HETATM   11  C   UNK N   1      33.034  15.139   3.510  0.00  0.00     0.000 C 
BRANCH  11  12
HETATM   12  C   UNK N   1      33.182  16.562   3.023  0.00  0.00     0.000 C 
BRANCH  12  13
HETATM   13  C   UNK N   1      32.502  17.437   4.054  0.00  0.00     0.000 C 
BRANCH  13  14
HETATM   14  C   UNK N   1      31.095  16.970   4.346  0.00  0.00    -0.000 C 
BRANCH  14  15
HETATM   15  C   UNK N   1      30.833  17.176   5.824  0.00  0.00    -0.005 C 
HETATM   16  C   UNK N   1      30.074  15.994   6.385  0.00  0.00     0.005 C 
ENDBRANCH  14  15
ENDBRANCH  13  14
ENDBRANCH  12  13
ENDBRANCH  11  12
ENDBRANCH  10  11
ENDBRANCH   9  10
ENDBRANCH   1   9
TORSDOF 11
ENDMDL
MODEL 6
REMARK VINA RESULT:      -4.4     19.194     22.356
REMARK  11 active torsions:
REMARK  status: ('A' for Active; 'I' for Inactive)
REMARK    1  A    between atoms: S_1  and  C_5 
REMARK    2  A    between atoms: C_5  and  C_6 
REMARK    3  A    between atoms: C_6  and  C_7 
REMARK    4  A    between atoms: C_7  and  C_8 
REMARK    5  A    between atoms: C_8  and  C_9 
REMARK    6  A    between atoms: C_9  and  C_10 
REMARK    7  A    between atoms: C_10  and  C_11 
REMARK    8  A    between atoms: C_11  and  C_12 
REMARK    9  A    between atoms: C_12  and  C_13 
REMARK   10  A    between atoms: C_13  and  C_14 
REMARK   11  A    between atoms: C_14  and  C_15 
ROOT
HETATM    1  C   UNK N   1      36.851  13.360  12.278  0.00  0.00     0.000 C 
ENDROOT
BRANCH   1   2
HETATM    2  C   UNK N   1      36.080  14.665  12.192  0.00  0.00     0.001 C 
BRANCH   2   3
HETATM    3  C   UNK N   1      36.129  15.209  10.779  0.00  0.00     0.018 C 
BRANCH   3   4
HETATM    4  C   UNK N   1      35.081  16.296  10.598  0.00  0.00     0.165 C 
BRANCH   4   5
HETATM    5  S   UNK N   1      34.823  16.609   8.828  0.00  0.00     0.101 S 
HETATM    6  O   UNK N   1      33.914  17.794   8.474  0.00  0.00    -0.595 OA
HETATM    7  O   UNK N   1      33.527  16.069   9.450  0.00  0.00    -0.595 OA
HETATM    8  O   UNK N   1      35.386  17.866   9.854  0.00  0.00    -0.595 OA
ENDBRANCH   4   5
ENDBRANCH   3   4
ENDBRANCH   2   3
ENDBRANCH   1   2
BRANCH   1   9
HETATM    9  C   UNK N   1      36.677  12.797  13.667  0.00  0.00     0.000 C 
BRANCH   9  10
HETATM   10  C   UNK N   1      36.394  13.894  14.672  0.00  0.00     0.000 C 
BRANCH  10  11
HETATM   11  C   UNK N   1      36.159  13.210  15.998  0.00  0.00     0.000 C 
BRANCH  11  12
HETATM   12  C   UNK N   1      34.790  12.574  16.086  0.00  0.00     0.000 C 
BRANCH  12  13
HETATM   13  C   UNK N   1      35.009  11.157  16.572  0.00  0.00     0.000 C 
BRANCH  13  14
HETATM   14  C   UNK N   1      34.676  10.141  15.505  0.00  0.00    -0.000 C 
BRANCH  14  15
HETATM   15  C   UNK N   1      33.631  10.750  14.592  0.00  0.00    -0.005 C 
HETATM   16  C   UNK N   1      33.899  10.348  13.159  0.00  0.00     0.005 C 
ENDBRANCH  14  15
ENDBRANCH  13  14
ENDBRANCH  12  13
ENDBRANCH  11  12
ENDBRANCH  10  11
ENDBRANCH   9  10
ENDBRANCH   1   9
TORSDOF 11
ENDMDL
MODEL 7
REMARK VINA RESULT:      -4.4      3.739      4.934
REMARK  11 active torsions:
REMARK  status: ('A' for Active; 'I' for Inactive)
REMARK    1  A    between atoms: S_1  and  C_5 
REMARK    2  A    between atoms: C_5  and  C_6 
REMARK    3  A    between atoms: C_6  and  C_7 
REMARK    4  A    between atoms: C_7  and  C_8 
REMARK    5  A    between atoms: C_8  and  C_9 
REMARK    6  A    between atoms: C_9  and  C_10 
REMARK    7  A    between atoms: C_10  and  C_11 
REMARK    8  A    between atoms: C_11  and  C_12 
REMARK    9  A    between atoms: C_12  and  C_13 
REMARK   10  A    between atoms: C_13  and  C_14 
REMARK   11  A    between atoms: C_14  and  C_15 
ROOT
HETATM    1  C   UNK N   1      27.600  24.792  -3.634  0.00  0.00     0.000 C 
ENDROOT
BRANCH   1   2
HETATM    2  C   UNK N   1      26.456  24.213  -4.447  0.00  0.00     0.001 C 
BRANCH   2   3
HETATM    3  C   UNK N   1      26.930  23.867  -5.844  0.00  0.00     0.018 C 
BRANCH   3   4
HETATM    4  C   UNK N   1      25.815  23.190  -6.625  0.00  0.00     0.165 C 
BRANCH   4   5
HETATM    5  S   UNK N   1      26.358  22.887  -8.331  0.00  0.00     0.101 S 
HETATM    6  O   UNK N   1      25.298  22.334  -9.292  0.00  0.00    -0.595 OA
HETATM    7  O   UNK N   1      26.115  21.547  -7.622  0.00  0.00    -0.595 OA
HETATM    8  O   UNK N   1      24.985  23.873  -8.024  0.00  0.00    -0.595 OA
ENDBRANCH   4   5
ENDBRANCH   3   4
ENDBRANCH   2   3
ENDBRANCH   1   2
BRANCH   1   9
HETATM    9  C   UNK N   1      28.704  25.187  -4.585  0.00  0.00     0.000 C 
BRANCH   9  10
HETATM   10  C   UNK N   1      29.472  26.384  -4.066  0.00  0.00     0.000 C 
BRANCH  10  11
HETATM   11  C   UNK N   1      28.912  27.593  -4.778  0.00  0.00     0.000 C 
BRANCH  11  12
HETATM   12  C   UNK N   1      28.462  27.278  -6.186  0.00  0.00     0.000 C 
BRANCH  12  13
HETATM   13  C   UNK N   1      27.074  27.863  -6.330  0.00  0.00     0.000 C 
BRANCH  13  14
HETATM   14  C   UNK N   1      26.614  28.536  -5.058  0.00  0.00    -0.000 C 
BRANCH  14  15
HETATM   15  C   UNK N   1      25.336  27.858  -4.608  0.00  0.00    -0.005 C 
HETATM   16  C   UNK N   1      24.739  27.068  -5.751  0.00  0.00     0.005 C 
ENDBRANCH  14  15
ENDBRANCH  13  14
ENDBRANCH  12  13
ENDBRANCH  11  12
ENDBRANCH  10  11
ENDBRANCH   9  10
ENDBRANCH   1   9
TORSDOF 11
ENDMDL
MODEL 8
REMARK VINA RESULT:      -4.4     11.291     13.650
REMARK  11 active torsions:
REMARK  status: ('A' for Active; 'I' for Inactive)
REMARK    1  A    between atoms: S_1  and  C_5 
REMARK    2  A    between atoms: C_5  and  C_6 
REMARK    3  A    between atoms: C_6  and  C_7 
REMARK    4  A    between atoms: C_7  and  C_8 
REMARK    5  A    between atoms: C_8  and  C_9 
REMARK    6  A    between atoms: C_9  and  C_10 
REMARK    7  A    between atoms: C_10  and  C_11 
REMARK    8  A    between atoms: C_11  and  C_12 
REMARK    9  A    between atoms: C_12  and  C_13 
REMARK   10  A    between atoms: C_13  and  C_14 
REMARK   11  A    between atoms: C_14  and  C_15 
ROOT
HETATM    1  C   UNK N   1      30.352  17.617   8.643  0.00  0.00     0.000 C 
ENDROOT
BRANCH   1   2
HETATM    2  C   UNK N   1      31.663  18.381   8.690  0.00  0.00     0.001 C 
BRANCH   2   3
HETATM    3  C   UNK N   1      32.831  17.421   8.589  0.00  0.00     0.018 C 
BRANCH   3   4
HETATM    4  C   UNK N   1      33.064  17.027   7.139  0.00  0.00     0.165 C 
BRANCH   4   5
HETATM    5  S   UNK N   1      34.602  16.073   7.003  0.00  0.00     0.101 S 
HETATM    6  O   UNK N   1      35.094  15.777   5.581  0.00  0.00    -0.595 OA
HETATM    7  O   UNK N   1      33.418  15.207   6.550  0.00  0.00    -0.595 OA
HETATM    8  O   UNK N   1      34.453  17.586   6.205  0.00  0.00    -0.595 OA
ENDBRANCH   4   5
ENDBRANCH   3   4
ENDBRANCH   2   3
ENDBRANCH   1   2
BRANCH   1   9
HETATM    9  C   UNK N   1      29.341  18.361   9.480  0.00  0.00     0.000 C 
BRANCH   9  10
HETATM   10  C   UNK N   1      28.056  18.590   8.714  0.00  0.00     0.000 C 
BRANCH  10  11
HETATM   11  C   UNK N   1      28.125  17.709   7.488  0.00  0.00     0.000 C 
BRANCH  11  12
HETATM   12  C   UNK N   1      27.834  18.468   6.214  0.00  0.00     0.000 C 
BRANCH  12  13
HETATM   13  C   UNK N   1      27.465  19.875   6.631  0.00  0.00     0.000 C 
BRANCH  13  14
HETATM   14  C   UNK N   1      27.505  20.834   5.464  0.00  0.00    -0.000 C 
BRANCH  14  15
HETATM   15  C   UNK N   1      27.445  20.017   4.189  0.00  0.00    -0.005 C 
HETATM   16  C   UNK N   1      26.206  20.378   3.400  0.00  0.00     0.005 C 
ENDBRANCH  14  15
ENDBRANCH  13  14
ENDBRANCH  12  13
ENDBRANCH  11  12
ENDBRANCH  10  11
ENDBRANCH   9  10
ENDBRANCH   1   9
TORSDOF 11
ENDMDL
MODEL 9
REMARK VINA RESULT:      -4.4      1.172      2.179
REMARK  11 active torsions:
REMARK  status: ('A' for Active; 'I' for Inactive)
REMARK    1  A    between atoms: S_1  and  C_5 
REMARK    2  A    between atoms: C_5  and  C_6 
REMARK    3  A    between atoms: C_6  and  C_7 
REMARK    4  A    between atoms: C_7  and  C_8 
REMARK    5  A    between atoms: C_8  and  C_9 
REMARK    6  A    between atoms: C_9  and  C_10 
REMARK    7  A    between atoms: C_10  and  C_11 
REMARK    8  A    between atoms: C_11  and  C_12 
REMARK    9  A    between atoms: C_12  and  C_13 
REMARK   10  A    between atoms: C_13  and  C_14 
REMARK   11  A    between atoms: C_14  and  C_15 
ROOT
HETATM    1  C   UNK N   1      27.332  25.689  -4.591  0.00  0.00     0.000 C 
ENDROOT
BRANCH   1   2
HETATM    2  C   UNK N   1      27.614  24.570  -3.604  0.00  0.00     0.001 C 
BRANCH   2   3
HETATM    3  C   UNK N   1      28.784  23.735  -4.081  0.00  0.00     0.018 C 
BRANCH   3   4
HETATM    4  C   UNK N   1      29.294  22.851  -2.953  0.00  0.00     0.165 C 
BRANCH   4   5
HETATM    5  S   UNK N   1      31.108  22.814  -2.976  0.00  0.00     0.101 S 
HETATM    6  O   UNK N   1      31.773  21.671  -2.198  0.00  0.00    -0.595 OA
HETATM    7  O   UNK N   1      30.620  23.205  -1.574  0.00  0.00    -0.595 OA
HETATM    8  O   UNK N   1      30.210  21.430  -3.453  0.00  0.00    -0.595 OA
ENDBRANCH   4   5
ENDBRANCH   3   4
ENDBRANCH   2   3
ENDBRANCH   1   2
BRANCH   1   9
HETATM    9  C   UNK N   1      25.944  26.217  -4.324  0.00  0.00     0.000 C 
BRANCH   9  10
HETATM   10  C   UNK N   1      25.975  27.373  -3.348  0.00  0.00     0.000 C 
BRANCH  10  11
HETATM   11  C   UNK N   1      27.060  28.309  -3.825  0.00  0.00     0.000 C 
BRANCH  11  12
HETATM   12  C   UNK N   1      27.414  29.357  -2.795  0.00  0.00     0.000 C 
BRANCH  12  13
HETATM   13  C   UNK N   1      28.906  29.242  -2.566  0.00  0.00     0.000 C 
BRANCH  13  14
HETATM   14  C   UNK N   1      29.569  28.382  -3.615  0.00  0.00    -0.000 C 
BRANCH  14  15
HETATM   15  C   UNK N   1      30.799  27.753  -2.992  0.00  0.00    -0.005 C 
HETATM   16  C   UNK N   1      31.218  26.537  -3.788  0.00  0.00     0.005 C 
ENDBRANCH  14  15
ENDBRANCH  13  14
ENDBRANCH  12  13
ENDBRANCH  11  12
ENDBRANCH  10  11
ENDBRANCH   9  10
ENDBRANCH   1   9
TORSDOF 11
ENDMDL
