REMARK  11 active torsions:
REMARK  status: ('A' for Active; 'I' for Inactive)
REMARK    1  A    between atoms: S_1  and  C_5 
REMARK    2  A    between atoms: C_5  and  C_6 
REMARK    3  A    between atoms: C_6  and  C_7 
REMARK    4  A    between atoms: C_7  and  C_8 
REMARK    5  A    between atoms: C_8  and  C_9 
REMARK    6  A    between atoms: C_9  and  C_10 
REMARK    7  A    between atoms: C_10  and  C_11 
REMARK    8  A    between atoms: C_11  and  C_12 
REMARK    9  A    between atoms: C_12  and  C_13 
REMARK   10  A    between atoms: C_13  and  C_14 
REMARK   11  A    between atoms: C_14  and  C_15 
ROOT
HETATM    1  C   UNK N   1      -1.056  -0.319  -0.055  0.00  0.00     0.000 C 
ENDROOT
BRANCH   1   2
HETATM    2  C   UNK N   1      -1.950  -1.543   0.028  0.00  0.00     0.001 C 
BRANCH   2   3
HETATM    3  C   UNK N   1      -3.299  -1.248  -0.595  0.00  0.00     0.018 C 
BRANCH   3   4
HETATM    4  C   UNK N   1      -4.121  -0.360   0.327  0.00  0.00     0.165 C 
BRANCH   4   5
HETATM    5  S   UNK N   1      -5.271   0.644  -0.655  0.00  0.00     0.101 S 
HETATM    6  O   UNK N   1      -6.035   1.737   0.103  0.00  0.00    -0.595 OA
HETATM    7  O   UNK N   1      -6.064  -0.273   0.287  0.00  0.00    -0.595 OA
HETATM    8  O   UNK N   1      -4.053   1.402   0.289  0.00  0.00    -0.595 OA
ENDBRANCH   4   5
ENDBRANCH   3   4
ENDBRANCH   2   3
ENDBRANCH   1   2
BRANCH   1   9
HETATM    9  C   UNK N   1       0.359  -0.744   0.254  0.00  0.00     0.000 C 
BRANCH   9  10
HETATM   10  C   UNK N   1       1.332   0.397   0.048  0.00  0.00     0.000 C 
BRANCH  10  11
HETATM   11  C   UNK N   1       2.711  -0.219   0.000  0.00  0.00     0.000 C 
BRANCH  11  12
HETATM   12  C   UNK N   1       3.808   0.821  -0.013  0.00  0.00     0.000 C 
BRANCH  12  13
HETATM   13  C   UNK N   1       5.116   0.060  -0.036  0.00  0.00     0.000 C 
BRANCH  13  14
HETATM   14  C   UNK N   1       6.306   0.990   0.008  0.00  0.00    -0.000 C 
BRANCH  14  15
HETATM   15  C   UNK N   1       7.561   0.141  -0.007  0.00  0.00    -0.005 C 
HETATM   16  C   UNK N   1       8.786   1.028   0.017  0.00  0.00     0.005 C 
ENDBRANCH  14  15
ENDBRANCH  13  14
ENDBRANCH  12  13
ENDBRANCH  11  12
ENDBRANCH  10  11
ENDBRANCH   9  10
ENDBRANCH   1   9
TORSDOF 11
