MODEL 1
REMARK VINA RESULT:      -7.8      0.000      0.000
REMARK  6 active torsions:
REMARK  status: ('A' for Active; 'I' for Inactive)
REMARK    1  A    between atoms: C_1  and  S_14 
REMARK    2  A    between atoms: N_17  and  S_14 
REMARK    3  A    between atoms: C_18  and  N_17 
REMARK    4  A    between atoms: C_18  and  C_19 
REMARK    5  A    between atoms: C_22  and  C_18 
REMARK    6  A    between atoms: O_24  and  C_22 
ROOT
HETATM    1  C   UNK N   1      35.583  14.524  11.630  0.00  0.00     0.080 A 
HETATM    2  C   UNK N   1      36.100  14.791  12.907  0.00  0.00     0.045 A 
HETATM    3  C   UNK N   1      35.957  13.820  13.888  0.00  0.00     0.018 A 
HETATM    4  C   UNK N   1      35.315  12.602  13.648  0.00  0.00    -0.007 A 
HETATM    5  C   UNK N   1      34.832  12.307  12.374  0.00  0.00     0.015 A 
HETATM    6  C   UNK N   1      34.964  13.279  11.366  0.00  0.00     0.026 A 
HETATM    7  S   UNK N   1      36.380  13.870  15.495  0.00  0.00    -0.089 SA
HETATM    8  C   UNK N   1      35.763  12.393  15.945  0.00  0.00     0.016 A 
HETATM    9  C   UNK N   1      35.202  11.796  14.812  0.00  0.00    -0.007 A 
HETATM   10  C   UNK N   1      35.729  11.791  17.197  0.00  0.00     0.020 A 
HETATM   11  C   UNK N   1      35.105  10.537  17.304  0.00  0.00     0.001 A 
HETATM   12  C   UNK N   1      34.536   9.920  16.169  0.00  0.00     0.001 A 
HETATM   13  C   UNK N   1      34.583  10.549  14.912  0.00  0.00     0.013 A 
ENDROOT
BRANCH   1  14
HETATM   14  S   UNK N   1      35.532  15.808  10.372  0.00  0.00     0.259 S 
HETATM   15  O   UNK N   1      36.783  15.429   9.565  0.00  0.00    -0.201 OA
HETATM   16  O   UNK N   1      35.999  17.216  10.771  0.00  0.00    -0.201 OA
BRANCH  14  17
HETATM   17  N   UNK N   1      34.413  15.897   8.977  0.00  0.00    -0.300 N 
HETATM   18  H   UNK N   1      34.286  15.105   8.347  0.00  0.00     0.173 HD
BRANCH  17  19
HETATM   19  C   UNK N   1      33.680  17.162   8.778  0.00  0.00     0.194 C 
BRANCH  19  20
HETATM   20  C   UNK N   1      32.229  16.934   8.295  0.00  0.00     0.011 C 
HETATM   21  C   UNK N   1      31.316  18.098   8.648  0.00  0.00     0.012 C 
HETATM   22  C   UNK N   1      31.637  15.691   8.940  0.00  0.00     0.012 C 
ENDBRANCH  19  20
BRANCH  19  23
HETATM   23  C   UNK N   1      34.465  18.125   7.912  0.00  0.00     0.164 C 
HETATM   24  O   UNK N   1      34.493  17.994   6.702  0.00  0.00    -0.648 OA
BRANCH  23  25
HETATM   25  O   UNK N   1      35.213  19.090   8.483  0.00  0.00    -0.775 OA
HETATM   26  H   UNK N   1      35.717  19.040   9.271  0.00  0.00     0.167 HD
ENDBRANCH  23  25
ENDBRANCH  19  23
ENDBRANCH  17  19
ENDBRANCH  14  17
ENDBRANCH   1  14
TORSDOF 6
ENDMDL
MODEL 2
REMARK VINA RESULT:      -7.2      1.571      2.006
REMARK  6 active torsions:
REMARK  status: ('A' for Active; 'I' for Inactive)
REMARK    1  A    between atoms: C_1  and  S_14 
REMARK    2  A    between atoms: N_17  and  S_14 
REMARK    3  A    between atoms: C_18  and  N_17 
REMARK    4  A    between atoms: C_18  and  C_19 
REMARK    5  A    between atoms: C_22  and  C_18 
REMARK    6  A    between atoms: O_24  and  C_22 
ROOT
HETATM    1  C   UNK N   1      35.595  14.254  12.125  0.00  0.00     0.080 A 
HETATM    2  C   UNK N   1      36.057  14.541  13.418  0.00  0.00     0.045 A 
HETATM    3  C   UNK N   1      35.904  13.572  14.400  0.00  0.00     0.018 A 
HETATM    4  C   UNK N   1      35.305  12.336  14.143  0.00  0.00    -0.007 A 
HETATM    5  C   UNK N   1      34.877  12.022  12.854  0.00  0.00     0.015 A 
HETATM    6  C   UNK N   1      35.020  12.991  11.846  0.00  0.00     0.026 A 
HETATM    7  S   UNK N   1      36.268  13.641  16.021  0.00  0.00    -0.089 SA
HETATM    8  C   UNK N   1      35.674  12.150  16.457  0.00  0.00     0.016 A 
HETATM    9  C   UNK N   1      35.171  11.532  15.307  0.00  0.00    -0.007 A 
HETATM   10  C   UNK N   1      35.610  11.553  17.710  0.00  0.00     0.020 A 
HETATM   11  C   UNK N   1      35.016  10.284  17.802  0.00  0.00     0.001 A 
HETATM   12  C   UNK N   1      34.506   9.646  16.650  0.00  0.00     0.001 A 
HETATM   13  C   UNK N   1      34.582  10.270  15.391  0.00  0.00     0.013 A 
ENDROOT
BRANCH   1  14
HETATM   14  S   UNK N   1      35.556  15.531  10.859  0.00  0.00     0.259 S 
HETATM   15  O   UNK N   1      35.778  14.664   9.611  0.00  0.00    -0.201 OA
HETATM   16  O   UNK N   1      36.806  16.406  10.691  0.00  0.00    -0.201 OA
BRANCH  14  17
HETATM   17  N   UNK N   1      34.108  16.391  10.250  0.00  0.00    -0.300 N 
HETATM   18  H   UNK N   1      33.684  17.154  10.777  0.00  0.00     0.173 HD
BRANCH  17  19
HETATM   19  C   UNK N   1      33.555  15.950   8.955  0.00  0.00     0.194 C 
BRANCH  19  20
HETATM   20  C   UNK N   1      33.243  17.136   8.012  0.00  0.00     0.011 C 
HETATM   21  C   UNK N   1      34.337  18.192   8.037  0.00  0.00     0.012 C 
HETATM   22  C   UNK N   1      31.950  17.822   8.424  0.00  0.00     0.012 C 
ENDBRANCH  19  20
BRANCH  19  23
HETATM   23  C   UNK N   1      32.389  15.002   9.145  0.00  0.00     0.164 C 
HETATM   24  O   UNK N   1      32.022  14.277   8.239  0.00  0.00    -0.648 OA
BRANCH  23  25
HETATM   25  O   UNK N   1      31.691  15.014  10.298  0.00  0.00    -0.775 OA
HETATM   26  H   UNK N   1      31.563  14.310  10.903  0.00  0.00     0.167 HD
ENDBRANCH  23  25
ENDBRANCH  19  23
ENDBRANCH  17  19
ENDBRANCH  14  17
ENDBRANCH   1  14
TORSDOF 6
ENDMDL
MODEL 3
REMARK VINA RESULT:      -7.1     11.560     12.898
REMARK  6 active torsions:
REMARK  status: ('A' for Active; 'I' for Inactive)
REMARK    1  A    between atoms: C_1  and  S_14 
REMARK    2  A    between atoms: N_17  and  S_14 
REMARK    3  A    between atoms: C_18  and  N_17 
REMARK    4  A    between atoms: C_18  and  C_19 
REMARK    5  A    between atoms: C_22  and  C_18 
REMARK    6  A    between atoms: O_24  and  C_22 
ROOT
HETATM    1  C   UNK N   1      22.934  16.176   6.066  0.00  0.00     0.080 A 
HETATM    2  C   UNK N   1      23.987  15.330   6.447  0.00  0.00     0.045 A 
HETATM    3  C   UNK N   1      23.766  14.436   7.485  0.00  0.00     0.018 A 
HETATM    4  C   UNK N   1      22.545  14.359   8.159  0.00  0.00    -0.007 A 
HETATM    5  C   UNK N   1      21.478  15.166   7.765  0.00  0.00     0.015 A 
HETATM    6  C   UNK N   1      21.682  16.081   6.717  0.00  0.00     0.026 A 
HETATM    7  S   UNK N   1      24.822  13.378   8.212  0.00  0.00    -0.089 SA
HETATM    8  C   UNK N   1      23.804  12.809   9.397  0.00  0.00     0.016 A 
HETATM    9  C   UNK N   1      22.566  13.441   9.243  0.00  0.00    -0.007 A 
HETATM   10  C   UNK N   1      24.052  11.900  10.418  0.00  0.00     0.020 A 
HETATM   11  C   UNK N   1      23.009  11.621  11.316  0.00  0.00     0.001 A 
HETATM   12  C   UNK N   1      21.752  12.249  11.173  0.00  0.00     0.001 A 
HETATM   13  C   UNK N   1      21.524  13.166  10.130  0.00  0.00     0.013 A 
ENDROOT
BRANCH   1  14
HETATM   14  S   UNK N   1      23.206  17.505   4.885  0.00  0.00     0.259 S 
HETATM   15  O   UNK N   1      21.897  18.288   5.071  0.00  0.00    -0.201 OA
HETATM   16  O   UNK N   1      23.011  17.186   3.396  0.00  0.00    -0.201 OA
BRANCH  14  17
HETATM   17  N   UNK N   1      24.306  18.905   5.082  0.00  0.00    -0.300 N 
HETATM   18  H   UNK N   1      24.422  19.366   5.985  0.00  0.00     0.173 HD
BRANCH  17  19
HETATM   19  C   UNK N   1      25.039  19.362   3.886  0.00  0.00     0.194 C 
BRANCH  19  20
HETATM   20  C   UNK N   1      26.421  19.960   4.233  0.00  0.00     0.011 C 
HETATM   21  C   UNK N   1      27.547  18.954   4.044  0.00  0.00     0.012 C 
HETATM   22  C   UNK N   1      26.462  20.408   5.686  0.00  0.00     0.012 C 
ENDBRANCH  19  20
BRANCH  19  23
HETATM   23  C   UNK N   1      24.183  20.268   3.026  0.00  0.00     0.164 C 
HETATM   24  O   UNK N   1      24.683  20.955   2.154  0.00  0.00    -0.648 OA
BRANCH  23  25
HETATM   25  O   UNK N   1      22.864  20.389   3.277  0.00  0.00    -0.775 OA
HETATM   26  H   UNK N   1      22.375  21.172   3.433  0.00  0.00     0.167 HD
ENDBRANCH  23  25
ENDBRANCH  19  23
ENDBRANCH  17  19
ENDBRANCH  14  17
ENDBRANCH   1  14
TORSDOF 6
ENDMDL
MODEL 4
REMARK VINA RESULT:      -7.0      3.601      9.647
REMARK  6 active torsions:
REMARK  status: ('A' for Active; 'I' for Inactive)
REMARK    1  A    between atoms: C_1  and  S_14 
REMARK    2  A    between atoms: N_17  and  S_14 
REMARK    3  A    between atoms: C_18  and  N_17 
REMARK    4  A    between atoms: C_18  and  C_19 
REMARK    5  A    between atoms: C_22  and  C_18 
REMARK    6  A    between atoms: O_24  and  C_22 
ROOT
HETATM    1  C   UNK N   1      31.514  16.139   8.134  0.00  0.00     0.080 A 
HETATM    2  C   UNK N   1      31.222  16.098   6.763  0.00  0.00     0.045 A 
HETATM    3  C   UNK N   1      30.278  16.986   6.267  0.00  0.00     0.018 A 
HETATM    4  C   UNK N   1      29.614  17.905   7.083  0.00  0.00    -0.007 A 
HETATM    5  C   UNK N   1      29.923  17.984   8.440  0.00  0.00     0.015 A 
HETATM    6  C   UNK N   1      30.874  17.091   8.963  0.00  0.00     0.026 A 
HETATM    7  S   UNK N   1      29.662  17.126   4.729  0.00  0.00    -0.089 SA
HETATM    8  C   UNK N   1      28.539  18.314   5.034  0.00  0.00     0.016 A 
HETATM    9  C   UNK N   1      28.627  18.654   6.387  0.00  0.00    -0.007 A 
HETATM   10  C   UNK N   1      27.614  18.900   4.179  0.00  0.00     0.020 A 
HETATM   11  C   UNK N   1      26.748  19.868   4.714  0.00  0.00     0.001 A 
HETATM   12  C   UNK N   1      26.826  20.224   6.078  0.00  0.00     0.001 A 
HETATM   13  C   UNK N   1      27.771  19.616   6.925  0.00  0.00     0.013 A 
ENDROOT
BRANCH   1  14
HETATM   14  S   UNK N   1      32.557  14.883   8.889  0.00  0.00     0.259 S 
HETATM   15  O   UNK N   1      33.762  14.941   7.940  0.00  0.00    -0.201 OA
HETATM   16  O   UNK N   1      32.199  13.412   8.632  0.00  0.00    -0.201 OA
BRANCH  14  17
HETATM   17  N   UNK N   1      33.491  15.039  10.409  0.00  0.00    -0.300 N 
HETATM   18  H   UNK N   1      33.031  15.247  11.296  0.00  0.00     0.173 HD
BRANCH  17  19
HETATM   19  C   UNK N   1      34.952  14.854  10.326  0.00  0.00     0.194 C 
BRANCH  19  20
HETATM   20  C   UNK N   1      35.438  13.623  11.125  0.00  0.00     0.011 C 
HETATM   21  C   UNK N   1      34.820  12.329  10.618  0.00  0.00     0.012 C 
HETATM   22  C   UNK N   1      35.061  13.753  12.592  0.00  0.00     0.012 C 
ENDBRANCH  19  20
BRANCH  19  23
HETATM   23  C   UNK N   1      35.691  16.131  10.668  0.00  0.00     0.164 C 
HETATM   24  O   UNK N   1      35.113  17.202  10.677  0.00  0.00    -0.648 OA
BRANCH  23  25
HETATM   25  O   UNK N   1      37.022  16.104  10.885  0.00  0.00    -0.775 OA
HETATM   26  H   UNK N   1      37.707  16.356  10.299  0.00  0.00     0.167 HD
ENDBRANCH  23  25
ENDBRANCH  19  23
ENDBRANCH  17  19
ENDBRANCH  14  17
ENDBRANCH   1  14
TORSDOF 6
ENDMDL
MODEL 5
REMARK VINA RESULT:      -6.9      2.389      3.235
REMARK  6 active torsions:
REMARK  status: ('A' for Active; 'I' for Inactive)
REMARK    1  A    between atoms: C_1  and  S_14 
REMARK    2  A    between atoms: N_17  and  S_14 
REMARK    3  A    between atoms: C_18  and  N_17 
REMARK    4  A    between atoms: C_18  and  C_19 
REMARK    5  A    between atoms: C_22  and  C_18 
REMARK    6  A    between atoms: O_24  and  C_22 
ROOT
HETATM    1  C   UNK N   1      36.718  13.032  12.463  0.00  0.00     0.080 A 
HETATM    2  C   UNK N   1      36.824  11.783  13.091  0.00  0.00     0.045 A 
HETATM    3  C   UNK N   1      36.442  11.684  14.422  0.00  0.00     0.018 A 
HETATM    4  C   UNK N   1      35.968  12.780  15.148  0.00  0.00    -0.007 A 
HETATM    5  C   UNK N   1      35.821  14.018  14.525  0.00  0.00     0.015 A 
HETATM    6  C   UNK N   1      36.205  14.141  13.178  0.00  0.00     0.026 A 
HETATM    7  S   UNK N   1      36.526  10.382  15.453  0.00  0.00    -0.089 SA
HETATM    8  C   UNK N   1      35.998  11.144  16.834  0.00  0.00     0.016 A 
HETATM    9  C   UNK N   1      35.720  12.476  16.513  0.00  0.00    -0.007 A 
HETATM   10  C   UNK N   1      35.858  10.645  18.123  0.00  0.00     0.020 A 
HETATM   11  C   UNK N   1      35.420  11.527  19.124  0.00  0.00     0.001 A 
HETATM   12  C   UNK N   1      35.132  12.875  18.816  0.00  0.00     0.001 A 
HETATM   13  C   UNK N   1      35.281  13.358  17.502  0.00  0.00     0.013 A 
ENDROOT
BRANCH   1  14
HETATM   14  S   UNK N   1      37.395  13.293  10.817  0.00  0.00     0.259 S 
HETATM   15  O   UNK N   1      36.954  11.984  10.146  0.00  0.00    -0.201 OA
HETATM   16  O   UNK N   1      38.905  13.090  10.626  0.00  0.00    -0.201 OA
BRANCH  14  17
HETATM   17  N   UNK N   1      36.751  14.391   9.557  0.00  0.00    -0.300 N 
HETATM   18  H   UNK N   1      37.318  14.671   8.756  0.00  0.00     0.173 HD
BRANCH  17  19
HETATM   19  C   UNK N   1      35.366  14.872   9.724  0.00  0.00     0.194 C 
BRANCH  19  20
HETATM   20  C   UNK N   1      34.482  14.566   8.493  0.00  0.00     0.011 C 
HETATM   21  C   UNK N   1      33.666  13.295   8.674  0.00  0.00     0.012 C 
HETATM   22  C   UNK N   1      35.339  14.373   7.252  0.00  0.00     0.012 C 
ENDBRANCH  19  20
BRANCH  19  23
HETATM   23  C   UNK N   1      35.334  16.326  10.148  0.00  0.00     0.164 C 
HETATM   24  O   UNK N   1      36.281  16.827  10.727  0.00  0.00    -0.648 OA
BRANCH  23  25
HETATM   25  O   UNK N   1      34.218  17.059   9.963  0.00  0.00    -0.775 OA
HETATM   26  H   UNK N   1      33.909  17.780  10.475  0.00  0.00     0.167 HD
ENDBRANCH  23  25
ENDBRANCH  19  23
ENDBRANCH  17  19
ENDBRANCH  14  17
ENDBRANCH   1  14
TORSDOF 6
ENDMDL
MODEL 6
REMARK VINA RESULT:      -6.9      8.490     10.875
REMARK  6 active torsions:
REMARK  status: ('A' for Active; 'I' for Inactive)
REMARK    1  A    between atoms: C_1  and  S_14 
REMARK    2  A    between atoms: N_17  and  S_14 
REMARK    3  A    between atoms: C_18  and  N_17 
REMARK    4  A    between atoms: C_18  and  C_19 
REMARK    5  A    between atoms: C_22  and  C_18 
REMARK    6  A    between atoms: O_24  and  C_22 
ROOT
HETATM    1  C   UNK N   1      27.518  16.853   5.648  0.00  0.00     0.080 A 
HETATM    2  C   UNK N   1      28.632  16.697   4.810  0.00  0.00     0.045 A 
HETATM    3  C   UNK N   1      29.895  16.841   5.367  0.00  0.00     0.018 A 
HETATM    4  C   UNK N   1      30.088  17.139   6.719  0.00  0.00    -0.007 A 
HETATM    5  C   UNK N   1      28.990  17.257   7.570  0.00  0.00     0.015 A 
HETATM    6  C   UNK N   1      27.702  17.118   7.025  0.00  0.00     0.026 A 
HETATM    7  S   UNK N   1      31.386  16.800   4.633  0.00  0.00    -0.089 SA
HETATM    8  C   UNK N   1      32.312  17.172   5.963  0.00  0.00     0.016 A 
HETATM    9  C   UNK N   1      31.455  17.330   7.056  0.00  0.00    -0.007 A 
HETATM   10  C   UNK N   1      33.687  17.350   6.065  0.00  0.00     0.020 A 
HETATM   11  C   UNK N   1      34.211  17.700   7.320  0.00  0.00     0.001 A 
HETATM   12  C   UNK N   1      33.358  17.861   8.434  0.00  0.00     0.001 A 
HETATM   13  C   UNK N   1      31.970  17.676   8.306  0.00  0.00     0.013 A 
ENDROOT
BRANCH   1  14
HETATM   14  S   UNK N   1      25.854  16.899   4.964  0.00  0.00     0.259 S 
HETATM   15  O   UNK N   1      25.110  16.092   6.038  0.00  0.00    -0.201 OA
HETATM   16  O   UNK N   1      25.541  15.962   3.789  0.00  0.00    -0.201 OA
BRANCH  14  17
HETATM   17  N   UNK N   1      24.739  18.300   4.957  0.00  0.00    -0.300 N 
HETATM   18  H   UNK N   1      24.005  18.398   5.659  0.00  0.00     0.173 HD
BRANCH  17  19
HETATM   19  C   UNK N   1      24.927  19.308   3.895  0.00  0.00     0.194 C 
BRANCH  19  20
HETATM   20  C   UNK N   1      25.985  20.371   4.270  0.00  0.00     0.011 C 
HETATM   21  C   UNK N   1      27.358  20.038   3.707  0.00  0.00     0.012 C 
HETATM   22  C   UNK N   1      26.134  20.469   5.781  0.00  0.00     0.012 C 
ENDBRANCH  19  20
BRANCH  19  23
HETATM   23  C   UNK N   1      23.604  19.898   3.453  0.00  0.00     0.164 C 
HETATM   24  O   UNK N   1      23.539  21.039   3.035  0.00  0.00    -0.648 OA
BRANCH  23  25
HETATM   25  O   UNK N   1      22.466  19.189   3.599  0.00  0.00    -0.775 OA
HETATM   26  H   UNK N   1      22.368  18.316   3.922  0.00  0.00     0.167 HD
ENDBRANCH  23  25
ENDBRANCH  19  23
ENDBRANCH  17  19
ENDBRANCH  14  17
ENDBRANCH   1  14
TORSDOF 6
ENDMDL
MODEL 7
REMARK VINA RESULT:      -6.8      1.237      1.986
REMARK  6 active torsions:
REMARK  status: ('A' for Active; 'I' for Inactive)
REMARK    1  A    between atoms: C_1  and  S_14 
REMARK    2  A    between atoms: N_17  and  S_14 
REMARK    3  A    between atoms: C_18  and  N_17 
REMARK    4  A    between atoms: C_18  and  C_19 
REMARK    5  A    between atoms: C_22  and  C_18 
REMARK    6  A    between atoms: O_24  and  C_22 
ROOT
HETATM    1  C   UNK N   1      35.529  14.596  11.831  0.00  0.00     0.080 A 
HETATM    2  C   UNK N   1      34.924  13.333  11.744  0.00  0.00     0.045 A 
HETATM    3  C   UNK N   1      34.972  12.505  12.857  0.00  0.00     0.018 A 
HETATM    4  C   UNK N   1      35.602  12.885  14.045  0.00  0.00    -0.007 A 
HETATM    5  C   UNK N   1      36.172  14.152  14.159  0.00  0.00     0.015 A 
HETATM    6  C   UNK N   1      36.138  15.004  13.041  0.00  0.00     0.026 A 
HETATM    7  S   UNK N   1      34.430  10.944  13.039  0.00  0.00    -0.089 SA
HETATM    8  C   UNK N   1      34.979  10.685  14.587  0.00  0.00     0.016 A 
HETATM    9  C   UNK N   1      35.610  11.854  15.023  0.00  0.00    -0.007 A 
HETATM   10  C   UNK N   1      34.906   9.542  15.373  0.00  0.00     0.020 A 
HETATM   11  C   UNK N   1      35.492   9.585  16.649  0.00  0.00     0.001 A 
HETATM   12  C   UNK N   1      36.130  10.759  17.105  0.00  0.00     0.001 A 
HETATM   13  C   UNK N   1      36.192  11.905  16.290  0.00  0.00     0.013 A 
ENDROOT
BRANCH   1  14
HETATM   14  S   UNK N   1      35.702  15.634  10.372  0.00  0.00     0.259 S 
HETATM   15  O   UNK N   1      37.157  15.314   9.999  0.00  0.00    -0.201 OA
HETATM   16  O   UNK N   1      35.902  17.141  10.590  0.00  0.00    -0.201 OA
BRANCH  14  17
HETATM   17  N   UNK N   1      35.007  15.326   8.751  0.00  0.00    -0.300 N 
HETATM   18  H   UNK N   1      35.291  14.519   8.196  0.00  0.00     0.173 HD
BRANCH  17  19
HETATM   19  C   UNK N   1      34.004  16.288   8.253  0.00  0.00     0.194 C 
BRANCH  19  20
HETATM   20  C   UNK N   1      32.596  15.662   8.127  0.00  0.00     0.011 C 
HETATM   21  C   UNK N   1      31.497  16.636   8.522  0.00  0.00     0.012 C 
HETATM   22  C   UNK N   1      32.466  14.449   9.036  0.00  0.00     0.012 C 
ENDBRANCH  19  20
BRANCH  19  23
HETATM   23  C   UNK N   1      34.478  16.975   6.989  0.00  0.00     0.164 C 
HETATM   24  O   UNK N   1      34.311  18.171   6.830  0.00  0.00    -0.648 OA
BRANCH  23  25
HETATM   25  O   UNK N   1      35.016  16.251   5.988  0.00  0.00    -0.775 OA
HETATM   26  H   UNK N   1      35.571  15.499   6.053  0.00  0.00     0.167 HD
ENDBRANCH  23  25
ENDBRANCH  19  23
ENDBRANCH  17  19
ENDBRANCH  14  17
ENDBRANCH   1  14
TORSDOF 6
ENDMDL
MODEL 8
REMARK VINA RESULT:      -6.7     11.697     14.070
REMARK  6 active torsions:
REMARK  status: ('A' for Active; 'I' for Inactive)
REMARK    1  A    between atoms: C_1  and  S_14 
REMARK    2  A    between atoms: N_17  and  S_14 
REMARK    3  A    between atoms: C_18  and  N_17 
REMARK    4  A    between atoms: C_18  and  C_19 
REMARK    5  A    between atoms: C_22  and  C_18 
REMARK    6  A    between atoms: O_24  and  C_22 
ROOT
HETATM    1  C   UNK N   1      21.698  14.487   5.442  0.00  0.00     0.080 A 
HETATM    2  C   UNK N   1      23.015  14.194   5.827  0.00  0.00     0.045 A 
HETATM    3  C   UNK N   1      23.222  13.634   7.080  0.00  0.00     0.018 A 
HETATM    4  C   UNK N   1      22.171  13.363   7.961  0.00  0.00    -0.007 A 
HETATM    5  C   UNK N   1      20.855  13.612   7.575  0.00  0.00     0.015 A 
HETATM    6  C   UNK N   1      20.624  14.182   6.311  0.00  0.00     0.026 A 
HETATM    7  S   UNK N   1      24.647  13.257   7.848  0.00  0.00    -0.089 SA
HETATM    8  C   UNK N   1      24.007  12.767   9.302  0.00  0.00     0.016 A 
HETATM    9  C   UNK N   1      22.615  12.876   9.220  0.00  0.00    -0.007 A 
HETATM   10  C   UNK N   1      24.652  12.344  10.458  0.00  0.00     0.020 A 
HETATM   11  C   UNK N   1      23.859  12.019  11.570  0.00  0.00     0.001 A 
HETATM   12  C   UNK N   1      22.452  12.121  11.502  0.00  0.00     0.001 A 
HETATM   13  C   UNK N   1      21.821  12.552  10.321  0.00  0.00     0.013 A 
ENDROOT
BRANCH   1  14
HETATM   14  S   UNK N   1      21.366  15.410   3.934  0.00  0.00     0.259 S 
HETATM   15  O   UNK N   1      19.848  15.593   4.072  0.00  0.00    -0.201 OA
HETATM   16  O   UNK N   1      21.331  14.627   2.613  0.00  0.00    -0.201 OA
BRANCH  14  17
HETATM   17  N   UNK N   1      21.749  17.132   3.627  0.00  0.00    -0.300 N 
HETATM   18  H   UNK N   1      22.375  17.410   2.871  0.00  0.00     0.173 HD
BRANCH  17  19
HETATM   19  C   UNK N   1      21.121  18.132   4.512  0.00  0.00     0.194 C 
BRANCH  19  20
HETATM   20  C   UNK N   1      20.919  19.495   3.812  0.00  0.00     0.011 C 
HETATM   21  C   UNK N   1      19.811  19.448   2.771  0.00  0.00     0.012 C 
HETATM   22  C   UNK N   1      22.189  19.924   3.094  0.00  0.00     0.012 C 
ENDBRANCH  19  20
BRANCH  19  23
HETATM   23  C   UNK N   1      21.848  18.230   5.837  0.00  0.00     0.164 C 
HETATM   24  O   UNK N   1      21.268  18.604   6.840  0.00  0.00    -0.648 OA
BRANCH  23  25
HETATM   25  O   UNK N   1      23.173  17.986   5.900  0.00  0.00    -0.775 OA
HETATM   26  H   UNK N   1      23.858  18.383   5.400  0.00  0.00     0.167 HD
ENDBRANCH  23  25
ENDBRANCH  19  23
ENDBRANCH  17  19
ENDBRANCH  14  17
ENDBRANCH   1  14
TORSDOF 6
ENDMDL
MODEL 9
REMARK VINA RESULT:      -6.6      7.935     11.041
REMARK  6 active torsions:
REMARK  status: ('A' for Active; 'I' for Inactive)
REMARK    1  A    between atoms: C_1  and  S_14 
REMARK    2  A    between atoms: N_17  and  S_14 
REMARK    3  A    between atoms: C_18  and  N_17 
REMARK    4  A    between atoms: C_18  and  C_19 
REMARK    5  A    between atoms: C_22  and  C_18 
REMARK    6  A    between atoms: O_24  and  C_22 
ROOT
HETATM    1  C   UNK N   1      27.963  18.485   5.553  0.00  0.00     0.080 A 
HETATM    2  C   UNK N   1      28.977  18.087   4.669  0.00  0.00     0.045 A 
HETATM    3  C   UNK N   1      30.145  17.561   5.205  0.00  0.00     0.018 A 
HETATM    4  C   UNK N   1      30.340  17.424   6.582  0.00  0.00    -0.007 A 
HETATM    5  C   UNK N   1      29.326  17.779   7.469  0.00  0.00     0.015 A 
HETATM    6  C   UNK N   1      28.136  18.316   6.947  0.00  0.00     0.026 A 
HETATM    7  S   UNK N   1      31.540  17.085   4.437  0.00  0.00    -0.089 SA
HETATM    8  C   UNK N   1      32.436  16.715   5.788  0.00  0.00     0.016 A 
HETATM    9  C   UNK N   1      31.638  16.949   6.913  0.00  0.00    -0.007 A 
HETATM   10  C   UNK N   1      33.752  16.282   5.888  0.00  0.00     0.020 A 
HETATM   11  C   UNK N   1      34.279  16.077   7.174  0.00  0.00     0.001 A 
HETATM   12  C   UNK N   1      33.485  16.306   8.319  0.00  0.00     0.001 A 
HETATM   13  C   UNK N   1      32.155  16.745   8.193  0.00  0.00     0.013 A 
ENDROOT
BRANCH   1  14
HETATM   14  S   UNK N   1      26.518  19.373   4.954  0.00  0.00     0.259 S 
HETATM   15  O   UNK N   1      27.184  20.268   3.898  0.00  0.00    -0.201 OA
HETATM   16  O   UNK N   1      25.967  20.509   5.827  0.00  0.00    -0.201 OA
BRANCH  14  17
HETATM   17  N   UNK N   1      25.232  18.728   3.887  0.00  0.00    -0.300 N 
HETATM   18  H   UNK N   1      25.406  17.943   3.259  0.00  0.00     0.173 HD
BRANCH  17  19
HETATM   19  C   UNK N   1      23.909  19.378   3.956  0.00  0.00     0.194 C 
BRANCH  19  20
HETATM   20  C   UNK N   1      22.746  18.363   3.863  0.00  0.00     0.011 C 
HETATM   21  C   UNK N   1      21.782  18.485   5.032  0.00  0.00     0.012 C 
HETATM   22  C   UNK N   1      23.277  16.938   3.869  0.00  0.00     0.012 C 
ENDBRANCH  19  20
BRANCH  19  23
HETATM   23  C   UNK N   1      23.801  20.518   2.964  0.00  0.00     0.164 C 
HETATM   24  O   UNK N   1      22.777  21.170   2.873  0.00  0.00    -0.648 OA
BRANCH  23  25
HETATM   25  O   UNK N   1      24.813  20.767   2.109  0.00  0.00    -0.775 OA
HETATM   26  H   UNK N   1      25.656  21.127   2.302  0.00  0.00     0.167 HD
ENDBRANCH  23  25
ENDBRANCH  19  23
ENDBRANCH  17  19
ENDBRANCH  14  17
ENDBRANCH   1  14
TORSDOF 6
ENDMDL
