REMARK  6 active torsions:
REMARK  status: ('A' for Active; 'I' for Inactive)
REMARK    1  A    between atoms: C_1  and  S_14 
REMARK    2  A    between atoms: N_17  and  S_14 
REMARK    3  A    between atoms: C_18  and  N_17 
REMARK    4  A    between atoms: C_18  and  C_19 
REMARK    5  A    between atoms: C_22  and  C_18 
REMARK    6  A    between atoms: O_24  and  C_22 
ROOT
HETATM    1  C   UNK N   1      -0.986  -0.054  -0.055  0.00  0.00     0.080 A 
HETATM    2  C   UNK N   1       0.329   0.411   0.093  0.00  0.00     0.045 A 
HETATM    3  C   UNK N   1       0.534   1.781   0.180  0.00  0.00     0.018 A 
HETATM    4  C   UNK N   1      -0.517   2.700   0.119  0.00  0.00    -0.007 A 
HETATM    5  C   UNK N   1      -1.832   2.250   0.012  0.00  0.00     0.015 A 
HETATM    6  C   UNK N   1      -2.061   0.866  -0.081  0.00  0.00     0.026 A 
HETATM    7  S   UNK N   1       1.958   2.634   0.274  0.00  0.00    -0.089 SA
HETATM    8  C   UNK N   1       1.316   4.167   0.220  0.00  0.00     0.016 A 
HETATM    9  C   UNK N   1      -0.075   4.050   0.138  0.00  0.00    -0.007 A 
HETATM   10  C   UNK N   1       1.960   5.398   0.216  0.00  0.00     0.020 A 
HETATM   11  C   UNK N   1       1.166   6.553   0.126  0.00  0.00     0.001 A 
HETATM   12  C   UNK N   1      -0.240   6.452   0.045  0.00  0.00     0.001 A 
HETATM   13  C   UNK N   1      -0.870   5.194   0.051  0.00  0.00     0.013 A 
ENDROOT
BRANCH   1  14
HETATM   14  S   UNK N   1      -1.314  -1.790  -0.394  0.00  0.00     0.259 S 
HETATM   15  O   UNK N   1      -2.340  -1.643  -1.527  0.00  0.00    -0.201 OA
HETATM   16  O   UNK N   1      -2.231  -2.545   0.579  0.00  0.00    -0.201 OA
BRANCH  14  17
HETATM   17  N   UNK N   1      -0.235  -2.936  -1.248  0.00  0.00    -0.300 N 
HETATM   18  H   UNK N   1      -0.292  -3.067  -2.258  0.00  0.00     0.173 HD
BRANCH  17  19
HETATM   19  C   UNK N   1       0.741  -3.682  -0.430  0.00  0.00     0.194 C 
BRANCH  19  20
HETATM   20  C   UNK N   1       0.092  -4.339   0.810  0.00  0.00     0.011 C 
HETATM   21  C   UNK N   1       1.079  -5.194   1.590  0.00  0.00     0.012 C 
HETATM   22  C   UNK N   1      -1.056  -5.247   0.397  0.00  0.00     0.012 C 
ENDBRANCH  19  20
BRANCH  19  23
HETATM   23  C   UNK N   1       1.952  -2.833  -0.104  0.00  0.00     0.164 C 
HETATM   24  O   UNK N   1       2.026  -1.680  -0.488  0.00  0.00    -0.648 OA
BRANCH  23  25
HETATM   25  O   UNK N   1       3.002  -3.375   0.545  0.00  0.00    -0.775 OA
HETATM   26  H   UNK N   1       3.041  -4.195   0.996  0.00  0.00     0.167 HD
ENDBRANCH  23  25
ENDBRANCH  19  23
ENDBRANCH  17  19
ENDBRANCH  14  17
ENDBRANCH   1  14
TORSDOF 6
