REMARK  3 active torsions:
REMARK  status: ('A' for Active; 'I' for Inactive)
REMARK    1  A    between atoms: C_2  and  S_14 
REMARK    2  A    between atoms: C_6  and  N_11 
REMARK    3  A    between atoms: S_14  and  O_16 
ROOT
HETATM    1  C   UNK N   1      -0.431  -2.086   0.149  0.00  0.00     0.037 A 
HETATM    2  C   UNK N   1      -1.685  -1.496   0.298  0.00  0.00     0.073 A 
HETATM    3  C   UNK N   1      -1.790  -0.101   0.376  0.00  0.00     0.026 A 
HETATM    4  C   UNK N   1      -0.642   0.694   0.270  0.00  0.00     0.016 A 
HETATM    5  C   UNK N   1       0.628   0.116   0.101  0.00  0.00     0.001 A 
HETATM    6  C   UNK N   1       1.827   0.894  -0.018  0.00  0.00     0.040 A 
HETATM    7  C   UNK N   1       3.048   0.210  -0.170  0.00  0.00     0.030 A 
HETATM    8  C   UNK N   1       3.110  -1.181  -0.211  0.00  0.00     0.003 A 
HETATM    9  C   UNK N   1       1.947  -1.933  -0.104  0.00  0.00     0.012 A 
HETATM   10  C   UNK N   1       0.717  -1.302   0.050  0.00  0.00    -0.022 A 
ENDROOT
BRANCH   2  11
HETATM   11  S   UNK N   1      -3.127  -2.560   0.436  0.00  0.00     0.129 S 
HETATM   12  O   UNK N   1      -4.555  -2.016   0.291  0.00  0.00    -0.598 OA
HETATM   13  O   UNK N   1      -3.102  -3.924  -0.269  0.00  0.00    -0.598 OA
BRANCH  11  14
HETATM   14  O   UNK N   1      -3.081  -2.032  -1.201  0.00  0.00    -0.292 OA
HETATM   15  H   UNK N   1      -2.810  -1.905  -2.123  0.00  0.00     0.232 HD
ENDBRANCH  11  14
ENDBRANCH   2  11
BRANCH   6  16
HETATM   16  N   UNK N   1       1.853   2.336   0.004  0.00  0.00    -0.389 N 
HETATM   17  C   UNK N   1       3.111   3.035  -0.107  0.00  0.00     0.149 C 
HETATM   18  C   UNK N   1       0.666   3.145   0.104  0.00  0.00     0.149 C 
ENDBRANCH   6  16
TORSDOF 3
