MODEL 1
REMARK VINA RESULT:      -6.1      0.000      0.000
REMARK  3 active torsions:
REMARK  status: ('A' for Active; 'I' for Inactive)
REMARK    1  A    between atoms: C_2  and  S_14 
REMARK    2  A    between atoms: C_6  and  N_11 
REMARK    3  A    between atoms: S_14  and  O_16 
ROOT
HETATM    1  C   UNK N   1      23.878  20.203   3.176  0.00  0.00     0.037 A 
HETATM    2  C   UNK N   1      22.713  19.445   3.279  0.00  0.00     0.073 A 
HETATM    3  C   UNK N   1      22.781  18.130   3.756  0.00  0.00     0.026 A 
HETATM    4  C   UNK N   1      24.011  17.594   4.158  0.00  0.00     0.016 A 
HETATM    5  C   UNK N   1      25.193  18.350   4.077  0.00  0.00     0.001 A 
HETATM    6  C   UNK N   1      26.471  17.842   4.484  0.00  0.00     0.040 A 
HETATM    7  C   UNK N   1      27.592  18.682   4.346  0.00  0.00     0.030 A 
HETATM    8  C   UNK N   1      27.484  19.974   3.837  0.00  0.00     0.003 A 
HETATM    9  C   UNK N   1      26.244  20.468   3.452  0.00  0.00     0.012 A 
HETATM   10  C   UNK N   1      25.107  19.674   3.567  0.00  0.00    -0.022 A 
ENDROOT
BRANCH   2  11
HETATM   11  S   UNK N   1      21.160  20.176   2.745  0.00  0.00     0.129 S 
HETATM   12  O   UNK N   1      20.315  21.058   3.673  0.00  0.00    -0.598 OA
HETATM   13  O   UNK N   1      21.092  20.813   1.349  0.00  0.00    -0.598 OA
BRANCH  11  14
HETATM   14  O   UNK N   1      22.247  21.489   2.980  0.00  0.00    -0.292 OA
HETATM   15  H   UNK N   1      22.662  22.292   3.328  0.00  0.00     0.232 HD
ENDBRANCH  11  14
ENDBRANCH   2  11
BRANCH   6  16
HETATM   16  N   UNK N   1      26.673  16.522   5.030  0.00  0.00    -0.389 N 
HETATM   17  C   UNK N   1      26.899  15.404   4.145  0.00  0.00     0.149 C 
HETATM   18  C   UNK N   1      26.691  16.248   6.443  0.00  0.00     0.149 C 
ENDBRANCH   6  16
TORSDOF 3
ENDMDL
MODEL 2
REMARK VINA RESULT:      -6.1      7.743      9.368
REMARK  3 active torsions:
REMARK  status: ('A' for Active; 'I' for Inactive)
REMARK    1  A    between atoms: C_2  and  S_14 
REMARK    2  A    between atoms: C_6  and  N_11 
REMARK    3  A    between atoms: S_14  and  O_16 
ROOT
HETATM    1  C   UNK N   1      31.722  17.930   8.729  0.00  0.00     0.037 A 
HETATM    2  C   UNK N   1      32.757  17.608   7.854  0.00  0.00     0.073 A 
HETATM    3  C   UNK N   1      32.456  17.156   6.562  0.00  0.00     0.026 A 
HETATM    4  C   UNK N   1      31.123  17.063   6.146  0.00  0.00     0.016 A 
HETATM    5  C   UNK N   1      30.067  17.402   7.010  0.00  0.00     0.001 A 
HETATM    6  C   UNK N   1      28.689  17.327   6.621  0.00  0.00     0.040 A 
HETATM    7  C   UNK N   1      27.712  17.678   7.573  0.00  0.00     0.030 A 
HETATM    8  C   UNK N   1      28.055  18.092   8.858  0.00  0.00     0.003 A 
HETATM    9  C   UNK N   1      29.391  18.172   9.230  0.00  0.00     0.012 A 
HETATM   10  C   UNK N   1      30.391  17.834   8.325  0.00  0.00    -0.022 A 
ENDROOT
BRANCH   2  11
HETATM   11  S   UNK N   1      34.452  17.737   8.438  0.00  0.00     0.129 S 
HETATM   12  O   UNK N   1      35.513  16.684   8.090  0.00  0.00    -0.598 OA
HETATM   13  O   UNK N   1      35.148  19.104   8.370  0.00  0.00    -0.598 OA
BRANCH  11  14
HETATM   14  O   UNK N   1      34.521  17.935   6.730  0.00  0.00    -0.292 OA
HETATM   15  H   UNK N   1      34.816  18.184   5.841  0.00  0.00     0.232 HD
ENDBRANCH  11  14
ENDBRANCH   2  11
BRANCH   6  16
HETATM   16  N   UNK N   1      28.246  16.919   5.310  0.00  0.00    -0.389 N 
HETATM   17  C   UNK N   1      27.919  15.536   5.060  0.00  0.00     0.149 C 
HETATM   18  C   UNK N   1      28.078  17.836   4.213  0.00  0.00     0.149 C 
ENDBRANCH   6  16
TORSDOF 3
ENDMDL
MODEL 3
REMARK VINA RESULT:      -5.9     16.562     18.325
REMARK  3 active torsions:
REMARK  status: ('A' for Active; 'I' for Inactive)
REMARK    1  A    between atoms: C_2  and  S_14 
REMARK    2  A    between atoms: C_6  and  N_11 
REMARK    3  A    between atoms: S_14  and  O_16 
ROOT
HETATM    1  C   UNK N   1      35.352  13.268  15.536  0.00  0.00     0.037 A 
HETATM    2  C   UNK N   1      35.407  12.358  14.482  0.00  0.00     0.073 A 
HETATM    3  C   UNK N   1      35.436  10.983  14.753  0.00  0.00     0.026 A 
HETATM    4  C   UNK N   1      35.376  10.530  16.076  0.00  0.00     0.016 A 
HETATM    5  C   UNK N   1      35.302  11.434  17.150  0.00  0.00     0.001 A 
HETATM    6  C   UNK N   1      35.232  11.011  18.519  0.00  0.00     0.040 A 
HETATM    7  C   UNK N   1      35.175  12.003  19.517  0.00  0.00     0.030 A 
HETATM    8  C   UNK N   1      35.180  13.360  19.203  0.00  0.00     0.003 A 
HETATM    9  C   UNK N   1      35.239  13.768  17.877  0.00  0.00     0.012 A 
HETATM   10  C   UNK N   1      35.299  12.825  16.856  0.00  0.00    -0.022 A 
ENDROOT
BRANCH   2  11
HETATM   11  S   UNK N   1      35.489  12.990  12.801  0.00  0.00     0.129 S 
HETATM   12  O   UNK N   1      34.636  14.179  12.338  0.00  0.00    -0.598 OA
HETATM   13  O   UNK N   1      36.868  13.156  12.147  0.00  0.00    -0.598 OA
BRANCH  11  14
HETATM   14  O   UNK N   1      36.132  14.229  13.807  0.00  0.00    -0.292 OA
HETATM   15  H   UNK N   1      36.374  14.754  14.585  0.00  0.00     0.232 HD
ENDBRANCH  11  14
ENDBRANCH   2  11
BRANCH   6  16
HETATM   16  N   UNK N   1      35.212   9.629  18.932  0.00  0.00    -0.389 N 
HETATM   17  C   UNK N   1      33.955   8.930  19.047  0.00  0.00     0.149 C 
HETATM   18  C   UNK N   1      36.405   8.873  19.217  0.00  0.00     0.149 C 
ENDBRANCH   6  16
TORSDOF 3
ENDMDL
MODEL 4
REMARK VINA RESULT:      -5.8      7.892      9.381
REMARK  3 active torsions:
REMARK  status: ('A' for Active; 'I' for Inactive)
REMARK    1  A    between atoms: C_2  and  S_14 
REMARK    2  A    between atoms: C_6  and  N_11 
REMARK    3  A    between atoms: S_14  and  O_16 
ROOT
HETATM    1  C   UNK N   1      33.206  17.447   6.011  0.00  0.00     0.037 A 
HETATM    2  C   UNK N   1      32.816  17.536   7.347  0.00  0.00     0.073 A 
HETATM    3  C   UNK N   1      31.467  17.375   7.688  0.00  0.00     0.026 A 
HETATM    4  C   UNK N   1      30.523  17.092   6.692  0.00  0.00     0.016 A 
HETATM    5  C   UNK N   1      30.901  16.981   5.343  0.00  0.00     0.001 A 
HETATM    6  C   UNK N   1      29.968  16.686   4.295  0.00  0.00     0.040 A 
HETATM    7  C   UNK N   1      30.455  16.612   2.976  0.00  0.00     0.030 A 
HETATM    8  C   UNK N   1      31.801  16.810   2.678  0.00  0.00     0.003 A 
HETATM    9  C   UNK N   1      32.705  17.087   3.696  0.00  0.00     0.012 A 
HETATM   10  C   UNK N   1      32.271  17.173   5.014  0.00  0.00    -0.022 A 
ENDROOT
BRANCH   2  11
HETATM   11  S   UNK N   1      34.064  17.907   8.586  0.00  0.00     0.129 S 
HETATM   12  O   UNK N   1      34.894  16.805   9.259  0.00  0.00    -0.598 OA
HETATM   13  O   UNK N   1      35.017  19.085   8.336  0.00  0.00    -0.598 OA
BRANCH  11  14
HETATM   14  O   UNK N   1      34.916  17.298   7.220  0.00  0.00    -0.292 OA
HETATM   15  H   UNK N   1      35.282  17.201   6.328  0.00  0.00     0.232 HD
ENDBRANCH  11  14
ENDBRANCH   2  11
BRANCH   6  16
HETATM   16  N   UNK N   1      28.561  16.457   4.515  0.00  0.00    -0.389 N 
HETATM   17  C   UNK N   1      27.618  17.533   4.323  0.00  0.00     0.149 C 
HETATM   18  C   UNK N   1      28.020  15.179   4.898  0.00  0.00     0.149 C 
ENDBRANCH   6  16
TORSDOF 3
ENDMDL
MODEL 5
REMARK VINA RESULT:      -5.7     11.017     12.788
REMARK  3 active torsions:
REMARK  status: ('A' for Active; 'I' for Inactive)
REMARK    1  A    between atoms: C_2  and  S_14 
REMARK    2  A    between atoms: C_6  and  N_11 
REMARK    3  A    between atoms: S_14  and  O_16 
ROOT
HETATM    1  C   UNK N   1      27.652  24.162  -3.993  0.00  0.00     0.037 A 
HETATM    2  C   UNK N   1      28.979  24.260  -3.578  0.00  0.00     0.073 A 
HETATM    3  C   UNK N   1      29.702  25.432  -3.837  0.00  0.00     0.026 A 
HETATM    4  C   UNK N   1      29.080  26.510  -4.479  0.00  0.00     0.016 A 
HETATM    5  C   UNK N   1      27.737  26.435  -4.888  0.00  0.00     0.001 A 
HETATM    6  C   UNK N   1      27.062  27.518  -5.543  0.00  0.00     0.040 A 
HETATM    7  C   UNK N   1      25.719  27.328  -5.922  0.00  0.00     0.030 A 
HETATM    8  C   UNK N   1      25.048  26.134  -5.673  0.00  0.00     0.003 A 
HETATM    9  C   UNK N   1      25.701  25.089  -5.031  0.00  0.00     0.012 A 
HETATM   10  C   UNK N   1      27.028  25.228  -4.640  0.00  0.00    -0.022 A 
ENDROOT
BRANCH   2  11
HETATM   11  S   UNK N   1      29.733  22.847  -2.763  0.00  0.00     0.129 S 
HETATM   12  O   UNK N   1      30.555  21.806  -3.537  0.00  0.00    -0.598 OA
HETATM   13  O   UNK N   1      30.452  23.069  -1.425  0.00  0.00    -0.598 OA
BRANCH  11  14
HETATM   14  O   UNK N   1      31.034  23.835  -3.302  0.00  0.00    -0.292 OA
HETATM   15  H   UNK N   1      31.548  24.513  -3.767  0.00  0.00     0.232 HD
ENDBRANCH  11  14
ENDBRANCH   2  11
BRANCH   6  16
HETATM   16  N   UNK N   1      27.677  28.790  -5.830  0.00  0.00    -0.389 N 
HETATM   17  C   UNK N   1      28.408  28.975  -7.061  0.00  0.00     0.149 C 
HETATM   18  C   UNK N   1      27.581  29.929  -4.954  0.00  0.00     0.149 C 
ENDBRANCH   6  16
TORSDOF 3
ENDMDL
MODEL 6
REMARK VINA RESULT:      -5.7     10.767     12.310
REMARK  3 active torsions:
REMARK  status: ('A' for Active; 'I' for Inactive)
REMARK    1  A    between atoms: C_2  and  S_14 
REMARK    2  A    between atoms: C_6  and  N_11 
REMARK    3  A    between atoms: S_14  and  O_16 
ROOT
HETATM    1  C   UNK N   1      28.318  24.342  -3.549  0.00  0.00     0.037 A 
HETATM    2  C   UNK N   1      29.184  23.342  -3.990  0.00  0.00     0.073 A 
HETATM    3  C   UNK N   1      29.083  22.868  -5.304  0.00  0.00     0.026 A 
HETATM    4  C   UNK N   1      28.138  23.421  -6.177  0.00  0.00     0.016 A 
HETATM    5  C   UNK N   1      27.269  24.442  -5.754  0.00  0.00     0.001 A 
HETATM    6  C   UNK N   1      26.292  25.040  -6.617  0.00  0.00     0.040 A 
HETATM    7  C   UNK N   1      25.464  26.046  -6.084  0.00  0.00     0.030 A 
HETATM    8  C   UNK N   1      25.578  26.466  -4.761  0.00  0.00     0.003 A 
HETATM    9  C   UNK N   1      26.531  25.892  -3.928  0.00  0.00     0.012 A 
HETATM   10  C   UNK N   1      27.370  24.892  -4.409  0.00  0.00    -0.022 A 
ENDROOT
BRANCH   2  11
HETATM   11  S   UNK N   1      30.375  22.660  -2.829  0.00  0.00     0.129 S 
HETATM   12  O   UNK N   1      31.879  22.627  -3.134  0.00  0.00    -0.598 OA
HETATM   13  O   UNK N   1      30.235  23.015  -1.342  0.00  0.00    -0.598 OA
BRANCH  11  14
HETATM   14  O   UNK N   1      30.702  24.348  -2.908  0.00  0.00    -0.292 OA
HETATM   15  H   UNK N   1      31.109  25.200  -3.125  0.00  0.00     0.232 HD
ENDBRANCH  11  14
ENDBRANCH   2  11
BRANCH   6  16
HETATM   16  N   UNK N   1      26.113  24.673  -8.000  0.00  0.00    -0.389 N 
HETATM   17  C   UNK N   1      26.743  25.452  -9.039  0.00  0.00     0.149 C 
HETATM   18  C   UNK N   1      25.346  23.528  -8.420  0.00  0.00     0.149 C 
ENDBRANCH   6  16
TORSDOF 3
ENDMDL
MODEL 7
REMARK VINA RESULT:      -5.7      8.819     10.381
REMARK  3 active torsions:
REMARK  status: ('A' for Active; 'I' for Inactive)
REMARK    1  A    between atoms: C_2  and  S_14 
REMARK    2  A    between atoms: C_6  and  N_11 
REMARK    3  A    between atoms: S_14  and  O_16 
ROOT
HETATM    1  C   UNK N   1      33.986  16.883   7.180  0.00  0.00     0.037 A 
HETATM    2  C   UNK N   1      33.705  16.479   8.484  0.00  0.00     0.073 A 
HETATM    3  C   UNK N   1      32.374  16.306   8.885  0.00  0.00     0.026 A 
HETATM    4  C   UNK N   1      31.335  16.507   7.967  0.00  0.00     0.016 A 
HETATM    5  C   UNK N   1      31.602  16.898   6.644  0.00  0.00     0.001 A 
HETATM    6  C   UNK N   1      30.568  17.108   5.671  0.00  0.00     0.040 A 
HETATM    7  C   UNK N   1      30.948  17.511   4.378  0.00  0.00     0.030 A 
HETATM    8  C   UNK N   1      32.284  17.702   4.030  0.00  0.00     0.003 A 
HETATM    9  C   UNK N   1      33.284  17.490   4.971  0.00  0.00     0.012 A 
HETATM   10  C   UNK N   1      32.958  17.092   6.263  0.00  0.00    -0.022 A 
ENDROOT
BRANCH   2  11
HETATM   11  S   UNK N   1      35.073  16.240   9.626  0.00  0.00     0.129 S 
HETATM   12  O   UNK N   1      35.216  17.073  10.907  0.00  0.00    -0.598 OA
HETATM   13  O   UNK N   1      35.487  14.806   9.985  0.00  0.00    -0.598 OA
BRANCH  11  14
HETATM   14  O   UNK N   1      33.658  15.739  10.468  0.00  0.00    -0.292 OA
HETATM   15  H   UNK N   1      32.871  15.241  10.736  0.00  0.00     0.232 HD
ENDBRANCH  11  14
ENDBRANCH   2  11
BRANCH   6  16
HETATM   16  N   UNK N   1      29.163  16.924   5.942  0.00  0.00    -0.389 N 
HETATM   17  C   UNK N   1      28.376  18.028   6.437  0.00  0.00     0.149 C 
HETATM   18  C   UNK N   1      28.472  15.682   5.715  0.00  0.00     0.149 C 
ENDBRANCH   6  16
TORSDOF 3
ENDMDL
MODEL 8
REMARK VINA RESULT:      -5.4      1.105      2.591
REMARK  3 active torsions:
REMARK  status: ('A' for Active; 'I' for Inactive)
REMARK    1  A    between atoms: C_2  and  S_14 
REMARK    2  A    between atoms: C_6  and  N_11 
REMARK    3  A    between atoms: S_14  and  O_16 
ROOT
HETATM    1  C   UNK N   1      22.765  18.129   4.060  0.00  0.00     0.037 A 
HETATM    2  C   UNK N   1      22.914  19.347   3.398  0.00  0.00     0.073 A 
HETATM    3  C   UNK N   1      24.169  19.969   3.366  0.00  0.00     0.026 A 
HETATM    4  C   UNK N   1      25.272  19.351   3.968  0.00  0.00     0.016 A 
HETATM    5  C   UNK N   1      25.143  18.114   4.623  0.00  0.00     0.001 A 
HETATM    6  C   UNK N   1      26.248  17.445   5.246  0.00  0.00     0.040 A 
HETATM    7  C   UNK N   1      26.002  16.216   5.887  0.00  0.00     0.030 A 
HETATM    8  C   UNK N   1      24.731  15.648   5.922  0.00  0.00     0.003 A 
HETATM    9  C   UNK N   1      23.663  16.293   5.312  0.00  0.00     0.012 A 
HETATM   10  C   UNK N   1      23.857  17.511   4.667  0.00  0.00    -0.022 A 
ENDROOT
BRANCH   2  11
HETATM   11  S   UNK N   1      21.466  20.102   2.648  0.00  0.00     0.129 S 
HETATM   12  O   UNK N   1      20.556  21.063   3.426  0.00  0.00    -0.598 OA
HETATM   13  O   UNK N   1      21.588  20.667   1.225  0.00  0.00    -0.598 OA
BRANCH  11  14
HETATM   14  O   UNK N   1      22.572  21.387   2.947  0.00  0.00    -0.292 OA
HETATM   15  H   UNK N   1      23.115  22.182   2.837  0.00  0.00     0.232 HD
ENDBRANCH  11  14
ENDBRANCH   2  11
BRANCH   6  16
HETATM   16  N   UNK N   1      27.597  17.956   5.249  0.00  0.00    -0.389 N 
HETATM   17  C   UNK N   1      28.510  17.584   4.194  0.00  0.00     0.149 C 
HETATM   18  C   UNK N   1      28.095  18.862   6.250  0.00  0.00     0.149 C 
ENDBRANCH   6  16
TORSDOF 3
ENDMDL
MODEL 9
REMARK VINA RESULT:      -5.3     10.609     11.738
REMARK  3 active torsions:
REMARK  status: ('A' for Active; 'I' for Inactive)
REMARK    1  A    between atoms: C_2  and  S_14 
REMARK    2  A    between atoms: C_6  and  N_11 
REMARK    3  A    between atoms: S_14  and  O_16 
ROOT
HETATM    1  C   UNK N   1      27.756  21.555  -7.796  0.00  0.00     0.037 A 
HETATM    2  C   UNK N   1      26.966  22.670  -7.522  0.00  0.00     0.073 A 
HETATM    3  C   UNK N   1      27.304  23.514  -6.456  0.00  0.00     0.026 A 
HETATM    4  C   UNK N   1      28.450  23.254  -5.694  0.00  0.00     0.016 A 
HETATM    5  C   UNK N   1      29.268  22.144  -5.968  0.00  0.00     0.001 A 
HETATM    6  C   UNK N   1      30.452  21.846  -5.217  0.00  0.00     0.040 A 
HETATM    7  C   UNK N   1      31.189  20.700  -5.570  0.00  0.00     0.030 A 
HETATM    8  C   UNK N   1      30.799  19.870  -6.618  0.00  0.00     0.003 A 
HETATM    9  C   UNK N   1      29.656  20.165  -7.351  0.00  0.00     0.012 A 
HETATM   10  C   UNK N   1      28.894  21.285  -7.038  0.00  0.00    -0.022 A 
ENDROOT
BRANCH   2  11
HETATM   11  S   UNK N   1      25.502  22.957  -8.525  0.00  0.00     0.129 S 
HETATM   12  O   UNK N   1      24.138  22.354  -8.162  0.00  0.00    -0.598 OA
HETATM   13  O   UNK N   1      25.232  24.379  -9.039  0.00  0.00    -0.598 OA
BRANCH  11  14
HETATM   14  O   UNK N   1      25.214  23.750  -7.025  0.00  0.00    -0.292 OA
HETATM   15  H   UNK N   1      25.306  24.333  -6.256  0.00  0.00     0.232 HD
ENDBRANCH  11  14
ENDBRANCH   2  11
BRANCH   6  16
HETATM   16  N   UNK N   1      30.933  22.655  -4.124  0.00  0.00    -0.389 N 
HETATM   17  C   UNK N   1      31.867  23.726  -4.378  0.00  0.00     0.149 C 
HETATM   18  C   UNK N   1      30.507  22.473  -2.760  0.00  0.00     0.149 C 
ENDBRANCH   6  16
TORSDOF 3
ENDMDL
