MODEL 1
REMARK VINA RESULT:      -8.1      0.000      0.000
REMARK  7 active torsions:
REMARK  status: ('A' for Active; 'I' for Inactive)
REMARK    1  A    between atoms: S_2  and  N_4 
REMARK    2  A    between atoms: S_2  and  C_5 
REMARK    3  A    between atoms: C_10  and  N_11 
REMARK    4  A    between atoms: N_11  and  C_12 
REMARK    5  A    between atoms: C_23  and  O_25 
REMARK    6  A    between atoms: C_24  and  O_25 
REMARK    7  A    between atoms: C_24  and  C_26 
ROOT
HETATM    1  C   UNK N   1      37.163  12.942  11.879  0.00  0.00     0.150 A 
HETATM    2  N   UNK N   1      37.387  11.631  11.565  0.00  0.00    -0.069 N 
HETATM    3  C   UNK N   1      37.303  10.658  12.465  0.00  0.00     0.708 A 
HETATM    4  N   UNK N   1      36.993  10.909  13.758  0.00  0.00    -0.168 N 
ATOM      5  HN  UNK N   1      36.922  10.151  14.436  1.00  0.00     0.186 HD
HETATM    6  N   UNK N   1      37.633   9.467  11.934  0.00  0.00    -0.184 N 
ATOM      7  HN  UNK N   1      37.662   8.555  12.391  1.00  0.00     0.185 HD
HETATM    8  C   UNK N   1      37.919   9.777  10.639  0.00  0.00     0.215 A 
HETATM    9  N   UNK N   1      37.768  11.107  10.418  0.00  0.00    -0.273 N 
ATOM     10  HN  UNK N   1      37.918  11.602   9.539  1.00  0.00     0.189 HD
HETATM   11  C   UNK N   1      36.859  13.253  13.193  0.00  0.00     0.107 A 
HETATM   12  C   UNK N   1      36.775  12.213  14.132  0.00  0.00     0.161 A 
ENDROOT
BRANCH   1  13
HETATM   13  N   UNK N   1      37.510  13.970  10.972  0.00  0.00    -0.340 N 
HETATM   14  H   UNK N   1      38.446  14.173  10.739  0.00  0.00     0.167 HD
BRANCH  13  15
HETATM   15  C   UNK N   1      36.425  14.688  10.425  0.00  0.00     0.033 A 
HETATM   16  C   UNK N   1      35.919  14.356   9.171  0.00  0.00     0.031 A 
HETATM   17  C   UNK N   1      35.137  15.292   8.486  0.00  0.00     0.027 A 
HETATM   18  C   UNK N   1      34.865  16.538   9.071  0.00  0.00     0.079 A 
HETATM   19  C   UNK N   1      35.293  16.826  10.356  0.00  0.00     0.027 A 
HETATM   20  C   UNK N   1      36.058  15.904  11.033  0.00  0.00     0.031 A 
BRANCH  18  21
HETATM   21  S   UNK N   1      34.285  17.884   8.081  0.00  0.00     0.256 S 
HETATM   22  O   UNK N   1      34.498  17.710   6.572  0.00  0.00    -0.201 OA
HETATM   23  O   UNK N   1      34.958  19.225   8.398  0.00  0.00    -0.201 OA
BRANCH  21  24
HETATM   24  N   UNK N   1      32.556  18.188   8.271  0.00  0.00    -0.324 N 
HETATM   25  H   UNK N   1      31.795  17.519   8.151  0.00  0.00     0.169 HD
HETATM   26  H   UNK N   1      32.289  19.138   8.530  0.00  0.00     0.169 HD
ENDBRANCH  21  24
ENDBRANCH  18  21
ENDBRANCH  13  15
ENDBRANCH   1  13
BRANCH  12  27
HETATM   27  O   UNK N   1      36.520  12.543  15.407  0.00  0.00    -0.335 OA
BRANCH  27  28
HETATM   28  C   UNK N   1      35.314  13.041  15.824  0.00  0.00     0.182 C 
BRANCH  28  29
HETATM   29  C   UNK N   1      34.975  12.477  17.209  0.00  0.00     0.010 C 
HETATM   30  C   UNK N   1      35.340  13.491  18.283  0.00  0.00     0.007 C 
HETATM   31  C   UNK N   1      34.918  12.961  19.649  0.00  0.00     0.000 C 
HETATM   32  C   UNK N   1      35.640  11.650  19.947  0.00  0.00     0.000 C 
HETATM   33  C   UNK N   1      35.308  10.609  18.882  0.00  0.00     0.000 C 
HETATM   34  C   UNK N   1      35.668  11.129  17.496  0.00  0.00     0.007 C 
ENDBRANCH  28  29
ENDBRANCH  27  28
ENDBRANCH  12  27
TORSDOF 7
ENDMDL
MODEL 2
REMARK VINA RESULT:      -7.7      9.770     13.713
REMARK  7 active torsions:
REMARK  status: ('A' for Active; 'I' for Inactive)
REMARK    1  A    between atoms: S_2  and  N_4 
REMARK    2  A    between atoms: S_2  and  C_5 
REMARK    3  A    between atoms: C_10  and  N_11 
REMARK    4  A    between atoms: N_11  and  C_12 
REMARK    5  A    between atoms: C_23  and  O_25 
REMARK    6  A    between atoms: C_24  and  O_25 
REMARK    7  A    between atoms: C_24  and  C_26 
ROOT
HETATM    1  C   UNK N   1      27.606  19.518   4.601  0.00  0.00     0.150 A 
HETATM    2  N   UNK N   1      27.232  20.056   5.800  0.00  0.00    -0.069 N 
HETATM    3  C   UNK N   1      27.557  19.502   6.962  0.00  0.00     0.708 A 
HETATM    4  N   UNK N   1      28.279  18.358   7.029  0.00  0.00    -0.168 N 
ATOM      5  HN  UNK N   1      28.529  17.949   7.929  1.00  0.00     0.186 HD
HETATM    6  N   UNK N   1      27.020  20.174   7.996  0.00  0.00    -0.184 N 
ATOM      7  HN  UNK N   1      27.098  19.973   8.993  1.00  0.00     0.185 HD
HETATM    8  C   UNK N   1      26.347  21.188   7.385  0.00  0.00     0.215 A 
HETATM    9  N   UNK N   1      26.479  21.110   6.036  0.00  0.00    -0.273 N 
ATOM     10  HN  UNK N   1      26.076  21.743   5.345  1.00  0.00     0.189 HD
HETATM   11  C   UNK N   1      28.331  18.339   4.614  0.00  0.00     0.107 A 
HETATM   12  C   UNK N   1      28.665  17.765   5.851  0.00  0.00     0.161 A 
ENDROOT
BRANCH   1  13
HETATM   13  N   UNK N   1      27.032  19.980   3.393  0.00  0.00    -0.340 N 
HETATM   14  H   UNK N   1      27.544  20.500   2.732  0.00  0.00     0.167 HD
BRANCH  13  15
HETATM   15  C   UNK N   1      25.674  19.645   3.200  0.00  0.00     0.033 A 
HETATM   16  C   UNK N   1      24.755  20.619   2.816  0.00  0.00     0.031 A 
HETATM   17  C   UNK N   1      23.391  20.376   3.010  0.00  0.00     0.027 A 
HETATM   18  C   UNK N   1      22.970  19.162   3.573  0.00  0.00     0.079 A 
HETATM   19  C   UNK N   1      23.882  18.163   3.865  0.00  0.00     0.027 A 
HETATM   20  C   UNK N   1      25.223  18.397   3.670  0.00  0.00     0.031 A 
BRANCH  18  21
HETATM   21  S   UNK N   1      21.340  19.003   4.241  0.00  0.00     0.256 S 
HETATM   22  O   UNK N   1      20.456  17.964   3.539  0.00  0.00    -0.201 OA
HETATM   23  O   UNK N   1      20.514  20.293   4.180  0.00  0.00    -0.201 OA
BRANCH  21  24
HETATM   24  N   UNK N   1      21.332  18.539   5.945  0.00  0.00    -0.324 N 
HETATM   25  H   UNK N   1      22.123  18.545   6.590  0.00  0.00     0.169 HD
HETATM   26  H   UNK N   1      20.438  18.232   6.327  0.00  0.00     0.169 HD
ENDBRANCH  21  24
ENDBRANCH  18  21
ENDBRANCH  13  15
ENDBRANCH   1  13
BRANCH  12  27
HETATM   27  O   UNK N   1      29.331  16.602   5.839  0.00  0.00    -0.335 OA
BRANCH  27  28
HETATM   28  C   UNK N   1      30.194  16.223   6.835  0.00  0.00     0.182 C 
BRANCH  28  29
HETATM   29  C   UNK N   1      31.450  17.100   6.788  0.00  0.00     0.010 C 
HETATM   30  C   UNK N   1      32.551  16.387   6.016  0.00  0.00     0.007 C 
HETATM   31  C   UNK N   1      33.765  17.301   5.896  0.00  0.00     0.000 C 
HETATM   32  C   UNK N   1      34.291  17.655   7.284  0.00  0.00     0.000 C 
HETATM   33  C   UNK N   1      33.210  18.363   8.096  0.00  0.00     0.000 C 
HETATM   34  C   UNK N   1      31.960  17.498   8.189  0.00  0.00     0.007 C 
ENDBRANCH  28  29
ENDBRANCH  27  28
ENDBRANCH  12  27
TORSDOF 7
ENDMDL
MODEL 3
REMARK VINA RESULT:      -7.5      8.352     12.308
REMARK  7 active torsions:
REMARK  status: ('A' for Active; 'I' for Inactive)
REMARK    1  A    between atoms: S_2  and  N_4 
REMARK    2  A    between atoms: S_2  and  C_5 
REMARK    3  A    between atoms: C_10  and  N_11 
REMARK    4  A    between atoms: N_11  and  C_12 
REMARK    5  A    between atoms: C_23  and  O_25 
REMARK    6  A    between atoms: C_24  and  O_25 
REMARK    7  A    between atoms: C_24  and  C_26 
ROOT
HETATM    1  C   UNK N   1      27.900  17.901   6.467  0.00  0.00     0.150 A 
HETATM    2  N   UNK N   1      27.492  19.186   6.247  0.00  0.00    -0.069 N 
HETATM    3  C   UNK N   1      27.447  19.722   5.034  0.00  0.00     0.708 A 
HETATM    4  N   UNK N   1      27.811  19.023   3.932  0.00  0.00    -0.168 N 
ATOM      5  HN  UNK N   1      27.762  19.445   3.005  1.00  0.00     0.186 HD
HETATM    6  N   UNK N   1      27.079  21.015   5.080  0.00  0.00    -0.184 N 
ATOM      7  HN  UNK N   1      26.968  21.670   4.306  1.00  0.00     0.185 HD
HETATM    8  C   UNK N   1      26.894  21.234   6.411  0.00  0.00     0.215 A 
HETATM    9  N   UNK N   1      27.150  20.107   7.124  0.00  0.00    -0.273 N 
ATOM     10  HN  UNK N   1      27.089  19.997   8.136  1.00  0.00     0.189 HD
HETATM   11  C   UNK N   1      28.300  17.149   5.375  0.00  0.00     0.107 A 
HETATM   12  C   UNK N   1      28.248  17.731   4.099  0.00  0.00     0.161 A 
ENDROOT
BRANCH   1  13
HETATM   13  N   UNK N   1      28.183  17.447   7.777  0.00  0.00    -0.340 N 
HETATM   14  H   UNK N   1      27.474  17.257   8.433  0.00  0.00     0.167 HD
BRANCH  13  15
HETATM   15  C   UNK N   1      29.553  17.286   8.080  0.00  0.00     0.033 A 
HETATM   16  C   UNK N   1      30.245  18.280   8.767  0.00  0.00     0.031 A 
HETATM   17  C   UNK N   1      31.643  18.293   8.713  0.00  0.00     0.027 A 
HETATM   18  C   UNK N   1      32.323  17.306   7.985  0.00  0.00     0.079 A 
HETATM   19  C   UNK N   1      31.633  16.268   7.382  0.00  0.00     0.027 A 
HETATM   20  C   UNK N   1      30.259  16.251   7.439  0.00  0.00     0.031 A 
BRANCH  18  21
HETATM   21  S   UNK N   1      34.014  17.541   7.523  0.00  0.00     0.256 S 
HETATM   22  O   UNK N   1      34.228  17.990   6.071  0.00  0.00    -0.201 OA
HETATM   23  O   UNK N   1      34.876  16.280   7.651  0.00  0.00    -0.201 OA
BRANCH  21  24
HETATM   24  N   UNK N   1      34.838  18.755   8.506  0.00  0.00    -0.324 N 
HETATM   25  H   UNK N   1      35.204  18.639   9.452  0.00  0.00     0.169 HD
HETATM   26  H   UNK N   1      34.962  19.674   8.082  0.00  0.00     0.169 HD
ENDBRANCH  21  24
ENDBRANCH  18  21
ENDBRANCH  13  15
ENDBRANCH   1  13
BRANCH  12  27
HETATM   27  O   UNK N   1      28.678  16.999   3.061  0.00  0.00    -0.335 OA
BRANCH  27  28
HETATM   28  C   UNK N   1      29.150  15.719   3.193  0.00  0.00     0.182 C 
BRANCH  28  29
HETATM   29  C   UNK N   1      30.629  15.754   3.595  0.00  0.00     0.010 C 
HETATM   30  C   UNK N   1      31.380  16.746   2.718  0.00  0.00     0.007 C 
HETATM   31  C   UNK N   1      32.828  16.843   3.183  0.00  0.00     0.000 C 
HETATM   32  C   UNK N   1      33.505  15.479   3.071  0.00  0.00     0.000 C 
HETATM   33  C   UNK N   1      32.772  14.452   3.930  0.00  0.00     0.000 C 
HETATM   34  C   UNK N   1      31.305  14.370   3.527  0.00  0.00     0.007 C 
ENDBRANCH  28  29
ENDBRANCH  27  28
ENDBRANCH  12  27
TORSDOF 7
ENDMDL
MODEL 4
REMARK VINA RESULT:      -7.4      6.551     12.016
REMARK  7 active torsions:
REMARK  status: ('A' for Active; 'I' for Inactive)
REMARK    1  A    between atoms: S_2  and  N_4 
REMARK    2  A    between atoms: S_2  and  C_5 
REMARK    3  A    between atoms: C_10  and  N_11 
REMARK    4  A    between atoms: N_11  and  C_12 
REMARK    5  A    between atoms: C_23  and  O_25 
REMARK    6  A    between atoms: C_24  and  O_25 
REMARK    7  A    between atoms: C_24  and  C_26 
ROOT
HETATM    1  C   UNK N   1      30.160  17.010   6.823  0.00  0.00     0.150 A 
HETATM    2  N   UNK N   1      29.799  17.650   7.974  0.00  0.00    -0.069 N 
HETATM    3  C   UNK N   1      28.540  17.708   8.392  0.00  0.00     0.708 A 
HETATM    4  N   UNK N   1      27.530  17.137   7.695  0.00  0.00    -0.168 N 
ATOM      5  HN  UNK N   1      26.570  17.181   8.033  1.00  0.00     0.186 HD
HETATM    6  N   UNK N   1      28.426  18.447   9.510  0.00  0.00    -0.184 N 
ATOM      7  HN  UNK N   1      27.584  18.665  10.044  1.00  0.00     0.185 HD
HETATM    8  C   UNK N   1      29.709  18.834   9.754  0.00  0.00     0.215 A 
HETATM    9  N   UNK N   1      30.548  18.343   8.807  0.00  0.00    -0.273 N 
ATOM     10  HN  UNK N   1      31.557  18.482   8.752  1.00  0.00     0.189 HD
HETATM   11  C   UNK N   1      29.162  16.424   6.063  0.00  0.00     0.107 A 
HETATM   12  C   UNK N   1      27.837  16.495   6.518  0.00  0.00     0.161 A 
ENDROOT
BRANCH   1  13
HETATM   13  N   UNK N   1      31.453  17.186   6.275  0.00  0.00    -0.340 N 
HETATM   14  H   UNK N   1      31.605  17.672   5.432  0.00  0.00     0.167 HD
BRANCH  13  15
HETATM   15  C   UNK N   1      32.509  16.615   7.017  0.00  0.00     0.033 A 
HETATM   16  C   UNK N   1      32.328  15.410   7.691  0.00  0.00     0.031 A 
HETATM   17  C   UNK N   1      33.217  15.066   8.715  0.00  0.00     0.027 A 
HETATM   18  C   UNK N   1      34.277  15.926   9.039  0.00  0.00     0.079 A 
HETATM   19  C   UNK N   1      34.505  17.076   8.303  0.00  0.00     0.027 A 
HETATM   20  C   UNK N   1      33.636  17.413   7.292  0.00  0.00     0.031 A 
BRANCH  18  21
HETATM   21  S   UNK N   1      35.125  15.759  10.582  0.00  0.00     0.256 S 
HETATM   22  O   UNK N   1      34.436  14.840  11.599  0.00  0.00    -0.201 OA
HETATM   23  O   UNK N   1      35.307  17.079  11.339  0.00  0.00    -0.201 OA
BRANCH  21  24
HETATM   24  N   UNK N   1      36.758  15.109  10.407  0.00  0.00    -0.324 N 
HETATM   25  H   UNK N   1      37.386  14.808  11.153  0.00  0.00     0.169 HD
HETATM   26  H   UNK N   1      37.112  15.023   9.454  0.00  0.00     0.169 HD
ENDBRANCH  21  24
ENDBRANCH  18  21
ENDBRANCH  13  15
ENDBRANCH   1  13
BRANCH  12  27
HETATM   27  O   UNK N   1      26.882  15.957   5.746  0.00  0.00    -0.335 OA
BRANCH  27  28
HETATM   28  C   UNK N   1      26.642  16.363   4.459  0.00  0.00     0.182 C 
BRANCH  28  29
HETATM   29  C   UNK N   1      26.216  17.835   4.455  0.00  0.00     0.010 C 
HETATM   30  C   UNK N   1      24.885  17.987   3.732  0.00  0.00     0.007 C 
HETATM   31  C   UNK N   1      24.424  19.437   3.811  0.00  0.00     0.000 C 
HETATM   32  C   UNK N   1      25.451  20.349   3.143  0.00  0.00     0.000 C 
HETATM   33  C   UNK N   1      26.805  20.216   3.834  0.00  0.00     0.000 C 
HETATM   34  C   UNK N   1      27.271  18.766   3.822  0.00  0.00     0.007 C 
ENDBRANCH  28  29
ENDBRANCH  27  28
ENDBRANCH  12  27
TORSDOF 7
ENDMDL
MODEL 5
REMARK VINA RESULT:      -7.4      1.778      2.380
REMARK  7 active torsions:
REMARK  status: ('A' for Active; 'I' for Inactive)
REMARK    1  A    between atoms: S_2  and  N_4 
REMARK    2  A    between atoms: S_2  and  C_5 
REMARK    3  A    between atoms: C_10  and  N_11 
REMARK    4  A    between atoms: N_11  and  C_12 
REMARK    5  A    between atoms: C_23  and  O_25 
REMARK    6  A    between atoms: C_24  and  O_25 
REMARK    7  A    between atoms: C_24  and  C_26 
ROOT
HETATM    1  C   UNK N   1      36.426  14.089  12.113  0.00  0.00     0.150 A 
HETATM    2  N   UNK N   1      37.322  13.588  11.211  0.00  0.00    -0.069 N 
HETATM    3  C   UNK N   1      37.864  12.383  11.340  0.00  0.00     0.708 A 
HETATM    4  N   UNK N   1      37.563  11.573  12.383  0.00  0.00    -0.168 N 
ATOM      5  HN  UNK N   1      37.980  10.646  12.463  1.00  0.00     0.186 HD
HETATM    6  N   UNK N   1      38.764  12.141  10.369  0.00  0.00    -0.184 N 
ATOM      7  HN  UNK N   1      39.331  11.306  10.225  1.00  0.00     0.185 HD
HETATM    8  C   UNK N   1      38.730  13.284   9.630  0.00  0.00     0.215 A 
HETATM    9  N   UNK N   1      37.844  14.170  10.151  0.00  0.00    -0.273 N 
ATOM     10  HN  UNK N   1      37.626  15.100   9.794  1.00  0.00     0.189 HD
HETATM   11  C   UNK N   1      36.098  13.307  13.207  0.00  0.00     0.107 A 
HETATM   12  C   UNK N   1      36.680  12.037  13.329  0.00  0.00     0.161 A 
ENDROOT
BRANCH   1  13
HETATM   13  N   UNK N   1      36.069  15.458  12.091  0.00  0.00    -0.340 N 
HETATM   14  H   UNK N   1      36.492  16.121  12.684  0.00  0.00     0.167 HD
BRANCH  13  15
HETATM   15  C   UNK N   1      35.065  15.808  11.164  0.00  0.00     0.033 A 
HETATM   16  C   UNK N   1      34.010  14.937  10.903  0.00  0.00     0.031 A 
HETATM   17  C   UNK N   1      33.264  15.108   9.732  0.00  0.00     0.027 A 
HETATM   18  C   UNK N   1      33.578  16.153   8.849  0.00  0.00     0.079 A 
HETATM   19  C   UNK N   1      34.567  17.070   9.160  0.00  0.00     0.027 A 
HETATM   20  C   UNK N   1      35.297  16.907  10.314  0.00  0.00     0.031 A 
BRANCH  18  21
HETATM   21  S   UNK N   1      32.979  16.129   7.185  0.00  0.00     0.256 S 
HETATM   22  O   UNK N   1      31.453  16.042   7.052  0.00  0.00    -0.201 OA
HETATM   23  O   UNK N   1      33.490  14.945   6.356  0.00  0.00    -0.201 OA
BRANCH  21  24
HETATM   24  N   UNK N   1      33.440  17.562   6.262  0.00  0.00    -0.324 N 
HETATM   25  H   UNK N   1      32.974  18.470   6.258  0.00  0.00     0.169 HD
HETATM   26  H   UNK N   1      34.264  17.473   5.668  0.00  0.00     0.169 HD
ENDBRANCH  21  24
ENDBRANCH  18  21
ENDBRANCH  13  15
ENDBRANCH   1  13
BRANCH  12  27
HETATM   27  O   UNK N   1      36.380  11.314  14.418  0.00  0.00    -0.335 OA
BRANCH  27  28
HETATM   28  C   UNK N   1      35.237  11.503  15.150  0.00  0.00     0.182 C 
BRANCH  28  29
HETATM   29  C   UNK N   1      35.602  11.994  16.556  0.00  0.00     0.010 C 
HETATM   30  C   UNK N   1      35.242  10.931  17.584  0.00  0.00     0.007 C 
HETATM   31  C   UNK N   1      35.690  11.387  18.968  0.00  0.00     0.000 C 
HETATM   32  C   UNK N   1      34.986  12.688  19.342  0.00  0.00     0.000 C 
HETATM   33  C   UNK N   1      35.312  13.779  18.326  0.00  0.00     0.000 C 
HETATM   34  C   UNK N   1      34.927  13.332  16.921  0.00  0.00     0.007 C 
ENDBRANCH  28  29
ENDBRANCH  27  28
ENDBRANCH  12  27
TORSDOF 7
ENDMDL
MODEL 6
REMARK VINA RESULT:      -7.4     19.323     23.370
REMARK  7 active torsions:
REMARK  status: ('A' for Active; 'I' for Inactive)
REMARK    1  A    between atoms: S_2  and  N_4 
REMARK    2  A    between atoms: S_2  and  C_5 
REMARK    3  A    between atoms: C_10  and  N_11 
REMARK    4  A    between atoms: N_11  and  C_12 
REMARK    5  A    between atoms: C_23  and  O_25 
REMARK    6  A    between atoms: C_24  and  O_25 
REMARK    7  A    between atoms: C_24  and  C_26 
ROOT
HETATM    1  C   UNK N   1      27.835  23.165  -7.216  0.00  0.00     0.150 A 
HETATM    2  N   UNK N   1      26.859  22.263  -7.535  0.00  0.00    -0.069 N 
HETATM    3  C   UNK N   1      25.599  22.408  -7.144  0.00  0.00     0.708 A 
HETATM    4  N   UNK N   1      25.203  23.465  -6.396  0.00  0.00    -0.168 N 
ATOM      5  HN  UNK N   1      24.229  23.569  -6.111  1.00  0.00     0.186 HD
HETATM    6  N   UNK N   1      24.842  21.362  -7.521  0.00  0.00    -0.184 N 
ATOM      7  HN  UNK N   1      23.848  21.205  -7.354  1.00  0.00     0.185 HD
HETATM    8  C   UNK N   1      25.728  20.565  -8.180  0.00  0.00     0.215 A 
HETATM    9  N   UNK N   1      26.966  21.122  -8.185  0.00  0.00    -0.273 N 
ATOM     10  HN  UNK N   1      27.810  20.734  -8.607  1.00  0.00     0.189 HD
HETATM   11  C   UNK N   1      27.485  24.254  -6.437  0.00  0.00     0.107 A 
HETATM   12  C   UNK N   1      26.149  24.392  -6.031  0.00  0.00     0.161 A 
ENDROOT
BRANCH   1  13
HETATM   13  N   UNK N   1      29.200  22.854  -7.422  0.00  0.00    -0.340 N 
HETATM   14  H   UNK N   1      29.593  22.777  -8.322  0.00  0.00     0.167 HD
BRANCH  13  15
HETATM   15  C   UNK N   1      29.961  22.660  -6.249  0.00  0.00     0.033 A 
HETATM   16  C   UNK N   1      31.074  23.456  -5.990  0.00  0.00     0.031 A 
HETATM   17  C   UNK N   1      32.023  23.012  -5.063  0.00  0.00     0.027 A 
HETATM   18  C   UNK N   1      31.837  21.787  -4.403  0.00  0.00     0.079 A 
HETATM   19  C   UNK N   1      30.683  21.047  -4.596  0.00  0.00     0.027 A 
HETATM   20  C   UNK N   1      29.746  21.485  -5.503  0.00  0.00     0.031 A 
BRANCH  18  21
HETATM   21  S   UNK N   1      33.193  20.993  -3.592  0.00  0.00     0.256 S 
HETATM   22  O   UNK N   1      33.219  21.163  -2.067  0.00  0.00    -0.201 OA
HETATM   23  O   UNK N   1      34.569  21.494  -4.044  0.00  0.00    -0.201 OA
BRANCH  21  24
HETATM   24  N   UNK N   1      33.235  19.248  -3.862  0.00  0.00    -0.324 N 
HETATM   25  H   UNK N   1      33.352  18.517  -3.159  0.00  0.00     0.169 HD
HETATM   26  H   UNK N   1      33.129  18.936  -4.827  0.00  0.00     0.169 HD
ENDBRANCH  21  24
ENDBRANCH  18  21
ENDBRANCH  13  15
ENDBRANCH   1  13
BRANCH  12  27
HETATM   27  O   UNK N   1      25.841  25.433  -5.243  0.00  0.00    -0.335 OA
BRANCH  27  28
HETATM   28  C   UNK N   1      25.017  26.454  -5.640  0.00  0.00     0.182 C 
BRANCH  28  29
HETATM   29  C   UNK N   1      25.646  27.800  -5.261  0.00  0.00     0.010 C 
HETATM   30  C   UNK N   1      26.978  27.968  -5.977  0.00  0.00     0.007 C 
HETATM   31  C   UNK N   1      27.554  29.344  -5.667  0.00  0.00     0.000 C 
HETATM   32  C   UNK N   1      27.784  29.488  -4.165  0.00  0.00     0.000 C 
HETATM   33  C   UNK N   1      26.470  29.314  -3.409  0.00  0.00     0.000 C 
HETATM   34  C   UNK N   1      25.838  27.968  -3.739  0.00  0.00     0.007 C 
ENDBRANCH  28  29
ENDBRANCH  27  28
ENDBRANCH  12  27
TORSDOF 7
ENDMDL
MODEL 7
REMARK VINA RESULT:      -7.3      5.215     10.599
REMARK  7 active torsions:
REMARK  status: ('A' for Active; 'I' for Inactive)
REMARK    1  A    between atoms: S_2  and  N_4 
REMARK    2  A    between atoms: S_2  and  C_5 
REMARK    3  A    between atoms: C_10  and  N_11 
REMARK    4  A    between atoms: N_11  and  C_12 
REMARK    5  A    between atoms: C_23  and  O_25 
REMARK    6  A    between atoms: C_24  and  O_25 
REMARK    7  A    between atoms: C_24  and  C_26 
ROOT
HETATM    1  C   UNK N   1      33.330  17.029   7.124  0.00  0.00     0.150 A 
HETATM    2  N   UNK N   1      33.277  16.277   5.984  0.00  0.00    -0.069 N 
HETATM    3  C   UNK N   1      32.133  15.971   5.385  0.00  0.00     0.708 A 
HETATM    4  N   UNK N   1      30.939  16.385   5.873  0.00  0.00    -0.168 N 
ATOM      5  HN  UNK N   1      30.069  16.150   5.396  1.00  0.00     0.186 HD
HETATM    6  N   UNK N   1      32.332  15.169   4.323  0.00  0.00    -0.184 N 
ATOM      7  HN  UNK N   1      31.638  14.776   3.686  1.00  0.00     0.185 HD
HETATM    8  C   UNK N   1      33.684  15.009   4.309  0.00  0.00     0.215 A 
HETATM    9  N   UNK N   1      34.260  15.691   5.332  0.00  0.00    -0.273 N 
ATOM     10  HN  UNK N   1      35.255  15.739   5.551  1.00  0.00     0.189 HD
HETATM   11  C   UNK N   1      32.136  17.462   7.674  0.00  0.00     0.107 A 
HETATM   12  C   UNK N   1      30.935  17.129   7.028  0.00  0.00     0.161 A 
ENDROOT
BRANCH   1  13
HETATM   13  N   UNK N   1      34.525  17.118   7.875  0.00  0.00    -0.340 N 
HETATM   14  H   UNK N   1      35.333  17.563   7.528  0.00  0.00     0.167 HD
BRANCH  13  15
HETATM   15  C   UNK N   1      34.483  16.523   9.154  0.00  0.00     0.033 A 
HETATM   16  C   UNK N   1      35.184  17.085  10.218  0.00  0.00     0.031 A 
HETATM   17  C   UNK N   1      35.455  16.298  11.342  0.00  0.00     0.027 A 
HETATM   18  C   UNK N   1      35.010  14.968  11.389  0.00  0.00     0.079 A 
HETATM   19  C   UNK N   1      34.234  14.445  10.369  0.00  0.00     0.027 A 
HETATM   20  C   UNK N   1      33.962  15.219   9.265  0.00  0.00     0.031 A 
BRANCH  18  21
HETATM   21  S   UNK N   1      35.704  13.833  12.554  0.00  0.00     0.256 S 
HETATM   22  O   UNK N   1      36.588  12.740  11.940  0.00  0.00    -0.201 OA
HETATM   23  O   UNK N   1      34.660  13.053  13.361  0.00  0.00    -0.201 OA
BRANCH  21  24
HETATM   24  N   UNK N   1      36.719  14.619  13.767  0.00  0.00    -0.324 N 
HETATM   25  H   UNK N   1      37.394  15.370  13.614  0.00  0.00     0.169 HD
HETATM   26  H   UNK N   1      36.619  14.288  14.726  0.00  0.00     0.169 HD
ENDBRANCH  21  24
ENDBRANCH  18  21
ENDBRANCH  13  15
ENDBRANCH   1  13
BRANCH  12  27
HETATM   27  O   UNK N   1      29.788  17.523   7.601  0.00  0.00    -0.335 OA
BRANCH  27  28
HETATM   28  C   UNK N   1      28.576  17.474   6.962  0.00  0.00     0.182 C 
BRANCH  28  29
HETATM   29  C   UNK N   1      28.384  18.745   6.126  0.00  0.00     0.010 C 
HETATM   30  C   UNK N   1      27.652  19.798   6.947  0.00  0.00     0.007 C 
HETATM   31  C   UNK N   1      27.545  21.088   6.142  0.00  0.00     0.000 C 
HETATM   32  C   UNK N   1      26.761  20.837   4.857  0.00  0.00     0.000 C 
HETATM   33  C   UNK N   1      27.458  19.776   4.009  0.00  0.00     0.000 C 
HETATM   34  C   UNK N   1      27.631  18.488   4.804  0.00  0.00     0.007 C 
ENDBRANCH  28  29
ENDBRANCH  27  28
ENDBRANCH  12  27
TORSDOF 7
ENDMDL
MODEL 8
REMARK VINA RESULT:      -7.3     11.041     14.279
REMARK  7 active torsions:
REMARK  status: ('A' for Active; 'I' for Inactive)
REMARK    1  A    between atoms: S_2  and  N_4 
REMARK    2  A    between atoms: S_2  and  C_5 
REMARK    3  A    between atoms: C_10  and  N_11 
REMARK    4  A    between atoms: N_11  and  C_12 
REMARK    5  A    between atoms: C_23  and  O_25 
REMARK    6  A    between atoms: C_24  and  O_25 
REMARK    7  A    between atoms: C_24  and  C_26 
ROOT
HETATM    1  C   UNK N   1      27.685  19.713   4.740  0.00  0.00     0.150 A 
HETATM    2  N   UNK N   1      27.193  20.270   5.886  0.00  0.00    -0.069 N 
HETATM    3  C   UNK N   1      27.499  19.808   7.092  0.00  0.00     0.708 A 
HETATM    4  N   UNK N   1      28.320  18.745   7.261  0.00  0.00    -0.168 N 
ATOM      5  HN  UNK N   1      28.555  18.407   8.193  1.00  0.00     0.186 HD
HETATM    6  N   UNK N   1      26.841  20.475   8.057  0.00  0.00    -0.184 N 
ATOM      7  HN  UNK N   1      26.879  20.332   9.066  1.00  0.00     0.185 HD
HETATM    8  C   UNK N   1      26.112  21.387   7.357  0.00  0.00     0.215 A 
HETATM    9  N   UNK N   1      26.330  21.257   6.023  0.00  0.00    -0.273 N 
ATOM     10  HN  UNK N   1      25.911  21.812   5.277  1.00  0.00     0.189 HD
HETATM   11  C   UNK N   1      28.516  18.612   4.857  0.00  0.00     0.107 A 
HETATM   12  C   UNK N   1      28.829  18.135   6.139  0.00  0.00     0.161 A 
ENDROOT
BRANCH   1  13
HETATM   13  N   UNK N   1      27.143  20.056   3.479  0.00  0.00    -0.340 N 
HETATM   14  H   UNK N   1      27.669  20.523   2.790  0.00  0.00     0.167 HD
BRANCH  13  15
HETATM   15  C   UNK N   1      25.796  19.687   3.278  0.00  0.00     0.033 A 
HETATM   16  C   UNK N   1      24.872  20.615   2.803  0.00  0.00     0.031 A 
HETATM   17  C   UNK N   1      23.507  20.364   2.981  0.00  0.00     0.027 A 
HETATM   18  C   UNK N   1      23.090  19.185   3.619  0.00  0.00     0.079 A 
HETATM   19  C   UNK N   1      24.010  18.225   4.004  0.00  0.00     0.027 A 
HETATM   20  C   UNK N   1      25.352  18.467   3.824  0.00  0.00     0.031 A 
BRANCH  18  21
HETATM   21  S   UNK N   1      21.446  19.047   4.256  0.00  0.00     0.256 S 
HETATM   22  O   UNK N   1      20.565  20.283   4.037  0.00  0.00    -0.201 OA
HETATM   23  O   UNK N   1      21.383  18.811   5.770  0.00  0.00    -0.201 OA
BRANCH  21  24
HETATM   24  N   UNK N   1      20.541  17.705   3.550  0.00  0.00    -0.324 N 
HETATM   25  H   UNK N   1      19.931  17.047   4.037  0.00  0.00     0.169 HD
HETATM   26  H   UNK N   1      20.637  17.573   2.544  0.00  0.00     0.169 HD
ENDBRANCH  21  24
ENDBRANCH  18  21
ENDBRANCH  13  15
ENDBRANCH   1  13
BRANCH  12  27
HETATM   27  O   UNK N   1      29.603  17.043   6.227  0.00  0.00    -0.335 OA
BRANCH  27  28
HETATM   28  C   UNK N   1      29.731  16.132   5.211  0.00  0.00     0.182 C 
BRANCH  28  29
HETATM   29  C   UNK N   1      31.207  16.003   4.818  0.00  0.00     0.010 C 
HETATM   30  C   UNK N   1      31.503  16.895   3.621  0.00  0.00     0.007 C 
HETATM   31  C   UNK N   1      32.990  16.831   3.293  0.00  0.00     0.000 C 
HETATM   32  C   UNK N   1      33.387  15.399   2.947  0.00  0.00     0.000 C 
HETATM   33  C   UNK N   1      33.094  14.469   4.121  0.00  0.00     0.000 C 
HETATM   34  C   UNK N   1      31.624  14.550   4.511  0.00  0.00     0.007 C 
ENDBRANCH  28  29
ENDBRANCH  27  28
ENDBRANCH  12  27
TORSDOF 7
ENDMDL
MODEL 9
REMARK VINA RESULT:      -7.3     11.328     15.002
REMARK  7 active torsions:
REMARK  status: ('A' for Active; 'I' for Inactive)
REMARK    1  A    between atoms: S_2  and  N_4 
REMARK    2  A    between atoms: S_2  and  C_5 
REMARK    3  A    between atoms: C_10  and  N_11 
REMARK    4  A    between atoms: N_11  and  C_12 
REMARK    5  A    between atoms: C_23  and  O_25 
REMARK    6  A    between atoms: C_24  and  O_25 
REMARK    7  A    between atoms: C_24  and  C_26 
ROOT
HETATM    1  C   UNK N   1      27.360  19.105   5.241  0.00  0.00     0.150 A 
HETATM    2  N   UNK N   1      27.851  18.747   6.465  0.00  0.00    -0.069 N 
HETATM    3  C   UNK N   1      28.596  17.664   6.645  0.00  0.00     0.708 A 
HETATM    4  N   UNK N   1      28.914  16.838   5.619  0.00  0.00    -0.168 N 
ATOM      5  HN  UNK N   1      29.495  16.015   5.771  1.00  0.00     0.186 HD
HETATM    6  N   UNK N   1      28.901  17.486   7.943  0.00  0.00    -0.184 N 
ATOM      7  HN  UNK N   1      29.452  16.740   8.368  1.00  0.00     0.185 HD
HETATM    8  C   UNK N   1      28.295  18.544   8.548  0.00  0.00     0.215 A 
HETATM    9  N   UNK N   1      27.649  19.315   7.636  0.00  0.00    -0.273 N 
ATOM     10  HN  UNK N   1      27.116  20.165   7.821  1.00  0.00     0.189 HD
HETATM   11  C   UNK N   1      27.641  18.284   4.162  0.00  0.00     0.107 A 
HETATM   12  C   UNK N   1      28.430  17.142   4.369  0.00  0.00     0.161 A 
ENDROOT
BRANCH   1  13
HETATM   13  N   UNK N   1      26.366  20.105   5.126  0.00  0.00    -0.340 N 
HETATM   14  H   UNK N   1      26.452  20.985   5.560  0.00  0.00     0.167 HD
BRANCH  13  15
HETATM   15  C   UNK N   1      25.242  19.756   4.347  0.00  0.00     0.033 A 
HETATM   16  C   UNK N   1      24.844  20.559   3.281  0.00  0.00     0.031 A 
HETATM   17  C   UNK N   1      23.543  20.430   2.784  0.00  0.00     0.027 A 
HETATM   18  C   UNK N   1      22.667  19.492   3.353  0.00  0.00     0.079 A 
HETATM   19  C   UNK N   1      23.098  18.634   4.349  0.00  0.00     0.027 A 
HETATM   20  C   UNK N   1      24.379  18.756   4.836  0.00  0.00     0.031 A 
BRANCH  18  21
HETATM   21  S   UNK N   1      20.925  19.610   3.071  0.00  0.00     0.256 S 
HETATM   22  O   UNK N   1      20.218  20.717   3.865  0.00  0.00    -0.201 OA
HETATM   23  O   UNK N   1      20.148  18.340   3.434  0.00  0.00    -0.201 OA
BRANCH  21  24
HETATM   24  N   UNK N   1      20.517  19.924   1.381  0.00  0.00    -0.324 N 
HETATM   25  H   UNK N   1      20.123  19.265   0.709  0.00  0.00     0.169 HD
HETATM   26  H   UNK N   1      20.694  20.868   1.040  0.00  0.00     0.169 HD
ENDBRANCH  21  24
ENDBRANCH  18  21
ENDBRANCH  13  15
ENDBRANCH   1  13
BRANCH  12  27
HETATM   27  O   UNK N   1      28.655  16.340   3.319  0.00  0.00    -0.335 OA
BRANCH  27  28
HETATM   28  C   UNK N   1      28.533  14.976   3.378  0.00  0.00     0.182 C 
BRANCH  28  29
HETATM   29  C   UNK N   1      27.088  14.574   3.063  0.00  0.00     0.010 C 
HETATM   30  C   UNK N   1      26.575  15.378   1.877  0.00  0.00     0.007 C 
HETATM   31  C   UNK N   1      25.171  14.910   1.512  0.00  0.00     0.000 C 
HETATM   32  C   UNK N   1      24.227  15.122   2.693  0.00  0.00     0.000 C 
HETATM   33  C   UNK N   1      24.715  14.339   3.909  0.00  0.00     0.000 C 
HETATM   34  C   UNK N   1      26.139  14.744   4.267  0.00  0.00     0.007 C 
ENDBRANCH  28  29
ENDBRANCH  27  28
ENDBRANCH  12  27
TORSDOF 7
ENDMDL
