MODEL 1
REMARK VINA RESULT:      -7.7      0.000      0.000
REMARK  6 active torsions:
REMARK  status: ('A' for Active; 'I' for Inactive)
REMARK    1  A    between atoms: S_2  and  N_4 
REMARK    2  A    between atoms: S_2  and  C_5 
REMARK    3  A    between atoms: C_8  and  N_11 
REMARK    4  A    between atoms: N_11  and  C_12 
REMARK    5  A    between atoms: C_22  and  N_24 
REMARK    6  A    between atoms: N_24  and  C_25 
ROOT
HETATM    1  C   UNK N   1      35.267  13.500  11.653  0.00  0.00     0.149 A 
HETATM    2  N   UNK N   1      36.556  13.386  11.210  0.00  0.00    -0.069 N 
HETATM    3  N   UNK N   1      37.364  12.349  11.202  0.00  0.00    -0.273 N 
ATOM      4  HN  UNK N   1      37.162  11.414  11.557  1.00  0.00     0.189 HD
HETATM    5  C   UNK N   1      38.522  12.768  10.628  0.00  0.00     0.215 A 
HETATM    6  C   UNK N   1      37.193  14.416  10.643  0.00  0.00     0.707 A 
HETATM    7  N   UNK N   1      38.437  14.076  10.265  0.00  0.00    -0.184 N 
ATOM      8  HN  UNK N   1      39.145  14.658   9.817  1.00  0.00     0.185 HD
HETATM    9  N   UNK N   1      36.589  15.618  10.435  0.00  0.00    -0.175 N 
ATOM     10  HN  UNK N   1      37.094  16.396  10.008  1.00  0.00     0.186 HD
HETATM   11  C   UNK N   1      35.280  15.749  10.819  0.00  0.00     0.120 A 
HETATM   12  C   UNK N   1      34.627  14.681  11.434  0.00  0.00     0.099 A 
ENDROOT
BRANCH   1  13
HETATM   13  N   UNK N   1      34.518  12.489  12.300  0.00  0.00    -0.340 N 
HETATM   14  H   UNK N   1      33.835  12.029  11.763  0.00  0.00     0.167 HD
BRANCH  13  15
HETATM   15  C   UNK N   1      34.655  12.081  13.635  0.00  0.00     0.033 A 
HETATM   16  C   UNK N   1      35.313  12.877  14.567  0.00  0.00     0.031 A 
HETATM   17  C   UNK N   1      35.462  12.450  15.870  0.00  0.00     0.027 A 
HETATM   18  C   UNK N   1      34.910  11.238  16.265  0.00  0.00     0.079 A 
HETATM   19  C   UNK N   1      34.193  10.451  15.358  0.00  0.00     0.027 A 
HETATM   20  C   UNK N   1      34.063  10.879  14.037  0.00  0.00     0.031 A 
BRANCH  18  21
HETATM   21  S   UNK N   1      35.307  10.643  17.877  0.00  0.00     0.256 S 
HETATM   22  O   UNK N   1      34.321   9.605  18.429  0.00  0.00    -0.201 OA
HETATM   23  O   UNK N   1      36.672   9.949  17.973  0.00  0.00    -0.201 OA
BRANCH  21  24
HETATM   24  N   UNK N   1      35.361  11.928  19.083  0.00  0.00    -0.324 N 
HETATM   25  H   UNK N   1      35.953  12.035  19.907  0.00  0.00     0.169 HD
HETATM   26  H   UNK N   1      34.693  12.685  18.933  0.00  0.00     0.169 HD
ENDBRANCH  21  24
ENDBRANCH  18  21
ENDBRANCH  13  15
ENDBRANCH   1  13
BRANCH  11  27
HETATM   27  N   UNK N   1      34.500  16.863  10.431  0.00  0.00    -0.371 N 
HETATM   28  H   UNK N   1      34.342  17.623  11.038  0.00  0.00     0.161 HD
BRANCH  27  29
HETATM   29  C   UNK N   1      33.945  16.829   9.090  0.00  0.00     0.083 C 
HETATM   30  C   UNK N   1      34.165  18.022   8.194  0.00  0.00     0.025 C 
HETATM   31  C   UNK N   1      34.075  17.516   6.748  0.00  0.00     0.002 C 
HETATM   32  C   UNK N   1      32.773  16.741   6.483  0.00  0.00     0.000 C 
HETATM   33  C   UNK N   1      32.589  15.587   7.472  0.00  0.00     0.002 C 
HETATM   34  C   UNK N   1      32.611  16.119   8.902  0.00  0.00     0.025 C 
ENDBRANCH  27  29
ENDBRANCH  11  27
TORSDOF 6
ENDMDL
MODEL 2
REMARK VINA RESULT:      -7.7     10.758     14.564
REMARK  6 active torsions:
REMARK  status: ('A' for Active; 'I' for Inactive)
REMARK    1  A    between atoms: S_2  and  N_4 
REMARK    2  A    between atoms: S_2  and  C_5 
REMARK    3  A    between atoms: C_8  and  N_11 
REMARK    4  A    between atoms: N_11  and  C_12 
REMARK    5  A    between atoms: C_22  and  N_24 
REMARK    6  A    between atoms: N_24  and  C_25 
ROOT
HETATM    1  C   UNK N   1      27.255  18.852   4.908  0.00  0.00     0.149 A 
HETATM    2  N   UNK N   1      27.007  19.596   6.028  0.00  0.00    -0.069 N 
HETATM    3  N   UNK N   1      26.064  20.481   6.270  0.00  0.00    -0.273 N 
ATOM      4  HN  UNK N   1      25.335  20.788   5.627  1.00  0.00     0.189 HD
HETATM    5  C   UNK N   1      26.255  20.905   7.547  0.00  0.00     0.215 A 
HETATM    6  C   UNK N   1      27.752  19.467   7.131  0.00  0.00     0.707 A 
HETATM    7  N   UNK N   1      27.320  20.276   8.113  0.00  0.00    -0.184 N 
ATOM      8  HN  UNK N   1      27.698  20.391   9.054  1.00  0.00     0.185 HD
HETATM    9  N   UNK N   1      28.768  18.566   7.220  0.00  0.00    -0.175 N 
ATOM     10  HN  UNK N   1      29.331  18.487   8.067  1.00  0.00     0.186 HD
HETATM   11  C   UNK N   1      29.008  17.766   6.133  0.00  0.00     0.120 A 
HETATM   12  C   UNK N   1      28.246  17.922   4.974  0.00  0.00     0.099 A 
ENDROOT
BRANCH   1  13
HETATM   13  N   UNK N   1      26.557  18.939   3.681  0.00  0.00    -0.340 N 
HETATM   14  H   UNK N   1      27.080  18.800   2.860  0.00  0.00     0.167 HD
BRANCH  13  15
HETATM   15  C   UNK N   1      25.188  19.206   3.521  0.00  0.00     0.033 A 
HETATM   16  C   UNK N   1      24.223  18.343   4.030  0.00  0.00     0.031 A 
HETATM   17  C   UNK N   1      22.882  18.607   3.843  0.00  0.00     0.027 A 
HETATM   18  C   UNK N   1      22.493  19.766   3.185  0.00  0.00     0.079 A 
HETATM   19  C   UNK N   1      23.446  20.676   2.718  0.00  0.00     0.027 A 
HETATM   20  C   UNK N   1      24.801  20.394   2.893  0.00  0.00     0.031 A 
BRANCH  18  21
HETATM   21  S   UNK N   1      20.784  19.949   2.789  0.00  0.00     0.256 S 
HETATM   22  O   UNK N   1      19.987  18.637   2.805  0.00  0.00    -0.201 OA
HETATM   23  O   UNK N   1      20.011  20.866   3.746  0.00  0.00    -0.201 OA
BRANCH  21  24
HETATM   24  N   UNK N   1      20.526  20.636   1.187  0.00  0.00    -0.324 N 
HETATM   25  H   UNK N   1      19.664  20.925   0.724  0.00  0.00     0.169 HD
HETATM   26  H   UNK N   1      21.374  20.765   0.634  0.00  0.00     0.169 HD
ENDBRANCH  21  24
ENDBRANCH  18  21
ENDBRANCH  13  15
ENDBRANCH   1  13
BRANCH  11  27
HETATM   27  N   UNK N   1      29.870  16.647   6.209  0.00  0.00    -0.371 N 
HETATM   28  H   UNK N   1      29.534  15.726   6.115  0.00  0.00     0.161 HD
BRANCH  27  29
HETATM   29  C   UNK N   1      31.276  16.929   6.434  0.00  0.00     0.083 C 
HETATM   30  C   UNK N   1      32.262  16.556   5.355  0.00  0.00     0.025 C 
HETATM   31  C   UNK N   1      33.477  17.478   5.523  0.00  0.00     0.002 C 
HETATM   32  C   UNK N   1      34.041  17.442   6.953  0.00  0.00     0.000 C 
HETATM   33  C   UNK N   1      32.967  17.767   7.996  0.00  0.00     0.002 C 
HETATM   34  C   UNK N   1      31.798  16.795   7.858  0.00  0.00     0.025 C 
ENDBRANCH  27  29
ENDBRANCH  11  27
TORSDOF 6
ENDMDL
MODEL 3
REMARK VINA RESULT:      -7.6      4.834      8.628
REMARK  6 active torsions:
REMARK  status: ('A' for Active; 'I' for Inactive)
REMARK    1  A    between atoms: S_2  and  N_4 
REMARK    2  A    between atoms: S_2  and  C_5 
REMARK    3  A    between atoms: C_8  and  N_11 
REMARK    4  A    between atoms: N_11  and  C_12 
REMARK    5  A    between atoms: C_22  and  N_24 
REMARK    6  A    between atoms: N_24  and  C_25 
ROOT
HETATM    1  C   UNK N   1      36.041  12.391  11.810  0.00  0.00     0.149 A 
HETATM    2  N   UNK N   1      34.998  11.567  11.489  0.00  0.00    -0.069 N 
HETATM    3  N   UNK N   1      34.396  11.367  10.337  0.00  0.00    -0.273 N 
ATOM      4  HN  UNK N   1      34.603  11.827   9.450  1.00  0.00     0.189 HD
HETATM    5  C   UNK N   1      33.441  10.427  10.561  0.00  0.00     0.215 A 
HETATM    6  C   UNK N   1      34.439  10.761  12.398  0.00  0.00     0.707 A 
HETATM    7  N   UNK N   1      33.449  10.027  11.861  0.00  0.00    -0.184 N 
ATOM      8  HN  UNK N   1      32.851   9.339  12.318  1.00  0.00     0.185 HD
HETATM    9  N   UNK N   1      34.897  10.681  13.677  0.00  0.00    -0.175 N 
ATOM     10  HN  UNK N   1      34.453  10.066  14.359  1.00  0.00     0.186 HD
HETATM   11  C   UNK N   1      35.976  11.454  14.017  0.00  0.00     0.120 A 
HETATM   12  C   UNK N   1      36.540  12.314  13.074  0.00  0.00     0.099 A 
ENDROOT
BRANCH   1  13
HETATM   13  N   UNK N   1      36.675  13.307  10.939  0.00  0.00    -0.340 N 
HETATM   14  H   UNK N   1      37.636  13.172  10.773  0.00  0.00     0.167 HD
BRANCH  13  15
HETATM   15  C   UNK N   1      36.067  14.392  10.289  0.00  0.00     0.033 A 
HETATM   16  C   UNK N   1      35.601  14.278   8.982  0.00  0.00     0.031 A 
HETATM   17  C   UNK N   1      35.029  15.361   8.349  0.00  0.00     0.027 A 
HETATM   18  C   UNK N   1      34.872  16.558   9.035  0.00  0.00     0.079 A 
HETATM   19  C   UNK N   1      35.279  16.674  10.368  0.00  0.00     0.027 A 
HETATM   20  C   UNK N   1      35.875  15.582  10.997  0.00  0.00     0.031 A 
BRANCH  18  21
HETATM   21  S   UNK N   1      34.330  17.963   8.118  0.00  0.00     0.256 S 
HETATM   22  O   UNK N   1      35.056  19.268   8.473  0.00  0.00    -0.201 OA
HETATM   23  O   UNK N   1      34.517  17.835   6.601  0.00  0.00    -0.201 OA
BRANCH  21  24
HETATM   24  N   UNK N   1      32.615  18.303   8.343  0.00  0.00    -0.324 N 
HETATM   25  H   UNK N   1      32.050  19.088   8.018  0.00  0.00     0.169 HD
HETATM   26  H   UNK N   1      32.107  17.604   8.885  0.00  0.00     0.169 HD
ENDBRANCH  21  24
ENDBRANCH  18  21
ENDBRANCH  13  15
ENDBRANCH   1  13
BRANCH  11  27
HETATM   27  N   UNK N   1      36.671  11.266  15.235  0.00  0.00    -0.371 N 
HETATM   28  H   UNK N   1      37.500  10.738  15.284  0.00  0.00     0.161 HD
BRANCH  27  29
HETATM   29  C   UNK N   1      36.096  11.896  16.410  0.00  0.00     0.083 C 
HETATM   30  C   UNK N   1      35.371  11.025  17.407  0.00  0.00     0.025 C 
HETATM   31  C   UNK N   1      35.436  11.747  18.759  0.00  0.00     0.002 C 
HETATM   32  C   UNK N   1      34.922  13.194  18.672  0.00  0.00     0.000 C 
HETATM   33  C   UNK N   1      35.660  13.995  17.596  0.00  0.00     0.002 C 
HETATM   34  C   UNK N   1      35.525  13.298  16.245  0.00  0.00     0.025 C 
ENDBRANCH  27  29
ENDBRANCH  11  27
TORSDOF 6
ENDMDL
MODEL 4
REMARK VINA RESULT:      -7.6     18.143     21.926
REMARK  6 active torsions:
REMARK  status: ('A' for Active; 'I' for Inactive)
REMARK    1  A    between atoms: S_2  and  N_4 
REMARK    2  A    between atoms: S_2  and  C_5 
REMARK    3  A    between atoms: C_8  and  N_11 
REMARK    4  A    between atoms: N_11  and  C_12 
REMARK    5  A    between atoms: C_22  and  N_24 
REMARK    6  A    between atoms: N_24  and  C_25 
ROOT
HETATM    1  C   UNK N   1      26.370  25.165  -4.120  0.00  0.00     0.149 A 
HETATM    2  N   UNK N   1      26.139  26.499  -3.930  0.00  0.00    -0.069 N 
HETATM    3  N   UNK N   1      26.412  27.272  -2.902  0.00  0.00    -0.273 N 
ATOM      4  HN  UNK N   1      26.848  26.990  -2.024  1.00  0.00     0.189 HD
HETATM    5  C   UNK N   1      25.998  28.521  -3.239  0.00  0.00     0.215 A 
HETATM    6  C   UNK N   1      25.582  27.254  -4.884  0.00  0.00     0.707 A 
HETATM    7  N   UNK N   1      25.468  28.535  -4.493  0.00  0.00    -0.184 N 
ATOM      8  HN  UNK N   1      25.078  29.323  -5.009  1.00  0.00     0.185 HD
HETATM    9  N   UNK N   1      25.254  26.755  -6.107  0.00  0.00    -0.175 N 
ATOM     10  HN  UNK N   1      24.823  27.344  -6.819  1.00  0.00     0.186 HD
HETATM   11  C   UNK N   1      25.523  25.433  -6.348  0.00  0.00     0.120 A 
HETATM   12  C   UNK N   1      26.078  24.641  -5.342  0.00  0.00     0.099 A 
ENDROOT
BRANCH   1  13
HETATM   13  N   UNK N   1      26.914  24.272  -3.167  0.00  0.00    -0.340 N 
HETATM   14  H   UNK N   1      26.345  24.042  -2.398  0.00  0.00     0.167 HD
BRANCH  13  15
HETATM   15  C   UNK N   1      28.186  23.682  -3.214  0.00  0.00     0.033 A 
HETATM   16  C   UNK N   1      28.880  23.560  -4.413  0.00  0.00     0.031 A 
HETATM   17  C   UNK N   1      30.118  22.955  -4.446  0.00  0.00     0.027 A 
HETATM   18  C   UNK N   1      30.698  22.507  -3.266  0.00  0.00     0.079 A 
HETATM   19  C   UNK N   1      30.043  22.674  -2.042  0.00  0.00     0.027 A 
HETATM   20  C   UNK N   1      28.782  23.269  -2.018  0.00  0.00     0.031 A 
BRANCH  18  21
HETATM   21  S   UNK N   1      32.178  21.557  -3.389  0.00  0.00     0.256 S 
HETATM   22  O   UNK N   1      33.249  22.169  -4.304  0.00  0.00    -0.201 OA
HETATM   23  O   UNK N   1      32.905  21.348  -2.054  0.00  0.00    -0.201 OA
BRANCH  21  24
HETATM   24  N   UNK N   1      31.896  19.934  -4.017  0.00  0.00    -0.324 N 
HETATM   25  H   UNK N   1      31.938  19.029  -3.548  0.00  0.00     0.169 HD
HETATM   26  H   UNK N   1      31.652  19.894  -5.007  0.00  0.00     0.169 HD
ENDBRANCH  21  24
ENDBRANCH  18  21
ENDBRANCH  13  15
ENDBRANCH   1  13
BRANCH  11  27
HETATM   27  N   UNK N   1      25.445  24.884  -7.650  0.00  0.00    -0.371 N 
HETATM   28  H   UNK N   1      25.064  25.390  -8.404  0.00  0.00     0.161 HD
BRANCH  27  29
HETATM   29  C   UNK N   1      25.956  23.536  -7.815  0.00  0.00     0.083 C 
HETATM   30  C   UNK N   1      27.390  23.361  -8.251  0.00  0.00     0.025 C 
HETATM   31  C   UNK N   1      27.845  21.985  -7.748  0.00  0.00     0.002 C 
HETATM   32  C   UNK N   1      26.895  20.861  -8.191  0.00  0.00     0.000 C 
HETATM   33  C   UNK N   1      25.449  21.139  -7.769  0.00  0.00     0.002 C 
HETATM   34  C   UNK N   1      24.991  22.479  -8.337  0.00  0.00     0.025 C 
ENDBRANCH  27  29
ENDBRANCH  11  27
TORSDOF 6
ENDMDL
MODEL 5
REMARK VINA RESULT:      -7.5      6.016      9.464
REMARK  6 active torsions:
REMARK  status: ('A' for Active; 'I' for Inactive)
REMARK    1  A    between atoms: S_2  and  N_4 
REMARK    2  A    between atoms: S_2  and  C_5 
REMARK    3  A    between atoms: C_8  and  N_11 
REMARK    4  A    between atoms: N_11  and  C_12 
REMARK    5  A    between atoms: C_22  and  N_24 
REMARK    6  A    between atoms: N_24  and  C_25 
ROOT
HETATM    1  C   UNK N   1      28.854  18.069   6.601  0.00  0.00     0.149 A 
HETATM    2  N   UNK N   1      27.923  19.013   6.269  0.00  0.00    -0.069 N 
HETATM    3  N   UNK N   1      27.272  19.869   7.027  0.00  0.00    -0.273 N 
ATOM      4  HN  UNK N   1      27.343  19.966   8.040  1.00  0.00     0.189 HD
HETATM    5  C   UNK N   1      26.485  20.599   6.193  0.00  0.00     0.215 A 
HETATM    6  C   UNK N   1      27.558  19.218   4.999  0.00  0.00     0.707 A 
HETATM    7  N   UNK N   1      26.650  20.204   4.902  0.00  0.00    -0.184 N 
ATOM      8  HN  UNK N   1      26.194  20.567   4.065  1.00  0.00     0.185 HD
HETATM    9  N   UNK N   1      28.117  18.535   3.963  0.00  0.00    -0.175 N 
ATOM     10  HN  UNK N   1      27.820  18.699   3.001  1.00  0.00     0.186 HD
HETATM   11  C   UNK N   1      29.093  17.619   4.257  0.00  0.00     0.120 A 
HETATM   12  C   UNK N   1      29.451  17.388   5.585  0.00  0.00     0.099 A 
ENDROOT
BRANCH   1  13
HETATM   13  N   UNK N   1      29.280  17.745   7.911  0.00  0.00    -0.340 N 
HETATM   14  H   UNK N   1      28.602  17.789   8.623  0.00  0.00     0.167 HD
BRANCH  13  15
HETATM   15  C   UNK N   1      30.576  17.368   8.293  0.00  0.00     0.033 A 
HETATM   16  C   UNK N   1      30.856  16.069   8.705  0.00  0.00     0.031 A 
HETATM   17  C   UNK N   1      32.129  15.721   9.101  0.00  0.00     0.027 A 
HETATM   18  C   UNK N   1      33.150  16.660   9.044  0.00  0.00     0.079 A 
HETATM   19  C   UNK N   1      32.903  17.955   8.576  0.00  0.00     0.027 A 
HETATM   20  C   UNK N   1      31.608  18.307   8.195  0.00  0.00     0.031 A 
BRANCH  18  21
HETATM   21  S   UNK N   1      34.704  16.227   9.757  0.00  0.00     0.256 S 
HETATM   22  O   UNK N   1      35.591  15.354   8.858  0.00  0.00    -0.201 OA
HETATM   23  O   UNK N   1      35.594  17.428  10.103  0.00  0.00    -0.201 OA
BRANCH  21  24
HETATM   24  N   UNK N   1      34.535  15.331  11.265  0.00  0.00    -0.324 N 
HETATM   25  H   UNK N   1      35.020  15.441  12.155  0.00  0.00     0.169 HD
HETATM   26  H   UNK N   1      33.841  14.583  11.244  0.00  0.00     0.169 HD
ENDBRANCH  21  24
ENDBRANCH  18  21
ENDBRANCH  13  15
ENDBRANCH   1  13
BRANCH  11  27
HETATM   27  N   UNK N   1      29.896  17.039   3.248  0.00  0.00    -0.371 N 
HETATM   28  H   UNK N   1      29.588  16.970   2.315  0.00  0.00     0.161 HD
BRANCH  27  29
HETATM   29  C   UNK N   1      31.199  16.551   3.659  0.00  0.00     0.083 C 
HETATM   30  C   UNK N   1      32.332  17.541   3.771  0.00  0.00     0.025 C 
HETATM   31  C   UNK N   1      33.336  16.958   4.775  0.00  0.00     0.002 C 
HETATM   32  C   UNK N   1      33.763  15.528   4.407  0.00  0.00     0.000 C 
HETATM   33  C   UNK N   1      32.557  14.598   4.247  0.00  0.00     0.002 C 
HETATM   34  C   UNK N   1      31.605  15.158   3.194  0.00  0.00     0.025 C 
ENDBRANCH  27  29
ENDBRANCH  11  27
TORSDOF 6
ENDMDL
MODEL 6
REMARK VINA RESULT:      -7.4     11.649     14.835
REMARK  6 active torsions:
REMARK  status: ('A' for Active; 'I' for Inactive)
REMARK    1  A    between atoms: S_2  and  N_4 
REMARK    2  A    between atoms: S_2  and  C_5 
REMARK    3  A    between atoms: C_8  and  N_11 
REMARK    4  A    between atoms: N_11  and  C_12 
REMARK    5  A    between atoms: C_22  and  N_24 
REMARK    6  A    between atoms: N_24  and  C_25 
ROOT
HETATM    1  C   UNK N   1      26.240  18.124   5.154  0.00  0.00     0.149 A 
HETATM    2  N   UNK N   1      26.572  19.360   5.635  0.00  0.00    -0.069 N 
HETATM    3  N   UNK N   1      25.908  20.169   6.431  0.00  0.00    -0.273 N 
ATOM      4  HN  UNK N   1      24.982  20.012   6.828  1.00  0.00     0.189 HD
HETATM    5  C   UNK N   1      26.699  21.258   6.618  0.00  0.00     0.215 A 
HETATM    6  C   UNK N   1      27.749  19.927   5.349  0.00  0.00     0.707 A 
HETATM    7  N   UNK N   1      27.873  21.127   5.942  0.00  0.00    -0.184 N 
ATOM      8  HN  UNK N   1      28.655  21.780   5.895  1.00  0.00     0.185 HD
HETATM    9  N   UNK N   1      28.697  19.297   4.603  0.00  0.00    -0.175 N 
ATOM     10  HN  UNK N   1      29.586  19.749   4.389  1.00  0.00     0.186 HD
HETATM   11  C   UNK N   1      28.417  18.034   4.151  0.00  0.00     0.120 A 
HETATM   12  C   UNK N   1      27.177  17.456   4.427  0.00  0.00     0.099 A 
ENDROOT
BRANCH   1  13
HETATM   13  N   UNK N   1      25.011  17.454   5.361  0.00  0.00    -0.340 N 
HETATM   14  H   UNK N   1      24.984  16.789   6.086  0.00  0.00     0.167 HD
BRANCH  13  15
HETATM   15  C   UNK N   1      23.828  17.645   4.632  0.00  0.00     0.033 A 
HETATM   16  C   UNK N   1      23.006  16.572   4.300  0.00  0.00     0.031 A 
HETATM   17  C   UNK N   1      21.859  16.773   3.561  0.00  0.00     0.027 A 
HETATM   18  C   UNK N   1      21.497  18.061   3.187  0.00  0.00     0.079 A 
HETATM   19  C   UNK N   1      22.278  19.159   3.562  0.00  0.00     0.027 A 
HETATM   20  C   UNK N   1      23.447  18.947   4.293  0.00  0.00     0.031 A 
BRANCH  18  21
HETATM   21  S   UNK N   1      20.144  18.240   2.072  0.00  0.00     0.256 S 
HETATM   22  O   UNK N   1      19.830  16.982   1.250  0.00  0.00    -0.201 OA
HETATM   23  O   UNK N   1      18.811  18.584   2.749  0.00  0.00    -0.201 OA
BRANCH  21  24
HETATM   24  N   UNK N   1      20.401  19.522   0.889  0.00  0.00    -0.324 N 
HETATM   25  H   UNK N   1      19.864  20.370   0.707  0.00  0.00     0.169 HD
HETATM   26  H   UNK N   1      21.218  19.395   0.290  0.00  0.00     0.169 HD
ENDBRANCH  21  24
ENDBRANCH  18  21
ENDBRANCH  13  15
ENDBRANCH   1  13
BRANCH  11  27
HETATM   27  N   UNK N   1      29.415  17.211   3.580  0.00  0.00    -0.371 N 
HETATM   28  H   UNK N   1      29.258  16.703   2.751  0.00  0.00     0.161 HD
BRANCH  27  29
HETATM   29  C   UNK N   1      30.685  17.154   4.282  0.00  0.00     0.083 C 
HETATM   30  C   UNK N   1      31.949  17.042   3.467  0.00  0.00     0.025 C 
HETATM   31  C   UNK N   1      33.083  17.625   4.321  0.00  0.00     0.002 C 
HETATM   32  C   UNK N   1      33.153  16.977   5.714  0.00  0.00     0.000 C 
HETATM   33  C   UNK N   1      31.816  17.072   6.453  0.00  0.00     0.002 C 
HETATM   34  C   UNK N   1      30.714  16.426   5.620  0.00  0.00     0.025 C 
ENDBRANCH  27  29
ENDBRANCH  11  27
TORSDOF 6
ENDMDL
MODEL 7
REMARK VINA RESULT:      -7.4      6.184      9.249
REMARK  6 active torsions:
REMARK  status: ('A' for Active; 'I' for Inactive)
REMARK    1  A    between atoms: S_2  and  N_4 
REMARK    2  A    between atoms: S_2  and  C_5 
REMARK    3  A    between atoms: C_8  and  N_11 
REMARK    4  A    between atoms: N_11  and  C_12 
REMARK    5  A    between atoms: C_22  and  N_24 
REMARK    6  A    between atoms: N_24  and  C_25 
ROOT
HETATM    1  C   UNK N   1      30.105  17.363   6.559  0.00  0.00     0.149 A 
HETATM    2  N   UNK N   1      29.525  17.763   7.731  0.00  0.00    -0.069 N 
HETATM    3  N   UNK N   1      30.071  18.178   8.852  0.00  0.00    -0.273 N 
ATOM      4  HN  UNK N   1      31.068  18.260   9.053  1.00  0.00     0.189 HD
HETATM    5  C   UNK N   1      29.046  18.476   9.692  0.00  0.00     0.215 A 
HETATM    6  C   UNK N   1      28.196  17.816   7.869  0.00  0.00     0.707 A 
HETATM    7  N   UNK N   1      27.846  18.254   9.090  0.00  0.00    -0.184 N 
ATOM      8  HN  UNK N   1      26.910  18.388   9.473  1.00  0.00     0.185 HD
HETATM    9  N   UNK N   1      27.346  17.518   6.848  0.00  0.00    -0.175 N 
ATOM     10  HN  UNK N   1      26.335  17.556   6.974  1.00  0.00     0.186 HD
HETATM   11  C   UNK N   1      27.897  17.166   5.643  0.00  0.00     0.120 A 
HETATM   12  C   UNK N   1      29.283  17.085   5.510  0.00  0.00     0.099 A 
ENDROOT
BRANCH   1  13
HETATM   13  N   UNK N   1      31.494  17.233   6.321  0.00  0.00    -0.340 N 
HETATM   14  H   UNK N   1      31.818  17.488   5.428  0.00  0.00     0.167 HD
BRANCH  13  15
HETATM   15  C   UNK N   1      32.453  16.775   7.236  0.00  0.00     0.033 A 
HETATM   16  C   UNK N   1      32.441  15.462   7.696  0.00  0.00     0.031 A 
HETATM   17  C   UNK N   1      33.376  15.034   8.614  0.00  0.00     0.027 A 
HETATM   18  C   UNK N   1      34.366  15.907   9.048  0.00  0.00     0.079 A 
HETATM   19  C   UNK N   1      34.431  17.213   8.553  0.00  0.00     0.027 A 
HETATM   20  C   UNK N   1      33.471  17.646   7.639  0.00  0.00     0.031 A 
BRANCH  18  21
HETATM   21  S   UNK N   1      35.402  15.378  10.373  0.00  0.00     0.256 S 
HETATM   22  O   UNK N   1      36.459  16.407  10.799  0.00  0.00    -0.201 OA
HETATM   23  O   UNK N   1      34.650  15.057  11.671  0.00  0.00    -0.201 OA
BRANCH  21  24
HETATM   24  N   UNK N   1      36.302  13.911   9.990  0.00  0.00    -0.324 N 
HETATM   25  H   UNK N   1      36.010  12.934  10.008  0.00  0.00     0.169 HD
HETATM   26  H   UNK N   1      37.270  14.064   9.704  0.00  0.00     0.169 HD
ENDBRANCH  21  24
ENDBRANCH  18  21
ENDBRANCH  13  15
ENDBRANCH   1  13
BRANCH  11  27
HETATM   27  N   UNK N   1      27.116  17.074   4.468  0.00  0.00    -0.371 N 
HETATM   28  H   UNK N   1      27.110  16.262   3.910  0.00  0.00     0.161 HD
BRANCH  27  29
HETATM   29  C   UNK N   1      26.323  18.241   4.126  0.00  0.00     0.083 C 
HETATM   30  C   UNK N   1      27.022  19.572   4.004  0.00  0.00     0.025 C 
HETATM   31  C   UNK N   1      26.171  20.438   3.066  0.00  0.00     0.002 C 
HETATM   32  C   UNK N   1      24.704  20.519   3.520  0.00  0.00     0.000 C 
HETATM   33  C   UNK N   1      24.083  19.129   3.684  0.00  0.00     0.002 C 
HETATM   34  C   UNK N   1      24.903  18.307   4.674  0.00  0.00     0.025 C 
ENDBRANCH  27  29
ENDBRANCH  11  27
TORSDOF 6
ENDMDL
MODEL 8
REMARK VINA RESULT:      -7.3      6.773      9.304
REMARK  6 active torsions:
REMARK  status: ('A' for Active; 'I' for Inactive)
REMARK    1  A    between atoms: S_2  and  N_4 
REMARK    2  A    between atoms: S_2  and  C_5 
REMARK    3  A    between atoms: C_8  and  N_11 
REMARK    4  A    between atoms: N_11  and  C_12 
REMARK    5  A    between atoms: C_22  and  N_24 
REMARK    6  A    between atoms: N_24  and  C_25 
ROOT
HETATM    1  C   UNK N   1      32.658  16.046   8.880  0.00  0.00     0.149 A 
HETATM    2  N   UNK N   1      33.573  15.411   9.674  0.00  0.00    -0.069 N 
HETATM    3  N   UNK N   1      33.467  14.969  10.908  0.00  0.00    -0.273 N 
ATOM      4  HN  UNK N   1      32.651  15.044  11.516  1.00  0.00     0.189 HD
HETATM    5  C   UNK N   1      34.659  14.393  11.214  0.00  0.00     0.215 A 
HETATM    6  C   UNK N   1      34.794  15.103   9.224  0.00  0.00     0.707 A 
HETATM    7  N   UNK N   1      35.517  14.466  10.160  0.00  0.00    -0.184 N 
ATOM      8  HN  UNK N   1      36.475  14.122  10.097  1.00  0.00     0.185 HD
HETATM    9  N   UNK N   1      35.184  15.363   7.946  0.00  0.00    -0.175 N 
ATOM     10  HN  UNK N   1      36.122  15.129   7.622  1.00  0.00     0.186 HD
HETATM   11  C   UNK N   1      34.272  15.951   7.109  0.00  0.00     0.120 A 
HETATM   12  C   UNK N   1      33.008  16.295   7.589  0.00  0.00     0.099 A 
ENDROOT
BRANCH   1  13
HETATM   13  N   UNK N   1      31.359  16.451   9.269  0.00  0.00    -0.340 N 
HETATM   14  H   UNK N   1      31.100  16.278  10.202  0.00  0.00     0.167 HD
BRANCH  13  15
HETATM   15  C   UNK N   1      30.405  17.075   8.451  0.00  0.00     0.033 A 
HETATM   16  C   UNK N   1      30.035  16.526   7.228  0.00  0.00     0.031 A 
HETATM   17  C   UNK N   1      29.115  17.165   6.425  0.00  0.00     0.027 A 
HETATM   18  C   UNK N   1      28.518  18.340   6.861  0.00  0.00     0.079 A 
HETATM   19  C   UNK N   1      28.831  18.877   8.114  0.00  0.00     0.027 A 
HETATM   20  C   UNK N   1      29.777  18.236   8.914  0.00  0.00     0.031 A 
BRANCH  18  21
HETATM   21  S   UNK N   1      27.512  19.224   5.714  0.00  0.00     0.256 S 
HETATM   22  O   UNK N   1      26.242  18.478   5.280  0.00  0.00    -0.201 OA
HETATM   23  O   UNK N   1      26.992  20.569   6.238  0.00  0.00    -0.201 OA
BRANCH  21  24
HETATM   24  N   UNK N   1      28.363  19.612   4.220  0.00  0.00    -0.324 N 
HETATM   25  H   UNK N   1      29.358  19.749   4.044  0.00  0.00     0.169 HD
HETATM   26  H   UNK N   1      27.764  19.716   3.400  0.00  0.00     0.169 HD
ENDBRANCH  21  24
ENDBRANCH  18  21
ENDBRANCH  13  15
ENDBRANCH   1  13
BRANCH  11  27
HETATM   27  N   UNK N   1      34.493  16.040   5.714  0.00  0.00    -0.371 N 
HETATM   28  H   UNK N   1      35.399  16.010   5.329  0.00  0.00     0.161 HD
BRANCH  27  29
HETATM   29  C   UNK N   1      33.313  16.178   4.880  0.00  0.00     0.083 C 
HETATM   30  C   UNK N   1      32.829  14.970   4.119  0.00  0.00     0.025 C 
HETATM   31  C   UNK N   1      31.328  15.171   3.870  0.00  0.00     0.002 C 
HETATM   32  C   UNK N   1      31.027  16.521   3.198  0.00  0.00     0.000 C 
HETATM   33  C   UNK N   1      31.605  17.694   3.994  0.00  0.00     0.002 C 
HETATM   34  C   UNK N   1      33.109  17.511   4.170  0.00  0.00     0.025 C 
ENDBRANCH  27  29
ENDBRANCH  11  27
TORSDOF 6
ENDMDL
MODEL 9
REMARK VINA RESULT:      -7.2     18.535     21.919
REMARK  6 active torsions:
REMARK  status: ('A' for Active; 'I' for Inactive)
REMARK    1  A    between atoms: S_2  and  N_4 
REMARK    2  A    between atoms: S_2  and  C_5 
REMARK    3  A    between atoms: C_8  and  N_11 
REMARK    4  A    between atoms: N_11  and  C_12 
REMARK    5  A    between atoms: C_22  and  N_24 
REMARK    6  A    between atoms: N_24  and  C_25 
ROOT
HETATM    1  C   UNK N   1      27.811  23.146  -6.779  0.00  0.00     0.149 A 
HETATM    2  N   UNK N   1      26.766  22.443  -7.312  0.00  0.00    -0.069 N 
HETATM    3  N   UNK N   1      26.762  21.417  -8.135  0.00  0.00    -0.273 N 
ATOM      4  HN  UNK N   1      27.576  20.962  -8.548  1.00  0.00     0.189 HD
HETATM    5  C   UNK N   1      25.459  21.084  -8.328  0.00  0.00     0.215 A 
HETATM    6  C   UNK N   1      25.499  22.727  -6.993  0.00  0.00     0.707 A 
HETATM    7  N   UNK N   1      24.639  21.901  -7.613  0.00  0.00    -0.184 N 
ATOM      8  HN  UNK N   1      23.620  21.890  -7.561  1.00  0.00     0.185 HD
HETATM    9  N   UNK N   1      25.175  23.697  -6.095  0.00  0.00    -0.175 N 
ATOM     10  HN  UNK N   1      24.203  23.906  -5.870  1.00  0.00     0.186 HD
HETATM   11  C   UNK N   1      26.203  24.384  -5.502  0.00  0.00     0.120 A 
HETATM   12  C   UNK N   1      27.522  24.104  -5.857  0.00  0.00     0.099 A 
ENDROOT
BRANCH   1  13
HETATM   13  N   UNK N   1      29.180  22.954  -7.079  0.00  0.00    -0.340 N 
HETATM   14  H   UNK N   1      29.472  23.179  -7.991  0.00  0.00     0.167 HD
BRANCH  13  15
HETATM   15  C   UNK N   1      30.163  22.473  -6.200  0.00  0.00     0.033 A 
HETATM   16  C   UNK N   1      31.206  23.288  -5.772  0.00  0.00     0.031 A 
HETATM   17  C   UNK N   1      32.178  22.794  -4.929  0.00  0.00     0.027 A 
HETATM   18  C   UNK N   1      32.089  21.488  -4.464  0.00  0.00     0.079 A 
HETATM   19  C   UNK N   1      31.016  20.671  -4.834  0.00  0.00     0.027 A 
HETATM   20  C   UNK N   1      30.046  21.171  -5.704  0.00  0.00     0.031 A 
BRANCH  18  21
HETATM   21  S   UNK N   1      33.460  20.843  -3.563  0.00  0.00     0.256 S 
HETATM   22  O   UNK N   1      34.816  21.442  -3.959  0.00  0.00    -0.201 OA
HETATM   23  O   UNK N   1      33.381  21.071  -2.048  0.00  0.00    -0.201 OA
BRANCH  21  24
HETATM   24  N   UNK N   1      33.642  19.100  -3.755  0.00  0.00    -0.324 N 
HETATM   25  H   UNK N   1      34.040  18.405  -3.124  0.00  0.00     0.169 HD
HETATM   26  H   UNK N   1      33.293  18.728  -4.639  0.00  0.00     0.169 HD
ENDBRANCH  21  24
ENDBRANCH  18  21
ENDBRANCH  13  15
ENDBRANCH   1  13
BRANCH  11  27
HETATM   27  N   UNK N   1      25.985  25.233  -4.391  0.00  0.00    -0.371 N 
HETATM   28  H   UNK N   1      25.599  24.898  -3.549  0.00  0.00     0.161 HD
BRANCH  27  29
HETATM   29  C   UNK N   1      26.363  26.624  -4.558  0.00  0.00     0.083 C 
HETATM   30  C   UNK N   1      26.192  27.558  -3.385  0.00  0.00     0.025 C 
HETATM   31  C   UNK N   1      27.193  28.705  -3.578  0.00  0.00     0.002 C 
HETATM   32  C   UNK N   1      27.057  29.370  -4.958  0.00  0.00     0.000 C 
HETATM   33  C   UNK N   1      27.177  28.350  -6.094  0.00  0.00     0.002 C 
HETATM   34  C   UNK N   1      26.127  27.256  -5.924  0.00  0.00     0.025 C 
ENDBRANCH  27  29
ENDBRANCH  11  27
TORSDOF 6
ENDMDL
