MODEL 1
REMARK VINA RESULT:      -7.5      0.000      0.000
REMARK  7 active torsions:
REMARK  status: ('A' for Active; 'I' for Inactive)
REMARK    1  A    between atoms: S_2  and  N_4 
REMARK    2  A    between atoms: S_2  and  C_5 
REMARK    3  A    between atoms: C_8  and  N_11 
REMARK    4  A    between atoms: N_11  and  C_12 
REMARK    5  A    between atoms: C_22  and  N_24 
REMARK    6  A    between atoms: C_25  and  N_24 
REMARK    7  A    between atoms: C_28  and  N_29 
ROOT
HETATM    1  C   UNK N   1      35.958  12.502  12.428  0.00  0.00     0.149 A 
HETATM    2  N   UNK N   1      35.080  11.594  11.905  0.00  0.00    -0.069 N 
HETATM    3  N   UNK N   1      34.854  11.264  10.651  0.00  0.00    -0.273 N 
ATOM      4  HN  UNK N   1      35.336  11.623   9.827  1.00  0.00     0.189 HD
HETATM    5  C   UNK N   1      33.849  10.350  10.672  0.00  0.00     0.215 A 
HETATM    6  C   UNK N   1      34.231  10.913  12.676  0.00  0.00     0.707 A 
HETATM    7  N   UNK N   1      33.435  10.114  11.946  0.00  0.00    -0.184 N 
ATOM      8  HN  UNK N   1      32.701   9.484  12.269  1.00  0.00     0.185 HD
HETATM    9  N   UNK N   1      34.139  11.133  14.010  0.00  0.00    -0.175 N 
ATOM     10  HN  UNK N   1      33.473  10.614  14.583  1.00  0.00     0.186 HD
HETATM   11  C   UNK N   1      34.964  12.072  14.567  0.00  0.00     0.120 A 
HETATM   12  C   UNK N   1      35.904  12.732  13.775  0.00  0.00     0.099 A 
ENDROOT
BRANCH   1  13
HETATM   13  N   UNK N   1      36.791  13.335  11.642  0.00  0.00    -0.340 N 
HETATM   14  H   UNK N   1      37.762  13.171  11.648  0.00  0.00     0.167 HD
BRANCH  13  15
HETATM   15  C   UNK N   1      36.293  14.378  10.860  0.00  0.00     0.033 A 
HETATM   16  C   UNK N   1      36.099  14.177   9.497  0.00  0.00     0.031 A 
HETATM   17  C   UNK N   1      35.477  15.148   8.741  0.00  0.00     0.027 A 
HETATM   18  C   UNK N   1      35.018  16.356   9.354  0.00  0.00     0.079 A 
HETATM   19  C   UNK N   1      35.289  16.563  10.716  0.00  0.00     0.027 A 
HETATM   20  C   UNK N   1      35.931  15.580  11.466  0.00  0.00     0.031 A 
BRANCH  18  21
HETATM   21  S   UNK N   1      34.026  17.648   8.488  0.00  0.00     0.256 S 
HETATM   22  O   UNK N   1      34.647  18.344   7.269  0.00  0.00    -0.201 OA
HETATM   23  O   UNK N   1      35.232  18.365   9.115  0.00  0.00    -0.201 OA
BRANCH  21  24
HETATM   24  N   UNK N   1      34.509  16.359   7.368  0.00  0.00    -0.324 N 
HETATM   25  H   UNK N   1      34.251  16.359   6.381  0.00  0.00     0.169 HD
HETATM   26  H   UNK N   1      35.067  15.584   7.727  0.00  0.00     0.169 HD
ENDBRANCH  21  24
ENDBRANCH  18  21
ENDBRANCH  13  15
ENDBRANCH   1  13
BRANCH  11  27
HETATM   27  N   UNK N   1      34.665  12.602  15.845  0.00  0.00    -0.371 N 
HETATM   28  H   UNK N   1      33.810  13.074  15.969  0.00  0.00     0.161 HD
BRANCH  27  29
HETATM   29  C   UNK N   1      35.572  12.480  16.995  0.00  0.00     0.083 C 
HETATM   30  C   UNK N   1      35.032  13.284  18.184  0.00  0.00     0.027 C 
HETATM   31  C   UNK N   1      35.505  12.694  19.515  0.00  0.00     0.026 C 
HETATM   32  C   UNK N   1      34.858  11.315  19.700  0.00  0.00     0.074 C 
HETATM   33  C   UNK N   1      35.013  10.429  18.462  0.00  0.00     0.026 C 
HETATM   34  C   UNK N   1      35.967  11.029  17.411  0.00  0.00     0.027 C 
BRANCH  32  35
HETATM   35  N   UNK N   1      35.447  10.641  20.842  0.00  0.00    -0.426 N 
HETATM   36  H   UNK N   1      34.937  10.113  21.551  0.00  0.00     0.150 HD
HETATM   37  H   UNK N   1      36.460  10.699  20.943  0.00  0.00     0.150 HD
ENDBRANCH  32  35
ENDBRANCH  27  29
ENDBRANCH  11  27
TORSDOF 7
ENDMDL
MODEL 2
REMARK VINA RESULT:      -7.5      4.709      8.926
REMARK  7 active torsions:
REMARK  status: ('A' for Active; 'I' for Inactive)
REMARK    1  A    between atoms: S_2  and  N_4 
REMARK    2  A    between atoms: S_2  and  C_5 
REMARK    3  A    between atoms: C_8  and  N_11 
REMARK    4  A    between atoms: N_11  and  C_12 
REMARK    5  A    between atoms: C_22  and  N_24 
REMARK    6  A    between atoms: C_25  and  N_24 
REMARK    7  A    between atoms: C_28  and  N_29 
ROOT
HETATM    1  C   UNK N   1      36.375  14.315  11.961  0.00  0.00     0.149 A 
HETATM    2  N   UNK N   1      37.182  13.894  10.940  0.00  0.00    -0.069 N 
HETATM    3  N   UNK N   1      38.395  13.387  10.978  0.00  0.00    -0.273 N 
ATOM      4  HN  UNK N   1      38.950  13.187  11.811  1.00  0.00     0.189 HD
HETATM    5  C   UNK N   1      38.765  13.185   9.687  0.00  0.00     0.215 A 
HETATM    6  C   UNK N   1      36.818  14.013   9.663  0.00  0.00     0.707 A 
HETATM    7  N   UNK N   1      37.781  13.577   8.833  0.00  0.00    -0.184 N 
ATOM      8  HN  UNK N   1      37.775  13.548   7.814  1.00  0.00     0.185 HD
HETATM    9  N   UNK N   1      35.662  14.621   9.299  0.00  0.00    -0.175 N 
ATOM     10  HN  UNK N   1      35.406  14.716   8.316  1.00  0.00     0.186 HD
HETATM   11  C   UNK N   1      34.849  15.103  10.288  0.00  0.00     0.120 A 
HETATM   12  C   UNK N   1      35.192  14.915  11.626  0.00  0.00     0.099 A 
ENDROOT
BRANCH   1  13
HETATM   13  N   UNK N   1      36.765  14.323  13.322  0.00  0.00    -0.340 N 
HETATM   14  H   UNK N   1      37.247  15.108  13.669  0.00  0.00     0.167 HD
BRANCH  13  15
HETATM   15  C   UNK N   1      36.496  13.265  14.191  0.00  0.00     0.033 A 
HETATM   16  C   UNK N   1      37.231  12.088  14.081  0.00  0.00     0.031 A 
HETATM   17  C   UNK N   1      37.073  11.091  15.021  0.00  0.00     0.027 A 
HETATM   18  C   UNK N   1      36.169  11.265  16.115  0.00  0.00     0.079 A 
HETATM   19  C   UNK N   1      35.390  12.433  16.162  0.00  0.00     0.027 A 
HETATM   20  C   UNK N   1      35.548  13.427  15.199  0.00  0.00     0.031 A 
BRANCH  18  21
HETATM   21  S   UNK N   1      35.998  10.083  17.521  0.00  0.00     0.256 S 
HETATM   22  O   UNK N   1      34.588   9.775  18.042  0.00  0.00    -0.201 OA
HETATM   23  O   UNK N   1      35.548  11.456  18.043  0.00  0.00    -0.201 OA
BRANCH  21  24
HETATM   24  N   UNK N   1      35.053   9.546  16.118  0.00  0.00    -0.324 N 
HETATM   25  H   UNK N   1      34.390  10.152  15.634  0.00  0.00     0.169 HD
HETATM   26  H   UNK N   1      35.177   8.591  15.781  0.00  0.00     0.169 HD
ENDBRANCH  21  24
ENDBRANCH  18  21
ENDBRANCH  13  15
ENDBRANCH   1  13
BRANCH  11  27
HETATM   27  N   UNK N   1      33.847  16.053   9.974  0.00  0.00    -0.371 N 
HETATM   28  H   UNK N   1      33.446  16.573  10.708  0.00  0.00     0.161 HD
BRANCH  27  29
HETATM   29  C   UNK N   1      33.377  16.296   8.603  0.00  0.00     0.083 C 
HETATM   30  C   UNK N   1      32.329  15.249   8.208  0.00  0.00     0.027 C 
HETATM   31  C   UNK N   1      31.363  15.797   7.155  0.00  0.00     0.026 C 
HETATM   32  C   UNK N   1      30.522  16.912   7.792  0.00  0.00     0.074 C 
HETATM   33  C   UNK N   1      31.382  17.936   8.536  0.00  0.00     0.026 C 
HETATM   34  C   UNK N   1      32.891  17.745   8.288  0.00  0.00     0.027 C 
BRANCH  32  35
HETATM   35  N   UNK N   1      29.750  17.595   6.771  0.00  0.00    -0.426 N 
HETATM   36  H   UNK N   1      30.043  17.754   5.807  0.00  0.00     0.150 HD
HETATM   37  H   UNK N   1      28.832  17.948   7.042  0.00  0.00     0.150 HD
ENDBRANCH  32  35
ENDBRANCH  27  29
ENDBRANCH  11  27
TORSDOF 7
ENDMDL
MODEL 3
REMARK VINA RESULT:      -7.5      6.754      9.568
REMARK  7 active torsions:
REMARK  status: ('A' for Active; 'I' for Inactive)
REMARK    1  A    between atoms: S_2  and  N_4 
REMARK    2  A    between atoms: S_2  and  C_5 
REMARK    3  A    between atoms: C_8  and  N_11 
REMARK    4  A    between atoms: N_11  and  C_12 
REMARK    5  A    between atoms: C_22  and  N_24 
REMARK    6  A    between atoms: C_25  and  N_24 
REMARK    7  A    between atoms: C_28  and  N_29 
ROOT
HETATM    1  C   UNK N   1      34.191  16.401   6.714  0.00  0.00     0.149 A 
HETATM    2  N   UNK N   1      34.902  15.727   7.668  0.00  0.00    -0.069 N 
HETATM    3  N   UNK N   1      35.736  14.717   7.542  0.00  0.00    -0.273 N 
ATOM      4  HN  UNK N   1      36.026  14.267   6.674  1.00  0.00     0.189 HD
HETATM    5  C   UNK N   1      36.131  14.390   8.800  0.00  0.00     0.215 A 
HETATM    6  C   UNK N   1      34.778  16.008   8.965  0.00  0.00     0.707 A 
HETATM    7  N   UNK N   1      35.534  15.194   9.721  0.00  0.00    -0.184 N 
ATOM      8  HN  UNK N   1      35.636  15.182  10.736  1.00  0.00     0.185 HD
HETATM    9  N   UNK N   1      33.889  16.925   9.419  0.00  0.00    -0.175 N 
ATOM     10  HN  UNK N   1      33.796  17.117  10.418  1.00  0.00     0.186 HD
HETATM   11  C   UNK N   1      33.120  17.587   8.502  0.00  0.00     0.120 A 
HETATM   12  C   UNK N   1      33.300  17.348   7.140  0.00  0.00     0.099 A 
ENDROOT
BRANCH   1  13
HETATM   13  N   UNK N   1      34.197  16.060   5.340  0.00  0.00    -0.340 N 
HETATM   14  H   UNK N   1      35.062  15.976   4.879  0.00  0.00     0.167 HD
BRANCH  13  15
HETATM   15  C   UNK N   1      33.026  15.839   4.612  0.00  0.00     0.033 A 
HETATM   16  C   UNK N   1      32.229  14.741   4.920  0.00  0.00     0.031 A 
HETATM   17  C   UNK N   1      31.003  14.590   4.308  0.00  0.00     0.027 A 
HETATM   18  C   UNK N   1      30.540  15.564   3.368  0.00  0.00     0.079 A 
HETATM   19  C   UNK N   1      31.395  16.624   3.024  0.00  0.00     0.027 A 
HETATM   20  C   UNK N   1      32.637  16.757   3.639  0.00  0.00     0.031 A 
BRANCH  18  21
HETATM   21  S   UNK N   1      28.856  15.563   2.614  0.00  0.00     0.256 S 
HETATM   22  O   UNK N   1      27.700  16.171   3.420  0.00  0.00    -0.201 OA
HETATM   23  O   UNK N   1      28.794  14.627   3.831  0.00  0.00    -0.201 OA
BRANCH  21  24
HETATM   24  N   UNK N   1      29.360  17.209   3.048  0.00  0.00    -0.324 N 
HETATM   25  H   UNK N   1      28.839  17.792   3.704  0.00  0.00     0.169 HD
HETATM   26  H   UNK N   1      30.206  17.589   2.622  0.00  0.00     0.169 HD
ENDBRANCH  21  24
ENDBRANCH  18  21
ENDBRANCH  13  15
ENDBRANCH   1  13
BRANCH  11  27
HETATM   27  N   UNK N   1      31.946  18.259   8.921  0.00  0.00    -0.371 N 
HETATM   28  H   UNK N   1      32.024  19.191   9.228  0.00  0.00     0.161 HD
BRANCH  27  29
HETATM   29  C   UNK N   1      30.619  17.629   8.919  0.00  0.00     0.083 C 
HETATM   30  C   UNK N   1      29.530  18.688   9.130  0.00  0.00     0.027 C 
HETATM   31  C   UNK N   1      28.205  18.257   8.496  0.00  0.00     0.026 C 
HETATM   32  C   UNK N   1      28.376  18.229   6.971  0.00  0.00     0.074 C 
HETATM   33  C   UNK N   1      29.626  17.459   6.541  0.00  0.00     0.026 C 
HETATM   34  C   UNK N   1      30.296  16.704   7.704  0.00  0.00     0.027 C 
BRANCH  32  35
HETATM   35  N   UNK N   1      27.211  17.623   6.353  0.00  0.00    -0.426 N 
HETATM   36  H   UNK N   1      27.202  16.753   5.821  0.00  0.00     0.150 HD
HETATM   37  H   UNK N   1      26.322  18.112   6.459  0.00  0.00     0.150 HD
ENDBRANCH  32  35
ENDBRANCH  27  29
ENDBRANCH  11  27
TORSDOF 7
ENDMDL
MODEL 4
REMARK VINA RESULT:      -7.4     10.877     14.536
REMARK  7 active torsions:
REMARK  status: ('A' for Active; 'I' for Inactive)
REMARK    1  A    between atoms: S_2  and  N_4 
REMARK    2  A    between atoms: S_2  and  C_5 
REMARK    3  A    between atoms: C_8  and  N_11 
REMARK    4  A    between atoms: N_11  and  C_12 
REMARK    5  A    between atoms: C_22  and  N_24 
REMARK    6  A    between atoms: C_25  and  N_24 
REMARK    7  A    between atoms: C_28  and  N_29 
ROOT
HETATM    1  C   UNK N   1      26.318  18.032   5.238  0.00  0.00     0.149 A 
HETATM    2  N   UNK N   1      26.715  19.261   5.689  0.00  0.00    -0.069 N 
HETATM    3  N   UNK N   1      26.020  20.204   6.288  0.00  0.00    -0.273 N 
ATOM      4  HN  UNK N   1      25.036  20.164   6.555  1.00  0.00     0.189 HD
HETATM    5  C   UNK N   1      26.874  21.244   6.479  0.00  0.00     0.215 A 
HETATM    6  C   UNK N   1      27.956  19.709   5.505  0.00  0.00     0.707 A 
HETATM    7  N   UNK N   1      28.108  20.954   5.987  0.00  0.00    -0.184 N 
ATOM      8  HN  UNK N   1      28.944  21.538   5.985  1.00  0.00     0.185 HD
HETATM    9  N   UNK N   1      28.876  19.006   4.799  0.00  0.00    -0.175 N 
ATOM     10  HN  UNK N   1      29.818  19.371   4.655  1.00  0.00     0.186 HD
HETATM   11  C   UNK N   1      28.506  17.793   4.286  0.00  0.00     0.120 A 
HETATM   12  C   UNK N   1      27.231  17.289   4.541  0.00  0.00     0.099 A 
ENDROOT
BRANCH   1  13
HETATM   13  N   UNK N   1      24.984  17.562   5.302  0.00  0.00    -0.340 N 
HETATM   14  H   UNK N   1      24.786  16.779   5.863  0.00  0.00     0.167 HD
BRANCH  13  15
HETATM   15  C   UNK N   1      23.938  18.164   4.601  0.00  0.00     0.033 A 
HETATM   16  C   UNK N   1      22.624  17.846   4.930  0.00  0.00     0.031 A 
HETATM   17  C   UNK N   1      21.584  18.537   4.345  0.00  0.00     0.027 A 
HETATM   18  C   UNK N   1      21.848  19.589   3.413  0.00  0.00     0.079 A 
HETATM   19  C   UNK N   1      23.180  19.842   3.047  0.00  0.00     0.027 A 
HETATM   20  C   UNK N   1      24.222  19.127   3.634  0.00  0.00     0.031 A 
BRANCH  18  21
HETATM   21  S   UNK N   1      20.556  20.693   2.697  0.00  0.00     0.256 S 
HETATM   22  O   UNK N   1      20.686  21.102   1.223  0.00  0.00    -0.201 OA
HETATM   23  O   UNK N   1      21.865  21.497   2.708  0.00  0.00    -0.201 OA
BRANCH  21  24
HETATM   24  N   UNK N   1      20.691  19.186   1.769  0.00  0.00    -0.324 N 
HETATM   25  H   UNK N   1      21.421  18.494   1.943  0.00  0.00     0.169 HD
HETATM   26  H   UNK N   1      20.012  19.003   1.030  0.00  0.00     0.169 HD
ENDBRANCH  21  24
ENDBRANCH  18  21
ENDBRANCH  13  15
ENDBRANCH   1  13
BRANCH  11  27
HETATM   27  N   UNK N   1      29.273  17.201   3.254  0.00  0.00    -0.371 N 
HETATM   28  H   UNK N   1      28.989  17.337   2.322  0.00  0.00     0.161 HD
BRANCH  27  29
HETATM   29  C   UNK N   1      30.474  16.394   3.512  0.00  0.00     0.083 C 
HETATM   30  C   UNK N   1      31.700  17.045   2.859  0.00  0.00     0.027 C 
HETATM   31  C   UNK N   1      32.986  16.679   3.603  0.00  0.00     0.026 C 
HETATM   32  C   UNK N   1      32.948  17.322   4.996  0.00  0.00     0.074 C 
HETATM   33  C   UNK N   1      31.631  17.051   5.726  0.00  0.00     0.026 C 
HETATM   34  C   UNK N   1      30.746  16.018   5.002  0.00  0.00     0.027 C 
BRANCH  32  35
HETATM   35  N   UNK N   1      34.047  16.825   5.802  0.00  0.00    -0.426 N 
HETATM   36  H   UNK N   1      34.040  15.969   6.357  0.00  0.00     0.150 HD
HETATM   37  H   UNK N   1      34.903  17.380   5.814  0.00  0.00     0.150 HD
ENDBRANCH  32  35
ENDBRANCH  27  29
ENDBRANCH  11  27
TORSDOF 7
ENDMDL
MODEL 5
REMARK VINA RESULT:      -7.4      2.387      5.239
REMARK  7 active torsions:
REMARK  status: ('A' for Active; 'I' for Inactive)
REMARK    1  A    between atoms: S_2  and  N_4 
REMARK    2  A    between atoms: S_2  and  C_5 
REMARK    3  A    between atoms: C_8  and  N_11 
REMARK    4  A    between atoms: N_11  and  C_12 
REMARK    5  A    between atoms: C_22  and  N_24 
REMARK    6  A    between atoms: C_25  and  N_24 
REMARK    7  A    between atoms: C_28  and  N_29 
ROOT
HETATM    1  C   UNK N   1      36.036  13.815  12.549  0.00  0.00     0.149 A 
HETATM    2  N   UNK N   1      36.255  14.024  13.883  0.00  0.00    -0.069 N 
HETATM    3  N   UNK N   1      37.097  14.838  14.483  0.00  0.00    -0.273 N 
ATOM      4  HN  UNK N   1      37.734  15.497  14.036  1.00  0.00     0.189 HD
HETATM    5  C   UNK N   1      36.951  14.623  15.816  0.00  0.00     0.215 A 
HETATM    6  C   UNK N   1      35.617  13.320  14.818  0.00  0.00     0.707 A 
HETATM    7  N   UNK N   1      36.019  13.661  16.053  0.00  0.00    -0.184 N 
ATOM      8  HN  UNK N   1      35.702  13.290  16.949  1.00  0.00     0.185 HD
HETATM    9  N   UNK N   1      34.771  12.308  14.502  0.00  0.00    -0.175 N 
ATOM     10  HN  UNK N   1      34.302  11.769  15.231  1.00  0.00     0.186 HD
HETATM   11  C   UNK N   1      34.563  12.031  13.178  0.00  0.00     0.120 A 
HETATM   12  C   UNK N   1      35.172  12.814  12.199  0.00  0.00     0.099 A 
ENDROOT
BRANCH   1  13
HETATM   13  N   UNK N   1      36.775  14.449  11.521  0.00  0.00    -0.340 N 
HETATM   14  H   UNK N   1      37.756  14.374  11.531  0.00  0.00     0.167 HD
BRANCH  13  15
HETATM   15  C   UNK N   1      36.169  15.176  10.495  0.00  0.00     0.033 A 
HETATM   16  C   UNK N   1      36.028  14.595   9.239  0.00  0.00     0.031 A 
HETATM   17  C   UNK N   1      35.307  15.245   8.259  0.00  0.00     0.027 A 
HETATM   18  C   UNK N   1      34.692  16.507   8.532  0.00  0.00     0.079 A 
HETATM   19  C   UNK N   1      34.909  17.102   9.786  0.00  0.00     0.027 A 
HETATM   20  C   UNK N   1      35.652  16.442  10.762  0.00  0.00     0.031 A 
BRANCH  18  21
HETATM   21  S   UNK N   1      33.567  17.390   7.366  0.00  0.00     0.256 S 
HETATM   22  O   UNK N   1      34.159  17.934   6.059  0.00  0.00    -0.201 OA
HETATM   23  O   UNK N   1      34.570  18.432   7.885  0.00  0.00    -0.201 OA
BRANCH  21  24
HETATM   24  N   UNK N   1      34.364  16.018   6.569  0.00  0.00    -0.324 N 
HETATM   25  H   UNK N   1      34.182  15.048   6.826  0.00  0.00     0.169 HD
HETATM   26  H   UNK N   1      35.033  16.208   5.823  0.00  0.00     0.169 HD
ENDBRANCH  21  24
ENDBRANCH  18  21
ENDBRANCH  13  15
ENDBRANCH   1  13
BRANCH  11  27
HETATM   27  N   UNK N   1      34.006  10.786  12.799  0.00  0.00    -0.371 N 
HETATM   28  H   UNK N   1      33.266  10.420  13.336  0.00  0.00     0.161 HD
BRANCH  27  29
HETATM   29  C   UNK N   1      34.482  10.015  11.643  0.00  0.00     0.083 C 
HETATM   30  C   UNK N   1      34.745   8.559  12.048  0.00  0.00     0.027 C 
HETATM   31  C   UNK N   1      34.582   7.612  10.856  0.00  0.00     0.026 C 
HETATM   32  C   UNK N   1      33.106   7.599  10.436  0.00  0.00     0.074 C 
HETATM   33  C   UNK N   1      32.535   9.009  10.276  0.00  0.00     0.026 C 
HETATM   34  C   UNK N   1      33.615  10.106  10.349  0.00  0.00     0.027 C 
BRANCH  32  35
HETATM   35  N   UNK N   1      32.954   6.882   9.184  0.00  0.00    -0.426 N 
HETATM   36  H   UNK N   1      33.656   6.282   8.750  0.00  0.00     0.150 HD
HETATM   37  H   UNK N   1      32.065   6.986   8.694  0.00  0.00     0.150 HD
ENDBRANCH  32  35
ENDBRANCH  27  29
ENDBRANCH  11  27
TORSDOF 7
ENDMDL
MODEL 6
REMARK VINA RESULT:      -7.4      9.065     12.093
REMARK  7 active torsions:
REMARK  status: ('A' for Active; 'I' for Inactive)
REMARK    1  A    between atoms: S_2  and  N_4 
REMARK    2  A    between atoms: S_2  and  C_5 
REMARK    3  A    between atoms: C_8  and  N_11 
REMARK    4  A    between atoms: N_11  and  C_12 
REMARK    5  A    between atoms: C_22  and  N_24 
REMARK    6  A    between atoms: C_25  and  N_24 
REMARK    7  A    between atoms: C_28  and  N_29 
ROOT
HETATM    1  C   UNK N   1      28.098  17.725   4.269  0.00  0.00     0.149 A 
HETATM    2  N   UNK N   1      27.575  18.873   4.798  0.00  0.00    -0.069 N 
HETATM    3  N   UNK N   1      28.128  20.056   4.957  0.00  0.00    -0.273 N 
ATOM      4  HN  UNK N   1      29.067  20.336   4.674  1.00  0.00     0.189 HD
HETATM    5  C   UNK N   1      27.199  20.831   5.575  0.00  0.00     0.215 A 
HETATM    6  C   UNK N   1      26.347  18.912   5.313  0.00  0.00     0.707 A 
HETATM    7  N   UNK N   1      26.060  20.125   5.815  0.00  0.00    -0.184 N 
ATOM      8  HN  UNK N   1      25.201  20.440   6.264  1.00  0.00     0.185 HD
HETATM    9  N   UNK N   1      25.572  17.803   5.409  0.00  0.00    -0.175 N 
ATOM     10  HN  UNK N   1      24.639  17.848   5.820  1.00  0.00     0.186 HD
HETATM   11  C   UNK N   1      26.077  16.622   4.938  0.00  0.00     0.120 A 
HETATM   12  C   UNK N   1      27.333  16.593   4.331  0.00  0.00     0.099 A 
ENDROOT
BRANCH   1  13
HETATM   13  N   UNK N   1      29.436  17.601   3.822  0.00  0.00    -0.340 N 
HETATM   14  H   UNK N   1      29.617  17.658   2.856  0.00  0.00     0.167 HD
BRANCH  13  15
HETATM   15  C   UNK N   1      30.508  17.403   4.694  0.00  0.00     0.033 A 
HETATM   16  C   UNK N   1      31.808  17.561   4.224  0.00  0.00     0.031 A 
HETATM   17  C   UNK N   1      32.867  17.509   5.105  0.00  0.00     0.027 A 
HETATM   18  C   UNK N   1      32.636  17.307   6.501  0.00  0.00     0.079 A 
HETATM   19  C   UNK N   1      31.320  17.081   6.938  0.00  0.00     0.027 A 
HETATM   20  C   UNK N   1      30.260  17.122   6.035  0.00  0.00     0.031 A 
BRANCH  18  21
HETATM   21  S   UNK N   1      33.949  17.387   7.795  0.00  0.00     0.256 S 
HETATM   22  O   UNK N   1      34.459  18.768   8.226  0.00  0.00    -0.201 OA
HETATM   23  O   UNK N   1      34.579  17.910   6.495  0.00  0.00    -0.201 OA
BRANCH  21  24
HETATM   24  N   UNK N   1      32.519  18.319   8.280  0.00  0.00    -0.324 N 
HETATM   25  H   UNK N   1      32.218  18.404   9.251  0.00  0.00     0.169 HD
HETATM   26  H   UNK N   1      31.973  18.788   7.557  0.00  0.00     0.169 HD
ENDBRANCH  21  24
ENDBRANCH  18  21
ENDBRANCH  13  15
ENDBRANCH   1  13
BRANCH  11  27
HETATM   27  N   UNK N   1      25.491  15.397   5.339  0.00  0.00    -0.371 N 
HETATM   28  H   UNK N   1      25.537  14.631   4.721  0.00  0.00     0.161 HD
BRANCH  27  29
HETATM   29  C   UNK N   1      24.819  15.217   6.633  0.00  0.00     0.083 C 
HETATM   30  C   UNK N   1      23.302  15.115   6.432  0.00  0.00     0.027 C 
HETATM   31  C   UNK N   1      22.647  14.297   7.548  0.00  0.00     0.026 C 
HETATM   32  C   UNK N   1      23.114  12.840   7.428  0.00  0.00     0.074 C 
HETATM   33  C   UNK N   1      24.635  12.727   7.294  0.00  0.00     0.026 C 
HETATM   34  C   UNK N   1      25.360  14.065   7.536  0.00  0.00     0.027 C 
BRANCH  32  35
HETATM   35  N   UNK N   1      22.684  12.085   8.590  0.00  0.00    -0.426 N 
HETATM   36  H   UNK N   1      23.250  11.885   9.415  0.00  0.00     0.150 HD
HETATM   37  H   UNK N   1      21.731  11.721   8.580  0.00  0.00     0.150 HD
ENDBRANCH  32  35
ENDBRANCH  27  29
ENDBRANCH  11  27
TORSDOF 7
ENDMDL
MODEL 7
REMARK VINA RESULT:      -7.4     10.120     14.625
REMARK  7 active torsions:
REMARK  status: ('A' for Active; 'I' for Inactive)
REMARK    1  A    between atoms: S_2  and  N_4 
REMARK    2  A    between atoms: S_2  and  C_5 
REMARK    3  A    between atoms: C_8  and  N_11 
REMARK    4  A    between atoms: N_11  and  C_12 
REMARK    5  A    between atoms: C_22  and  N_24 
REMARK    6  A    between atoms: C_25  and  N_24 
REMARK    7  A    between atoms: C_28  and  N_29 
ROOT
HETATM    1  C   UNK N   1      27.023  18.028   5.662  0.00  0.00     0.149 A 
HETATM    2  N   UNK N   1      27.102  19.376   5.877  0.00  0.00    -0.069 N 
HETATM    3  N   UNK N   1      27.882  20.057   6.689  0.00  0.00    -0.273 N 
ATOM      4  HN  UNK N   1      28.609  19.682   7.298  1.00  0.00     0.189 HD
HETATM    5  C   UNK N   1      27.525  21.362   6.556  0.00  0.00     0.215 A 
HETATM    6  C   UNK N   1      26.281  20.233   5.270  0.00  0.00     0.707 A 
HETATM    7  N   UNK N   1      26.508  21.497   5.663  0.00  0.00    -0.184 N 
ATOM      8  HN  UNK N   1      26.034  22.350   5.364  1.00  0.00     0.185 HD
HETATM    9  N   UNK N   1      25.275  19.814   4.463  0.00  0.00    -0.175 N 
ATOM     10  HN  UNK N   1      24.646  20.483   4.018  1.00  0.00     0.186 HD
HETATM   11  C   UNK N   1      25.128  18.468   4.262  0.00  0.00     0.120 A 
HETATM   12  C   UNK N   1      26.032  17.575   4.836  0.00  0.00     0.099 A 
ENDROOT
BRANCH   1  13
HETATM   13  N   UNK N   1      27.789  17.071   6.372  0.00  0.00    -0.340 N 
HETATM   14  H   UNK N   1      27.330  16.290   6.754  0.00  0.00     0.167 HD
BRANCH  13  15
HETATM   15  C   UNK N   1      29.168  17.191   6.551  0.00  0.00     0.033 A 
HETATM   16  C   UNK N   1      29.694  17.159   7.838  0.00  0.00     0.031 A 
HETATM   17  C   UNK N   1      31.061  17.133   8.021  0.00  0.00     0.027 A 
HETATM   18  C   UNK N   1      31.940  17.124   6.894  0.00  0.00     0.079 A 
HETATM   19  C   UNK N   1      31.384  17.226   5.608  0.00  0.00     0.027 A 
HETATM   20  C   UNK N   1      30.002  17.267   5.438  0.00  0.00     0.031 A 
BRANCH  18  21
HETATM   21  S   UNK N   1      33.770  16.919   7.004  0.00  0.00     0.256 S 
HETATM   22  O   UNK N   1      34.647  18.176   6.926  0.00  0.00    -0.201 OA
HETATM   23  O   UNK N   1      33.469  17.425   5.586  0.00  0.00    -0.201 OA
BRANCH  21  24
HETATM   24  N   UNK N   1      33.175  18.023   8.260  0.00  0.00    -0.324 N 
HETATM   25  H   UNK N   1      32.850  17.699   9.172  0.00  0.00     0.169 HD
HETATM   26  H   UNK N   1      33.156  19.023   8.063  0.00  0.00     0.169 HD
ENDBRANCH  21  24
ENDBRANCH  18  21
ENDBRANCH  13  15
ENDBRANCH   1  13
BRANCH  11  27
HETATM   27  N   UNK N   1      23.908  17.962   3.752  0.00  0.00    -0.371 N 
HETATM   28  H   UNK N   1      23.941  17.208   3.120  0.00  0.00     0.161 HD
BRANCH  27  29
HETATM   29  C   UNK N   1      22.597  18.511   4.123  0.00  0.00     0.083 C 
HETATM   30  C   UNK N   1      22.229  19.677   3.197  0.00  0.00     0.027 C 
HETATM   31  C   UNK N   1      20.711  19.833   3.075  0.00  0.00     0.026 C 
HETATM   32  C   UNK N   1      20.148  18.610   2.340  0.00  0.00     0.074 C 
HETATM   33  C   UNK N   1      20.659  17.293   2.928  0.00  0.00     0.026 C 
HETATM   34  C   UNK N   1      21.429  17.484   4.248  0.00  0.00     0.027 C 
BRANCH  32  35
HETATM   35  N   UNK N   1      18.698  18.622   2.395  0.00  0.00    -0.426 N 
HETATM   36  H   UNK N   1      18.130  18.386   3.208  0.00  0.00     0.150 HD
HETATM   37  H   UNK N   1      18.204  18.891   1.544  0.00  0.00     0.150 HD
ENDBRANCH  32  35
ENDBRANCH  27  29
ENDBRANCH  11  27
TORSDOF 7
ENDMDL
MODEL 8
REMARK VINA RESULT:      -7.4      7.300     12.108
REMARK  7 active torsions:
REMARK  status: ('A' for Active; 'I' for Inactive)
REMARK    1  A    between atoms: S_2  and  N_4 
REMARK    2  A    between atoms: S_2  and  C_5 
REMARK    3  A    between atoms: C_8  and  N_11 
REMARK    4  A    between atoms: N_11  and  C_12 
REMARK    5  A    between atoms: C_22  and  N_24 
REMARK    6  A    between atoms: C_25  and  N_24 
REMARK    7  A    between atoms: C_28  and  N_29 
ROOT
HETATM    1  C   UNK N   1      29.754  17.453   6.281  0.00  0.00     0.149 A 
HETATM    2  N   UNK N   1      29.065  17.802   7.410  0.00  0.00    -0.069 N 
HETATM    3  N   UNK N   1      29.122  17.297   8.624  0.00  0.00    -0.273 N 
ATOM      4  HN  UNK N   1      29.736  16.549   8.947  1.00  0.00     0.189 HD
HETATM    5  C   UNK N   1      28.199  17.968   9.361  0.00  0.00     0.215 A 
HETATM    6  C   UNK N   1      28.127  18.749   7.395  0.00  0.00     0.707 A 
HETATM    7  N   UNK N   1      27.552  18.893   8.601  0.00  0.00    -0.184 N 
ATOM      8  HN  UNK N   1      26.813  19.538   8.879  1.00  0.00     0.185 HD
HETATM    9  N   UNK N   1      27.750  19.369   6.249  0.00  0.00    -0.175 N 
ATOM     10  HN  UNK N   1      27.019  20.081   6.254  1.00  0.00     0.186 HD
HETATM   11  C   UNK N   1      28.378  19.012   5.088  0.00  0.00     0.120 A 
HETATM   12  C   UNK N   1      29.411  18.076   5.113  0.00  0.00     0.099 A 
ENDROOT
BRANCH   1  13
HETATM   13  N   UNK N   1      30.670  16.375   6.219  0.00  0.00    -0.340 N 
HETATM   14  H   UNK N   1      30.472  15.623   5.616  0.00  0.00     0.167 HD
BRANCH  13  15
HETATM   15  C   UNK N   1      31.841  16.335   6.976  0.00  0.00     0.033 A 
HETATM   16  C   UNK N   1      32.524  17.519   7.240  0.00  0.00     0.031 A 
HETATM   17  C   UNK N   1      33.600  17.513   8.103  0.00  0.00     0.027 A 
HETATM   18  C   UNK N   1      34.009  16.299   8.739  0.00  0.00     0.079 A 
HETATM   19  C   UNK N   1      33.346  15.108   8.401  0.00  0.00     0.027 A 
HETATM   20  C   UNK N   1      32.270  15.125   7.517  0.00  0.00     0.031 A 
BRANCH  18  21
HETATM   21  S   UNK N   1      35.317  16.195  10.035  0.00  0.00     0.256 S 
HETATM   22  O   UNK N   1      35.088  16.937  11.359  0.00  0.00    -0.201 OA
HETATM   23  O   UNK N   1      35.272  17.659   9.572  0.00  0.00    -0.201 OA
BRANCH  21  24
HETATM   24  N   UNK N   1      33.755  15.632  10.660  0.00  0.00    -0.324 N 
HETATM   25  H   UNK N   1      32.976  16.262  10.852  0.00  0.00     0.169 HD
HETATM   26  H   UNK N   1      33.629  14.634  10.836  0.00  0.00     0.169 HD
ENDBRANCH  21  24
ENDBRANCH  18  21
ENDBRANCH  13  15
ENDBRANCH   1  13
BRANCH  11  27
HETATM   27  N   UNK N   1      27.789  19.337   3.842  0.00  0.00    -0.371 N 
HETATM   28  H   UNK N   1      28.182  20.069   3.314  0.00  0.00     0.161 HD
BRANCH  27  29
HETATM   29  C   UNK N   1      26.619  18.631   3.301  0.00  0.00     0.083 C 
HETATM   30  C   UNK N   1      26.594  17.183   3.805  0.00  0.00     0.027 C 
HETATM   31  C   UNK N   1      25.166  16.635   3.854  0.00  0.00     0.026 C 
HETATM   32  C   UNK N   1      24.385  17.395   4.934  0.00  0.00     0.074 C 
HETATM   33  C   UNK N   1      24.535  18.912   4.801  0.00  0.00     0.026 C 
HETATM   34  C   UNK N   1      25.239  19.333   3.497  0.00  0.00     0.027 C 
BRANCH  32  35
HETATM   35  N   UNK N   1      22.977  17.051   4.862  0.00  0.00    -0.426 N 
HETATM   36  H   UNK N   1      22.226  17.498   5.389  0.00  0.00     0.150 HD
HETATM   37  H   UNK N   1      22.715  16.295   4.230  0.00  0.00     0.150 HD
ENDBRANCH  32  35
ENDBRANCH  27  29
ENDBRANCH  11  27
TORSDOF 7
ENDMDL
MODEL 9
REMARK VINA RESULT:      -7.4     19.266     23.016
REMARK  7 active torsions:
REMARK  status: ('A' for Active; 'I' for Inactive)
REMARK    1  A    between atoms: S_2  and  N_4 
REMARK    2  A    between atoms: S_2  and  C_5 
REMARK    3  A    between atoms: C_8  and  N_11 
REMARK    4  A    between atoms: N_11  and  C_12 
REMARK    5  A    between atoms: C_22  and  N_24 
REMARK    6  A    between atoms: C_25  and  N_24 
REMARK    7  A    between atoms: C_28  and  N_29 
ROOT
HETATM    1  C   UNK N   1      26.406  23.606  -6.243  0.00  0.00     0.149 A 
HETATM    2  N   UNK N   1      26.155  22.561  -7.088  0.00  0.00    -0.069 N 
HETATM    3  N   UNK N   1      25.021  21.956  -7.369  0.00  0.00    -0.273 N 
ATOM      4  HN  UNK N   1      24.095  22.194  -7.011  1.00  0.00     0.189 HD
HETATM    5  C   UNK N   1      25.328  20.950  -8.228  0.00  0.00     0.215 A 
HETATM    6  C   UNK N   1      27.134  21.939  -7.745  0.00  0.00     0.707 A 
HETATM    7  N   UNK N   1      26.664  20.917  -8.480  0.00  0.00    -0.184 N 
ATOM      8  HN  UNK N   1      27.182  20.275  -9.079  1.00  0.00     0.185 HD
HETATM    9  N   UNK N   1      28.439  22.258  -7.559  0.00  0.00    -0.175 N 
ATOM     10  HN  UNK N   1      29.177  21.762  -8.060  1.00  0.00     0.186 HD
HETATM   11  C   UNK N   1      28.738  23.265  -6.682  0.00  0.00     0.120 A 
HETATM   12  C   UNK N   1      27.711  23.966  -6.050  0.00  0.00     0.099 A 
ENDROOT
BRANCH   1  13
HETATM   13  N   UNK N   1      25.419  24.218  -5.432  0.00  0.00    -0.340 N 
HETATM   14  H   UNK N   1      24.597  23.715  -5.230  0.00  0.00     0.167 HD
BRANCH  13  15
HETATM   15  C   UNK N   1      25.562  25.504  -4.909  0.00  0.00     0.033 A 
HETATM   16  C   UNK N   1      26.312  25.689  -3.752  0.00  0.00     0.031 A 
HETATM   17  C   UNK N   1      26.580  26.967  -3.305  0.00  0.00     0.027 A 
HETATM   18  C   UNK N   1      26.103  28.101  -4.033  0.00  0.00     0.079 A 
HETATM   19  C   UNK N   1      25.291  27.884  -5.158  0.00  0.00     0.027 A 
HETATM   20  C   UNK N   1      25.016  26.589  -5.591  0.00  0.00     0.031 A 
BRANCH  18  21
HETATM   21  S   UNK N   1      26.537  29.849  -3.634  0.00  0.00     0.256 S 
HETATM   22  O   UNK N   1      28.021  30.234  -3.575  0.00  0.00    -0.201 OA
HETATM   23  O   UNK N   1      27.038  28.993  -2.461  0.00  0.00    -0.201 OA
BRANCH  21  24
HETATM   24  N   UNK N   1      27.242  29.356  -5.185  0.00  0.00    -0.324 N 
HETATM   25  H   UNK N   1      27.067  29.857  -6.057  0.00  0.00     0.169 HD
HETATM   26  H   UNK N   1      27.848  28.535  -5.208  0.00  0.00     0.169 HD
ENDBRANCH  21  24
ENDBRANCH  18  21
ENDBRANCH  13  15
ENDBRANCH   1  13
BRANCH  11  27
HETATM   27  N   UNK N   1      30.053  23.388  -6.175  0.00  0.00    -0.371 N 
HETATM   28  H   UNK N   1      30.772  23.653  -6.794  0.00  0.00     0.161 HD
BRANCH  27  29
HETATM   29  C   UNK N   1      30.395  23.140  -4.767  0.00  0.00     0.083 C 
HETATM   30  C   UNK N   1      30.086  21.684  -4.396  0.00  0.00     0.027 C 
HETATM   31  C   UNK N   1      30.985  21.197  -3.257  0.00  0.00     0.026 C 
HETATM   32  C   UNK N   1      32.431  21.130  -3.766  0.00  0.00     0.074 C 
HETATM   33  C   UNK N   1      32.857  22.417  -4.477  0.00  0.00     0.026 C 
HETATM   34  C   UNK N   1      31.831  23.556  -4.322  0.00  0.00     0.027 C 
BRANCH  32  35
HETATM   35  N   UNK N   1      33.335  20.879  -2.660  0.00  0.00    -0.426 N 
HETATM   36  H   UNK N   1      33.289  20.086  -2.020  0.00  0.00     0.150 HD
HETATM   37  H   UNK N   1      34.083  21.555  -2.509  0.00  0.00     0.150 HD
ENDBRANCH  32  35
ENDBRANCH  27  29
ENDBRANCH  11  27
TORSDOF 7
ENDMDL
