MODEL 1
REMARK VINA RESULT:      -7.8      0.000      0.000
REMARK  6 active torsions:
REMARK  status: ('A' for Active; 'I' for Inactive)
REMARK    1  A    between atoms: N_1  and  S_2 
REMARK    2  A    between atoms: S_2  and  C_5 
REMARK    3  A    between atoms: C_10  and  N_11 
REMARK    4  A    between atoms: N_11  and  C_12 
REMARK    5  A    between atoms: C_23  and  O_24 
REMARK    6  A    between atoms: O_24  and  C_25 
ROOT
HETATM    1  C   UNK N   1      27.456  18.779   5.902  0.00  0.00     0.150 A 
HETATM    2  N   UNK N   1      27.997  18.413   7.099  0.00  0.00    -0.069 N 
HETATM    3  C   UNK N   1      29.006  17.538   7.171  0.00  0.00     0.708 A 
HETATM    4  N   UNK N   1      29.557  16.968   6.060  0.00  0.00    -0.168 N 
ATOM      5  HN  UNK N   1      30.338  16.316   6.135  1.00  0.00     0.186 HD
HETATM    6  N   UNK N   1      29.381  17.327   8.443  0.00  0.00    -0.184 N 
ATOM      7  HN  UNK N   1      30.122  16.720   8.795  1.00  0.00     0.185 HD
HETATM    8  C   UNK N   1      28.530  18.119   9.150  0.00  0.00     0.215 A 
HETATM    9  N   UNK N   1      27.681  18.780   8.321  0.00  0.00    -0.273 N 
ATOM     10  HN  UNK N   1      26.943  19.430   8.593  1.00  0.00     0.189 HD
HETATM   11  C   UNK N   1      27.952  18.194   4.778  0.00  0.00     0.107 A 
HETATM   12  C   UNK N   1      29.027  17.299   4.840  0.00  0.00     0.161 A 
ENDROOT
BRANCH   1  13
HETATM   13  N   UNK N   1      26.415  19.714   5.710  0.00  0.00    -0.340 N 
HETATM   14  H   UNK N   1      26.464  20.520   6.274  0.00  0.00     0.167 HD
BRANCH  13  15
HETATM   15  C   UNK N   1      25.321  19.662   4.835  0.00  0.00     0.033 A 
HETATM   16  C   UNK N   1      24.340  18.721   5.107  0.00  0.00     0.031 A 
HETATM   17  C   UNK N   1      23.164  18.721   4.385  0.00  0.00     0.027 A 
HETATM   18  C   UNK N   1      22.966  19.655   3.369  0.00  0.00     0.079 A 
HETATM   19  C   UNK N   1      23.997  20.538   3.010  0.00  0.00     0.027 A 
HETATM   20  C   UNK N   1      25.185  20.529   3.742  0.00  0.00     0.031 A 
BRANCH  18  21
HETATM   21  S   UNK N   1      21.299  19.836   2.766  0.00  0.00     0.256 S 
HETATM   22  O   UNK N   1      20.361  20.455   3.812  0.00  0.00    -0.201 OA
HETATM   23  O   UNK N   1      21.869  21.261   2.633  0.00  0.00    -0.201 OA
BRANCH  21  24
HETATM   24  N   UNK N   1      20.672  20.258   1.174  0.00  0.00    -0.324 N 
HETATM   25  H   UNK N   1      21.180  20.891   0.554  0.00  0.00     0.169 HD
HETATM   26  H   UNK N   1      19.785  19.862   0.865  0.00  0.00     0.169 HD
ENDBRANCH  21  24
ENDBRANCH  18  21
ENDBRANCH  13  15
ENDBRANCH   1  13
BRANCH  12  27
HETATM   27  O   UNK N   1      29.537  16.814   3.672  0.00  0.00    -0.330 OA
BRANCH  27  28
HETATM   28  C   UNK N   1      30.812  16.254   3.682  0.00  0.00     0.130 C 
HETATM   29  C   UNK N   1      31.884  16.987   2.909  0.00  0.00     0.032 C 
HETATM   30  C   UNK N   1      33.233  16.397   3.353  0.00  0.00     0.002 C 
HETATM   31  C   UNK N   1      33.297  14.868   3.185  0.00  0.00     0.000 C 
HETATM   32  C   UNK N   1      32.101  14.169   3.829  0.00  0.00     0.002 C 
HETATM   33  C   UNK N   1      30.822  14.775   3.279  0.00  0.00     0.032 C 
ENDBRANCH  27  28
ENDBRANCH  12  27
TORSDOF 6
ENDMDL
MODEL 2
REMARK VINA RESULT:      -7.8      4.726      7.474
REMARK  6 active torsions:
REMARK  status: ('A' for Active; 'I' for Inactive)
REMARK    1  A    between atoms: N_1  and  S_2 
REMARK    2  A    between atoms: S_2  and  C_5 
REMARK    3  A    between atoms: C_10  and  N_11 
REMARK    4  A    between atoms: N_11  and  C_12 
REMARK    5  A    between atoms: C_23  and  O_24 
REMARK    6  A    between atoms: O_24  and  C_25 
ROOT
HETATM    1  C   UNK N   1      22.637  18.013   3.864  0.00  0.00     0.150 A 
HETATM    2  N   UNK N   1      21.703  18.834   3.304  0.00  0.00    -0.069 N 
HETATM    3  C   UNK N   1      22.016  20.065   2.884  0.00  0.00     0.708 A 
HETATM    4  N   UNK N   1      23.280  20.569   2.983  0.00  0.00    -0.168 N 
ATOM      5  HN  UNK N   1      23.503  21.504   2.641  1.00  0.00     0.186 HD
HETATM    6  N   UNK N   1      20.947  20.693   2.367  0.00  0.00    -0.184 N 
ATOM      7  HN  UNK N   1      20.892  21.630   1.968  1.00  0.00     0.185 HD
HETATM    8  C   UNK N   1      19.953  19.774   2.506  0.00  0.00     0.215 A 
HETATM    9  N   UNK N   1      20.421  18.638   3.085  0.00  0.00    -0.273 N 
ATOM     10  HN  UNK N   1      19.885  17.799   3.307  1.00  0.00     0.189 HD
HETATM   11  C   UNK N   1      23.897  18.502   4.018  0.00  0.00     0.107 A 
HETATM   12  C   UNK N   1      24.243  19.778   3.556  0.00  0.00     0.161 A 
ENDROOT
BRANCH   1  13
HETATM   13  N   UNK N   1      22.423  16.690   4.309  0.00  0.00    -0.340 N 
HETATM   14  H   UNK N   1      22.413  16.005   3.602  0.00  0.00     0.167 HD
BRANCH  13  15
HETATM   15  C   UNK N   1      22.220  16.211   5.611  0.00  0.00     0.033 A 
HETATM   16  C   UNK N   1      21.287  16.879   6.391  0.00  0.00     0.031 A 
HETATM   17  C   UNK N   1      20.922  16.367   7.619  0.00  0.00     0.027 A 
HETATM   18  C   UNK N   1      21.500  15.188   8.087  0.00  0.00     0.079 A 
HETATM   19  C   UNK N   1      22.526  14.566   7.358  0.00  0.00     0.027 A 
HETATM   20  C   UNK N   1      22.893  15.091   6.118  0.00  0.00     0.031 A 
BRANCH  18  21
HETATM   21  S   UNK N   1      20.701  14.402   9.472  0.00  0.00     0.256 S 
HETATM   22  O   UNK N   1      19.185  14.646   9.490  0.00  0.00    -0.201 OA
HETATM   23  O   UNK N   1      20.395  13.441   8.308  0.00  0.00    -0.201 OA
BRANCH  21  24
HETATM   24  N   UNK N   1      21.001  12.861  10.273  0.00  0.00    -0.324 N 
HETATM   25  H   UNK N   1      21.938  12.462  10.322  0.00  0.00     0.169 HD
HETATM   26  H   UNK N   1      20.221  12.359  10.699  0.00  0.00     0.169 HD
ENDBRANCH  21  24
ENDBRANCH  18  21
ENDBRANCH  13  15
ENDBRANCH   1  13
BRANCH  12  27
HETATM   27  O   UNK N   1      25.543  20.177   3.660  0.00  0.00    -0.330 OA
BRANCH  27  28
HETATM   28  C   UNK N   1      26.229  19.915   4.843  0.00  0.00     0.130 C 
HETATM   29  C   UNK N   1      26.567  21.105   5.712  0.00  0.00     0.032 C 
HETATM   30  C   UNK N   1      26.985  20.548   7.083  0.00  0.00     0.002 C 
HETATM   31  C   UNK N   1      28.127  19.520   6.984  0.00  0.00     0.000 C 
HETATM   32  C   UNK N   1      27.827  18.425   5.963  0.00  0.00     0.002 C 
HETATM   33  C   UNK N   1      27.491  19.071   4.631  0.00  0.00     0.032 C 
ENDBRANCH  27  28
ENDBRANCH  12  27
TORSDOF 6
ENDMDL
MODEL 3
REMARK VINA RESULT:      -7.7      2.394      3.551
REMARK  6 active torsions:
REMARK  status: ('A' for Active; 'I' for Inactive)
REMARK    1  A    between atoms: N_1  and  S_2 
REMARK    2  A    between atoms: S_2  and  C_5 
REMARK    3  A    between atoms: C_10  and  N_11 
REMARK    4  A    between atoms: N_11  and  C_12 
REMARK    5  A    between atoms: C_23  and  O_24 
REMARK    6  A    between atoms: O_24  and  C_25 
ROOT
HETATM    1  C   UNK N   1      27.685  17.568   4.210  0.00  0.00     0.150 A 
HETATM    2  N   UNK N   1      27.565  16.348   3.610  0.00  0.00    -0.069 N 
HETATM    3  C   UNK N   1      28.187  15.267   4.096  0.00  0.00     0.708 A 
HETATM    4  N   UNK N   1      28.965  15.316   5.215  0.00  0.00    -0.168 N 
ATOM      5  HN  UNK N   1      29.417  14.476   5.580  1.00  0.00     0.186 HD
HETATM    6  N   UNK N   1      27.928  14.179   3.352  0.00  0.00    -0.184 N 
ATOM      7  HN  UNK N   1      28.259  13.224   3.488  1.00  0.00     0.185 HD
HETATM    8  C   UNK N   1      27.118  14.662   2.371  0.00  0.00     0.215 A 
HETATM    9  N   UNK N   1      26.902  15.993   2.532  0.00  0.00    -0.273 N 
ATOM     10  HN  UNK N   1      26.338  16.598   1.934  1.00  0.00     0.189 HD
HETATM   11  C   UNK N   1      28.491  17.659   5.302  0.00  0.00     0.107 A 
HETATM   12  C   UNK N   1      29.122  16.529   5.835  0.00  0.00     0.161 A 
ENDROOT
BRANCH   1  13
HETATM   13  N   UNK N   1      27.049  18.761   3.802  0.00  0.00    -0.340 N 
HETATM   14  H   UNK N   1      27.651  19.468   3.475  0.00  0.00     0.167 HD
BRANCH  13  15
HETATM   15  C   UNK N   1      25.686  19.086   3.797  0.00  0.00     0.033 A 
HETATM   16  C   UNK N   1      25.310  20.219   3.089  0.00  0.00     0.031 A 
HETATM   17  C   UNK N   1      23.974  20.507   2.907  0.00  0.00     0.027 A 
HETATM   18  C   UNK N   1      22.997  19.673   3.448  0.00  0.00     0.079 A 
HETATM   19  C   UNK N   1      23.364  18.588   4.261  0.00  0.00     0.027 A 
HETATM   20  C   UNK N   1      24.718  18.305   4.443  0.00  0.00     0.031 A 
BRANCH  18  21
HETATM   21  S   UNK N   1      21.335  19.894   2.845  0.00  0.00     0.256 S 
HETATM   22  O   UNK N   1      20.419  20.564   3.879  0.00  0.00    -0.201 OA
HETATM   23  O   UNK N   1      21.949  21.296   2.680  0.00  0.00    -0.201 OA
BRANCH  21  24
HETATM   24  N   UNK N   1      20.718  20.301   1.245  0.00  0.00    -0.324 N 
HETATM   25  H   UNK N   1      21.093  19.861   0.403  0.00  0.00     0.169 HD
HETATM   26  H   UNK N   1      19.970  20.989   1.158  0.00  0.00     0.169 HD
ENDBRANCH  21  24
ENDBRANCH  18  21
ENDBRANCH  13  15
ENDBRANCH   1  13
BRANCH  12  27
HETATM   27  O   UNK N   1      29.846  16.668   6.982  0.00  0.00    -0.330 OA
BRANCH  27  28
HETATM   28  C   UNK N   1      31.150  17.150   6.894  0.00  0.00     0.130 C 
HETATM   29  C   UNK N   1      32.028  16.547   5.822  0.00  0.00     0.032 C 
HETATM   30  C   UNK N   1      33.258  17.461   5.689  0.00  0.00     0.002 C 
HETATM   31  C   UNK N   1      33.988  17.673   7.029  0.00  0.00     0.000 C 
HETATM   32  C   UNK N   1      33.035  18.113   8.138  0.00  0.00     0.002 C 
HETATM   33  C   UNK N   1      31.895  17.116   8.234  0.00  0.00     0.032 C 
ENDBRANCH  27  28
ENDBRANCH  12  27
TORSDOF 6
ENDMDL
MODEL 4
REMARK VINA RESULT:      -7.6      8.798     11.996
REMARK  6 active torsions:
REMARK  status: ('A' for Active; 'I' for Inactive)
REMARK    1  A    between atoms: N_1  and  S_2 
REMARK    2  A    between atoms: S_2  and  C_5 
REMARK    3  A    between atoms: C_10  and  N_11 
REMARK    4  A    between atoms: N_11  and  C_12 
REMARK    5  A    between atoms: C_23  and  O_24 
REMARK    6  A    between atoms: O_24  and  C_25 
ROOT
HETATM    1  C   UNK N   1      35.801  14.809  11.217  0.00  0.00     0.150 A 
HETATM    2  N   UNK N   1      36.962  14.139  10.964  0.00  0.00    -0.069 N 
HETATM    3  C   UNK N   1      37.252  12.989  11.582  0.00  0.00     0.708 A 
HETATM    4  N   UNK N   1      36.410  12.416  12.490  0.00  0.00    -0.168 N 
ATOM      5  HN  UNK N   1      36.642  11.529  12.937  1.00  0.00     0.186 HD
HETATM    6  N   UNK N   1      38.440  12.504  11.182  0.00  0.00    -0.184 N 
ATOM      7  HN  UNK N   1      38.909  11.648  11.476  1.00  0.00     0.185 HD
HETATM    8  C   UNK N   1      38.866  13.437  10.287  0.00  0.00     0.215 A 
HETATM    9  N   UNK N   1      37.958  14.439  10.160  0.00  0.00    -0.273 N 
ATOM     10  HN  UNK N   1      38.034  15.261   9.562  1.00  0.00     0.189 HD
HETATM   11  C   UNK N   1      34.960  14.288  12.150  0.00  0.00     0.107 A 
HETATM   12  C   UNK N   1      35.241  13.070  12.781  0.00  0.00     0.161 A 
ENDROOT
BRANCH   1  13
HETATM   13  N   UNK N   1      35.382  16.008  10.600  0.00  0.00    -0.340 N 
HETATM   14  H   UNK N   1      35.384  16.804  11.180  0.00  0.00     0.167 HD
BRANCH  13  15
HETATM   15  C   UNK N   1      34.962  16.231   9.281  0.00  0.00     0.033 A 
HETATM   16  C   UNK N   1      34.757  15.112   8.487  0.00  0.00     0.031 A 
HETATM   17  C   UNK N   1      34.193  15.249   7.235  0.00  0.00     0.027 A 
HETATM   18  C   UNK N   1      33.843  16.511   6.758  0.00  0.00     0.079 A 
HETATM   19  C   UNK N   1      34.149  17.659   7.506  0.00  0.00     0.027 A 
HETATM   20  C   UNK N   1      34.724  17.514   8.769  0.00  0.00     0.031 A 
BRANCH  18  21
HETATM   21  S   UNK N   1      32.780  16.557   5.329  0.00  0.00     0.256 S 
HETATM   22  O   UNK N   1      31.533  17.424   5.553  0.00  0.00    -0.201 OA
HETATM   23  O   UNK N   1      33.530  17.899   5.241  0.00  0.00    -0.201 OA
BRANCH  21  24
HETATM   24  N   UNK N   1      33.141  16.582   3.604  0.00  0.00    -0.324 N 
HETATM   25  H   UNK N   1      32.753  17.299   2.991  0.00  0.00     0.169 HD
HETATM   26  H   UNK N   1      33.752  15.866   3.211  0.00  0.00     0.169 HD
ENDBRANCH  21  24
ENDBRANCH  18  21
ENDBRANCH  13  15
ENDBRANCH   1  13
BRANCH  12  27
HETATM   27  O   UNK N   1      34.318  12.556  13.643  0.00  0.00    -0.330 OA
BRANCH  27  28
HETATM   28  C   UNK N   1      34.759  12.005  14.844  0.00  0.00     0.130 C 
HETATM   29  C   UNK N   1      34.249  10.624  15.187  0.00  0.00     0.032 C 
HETATM   30  C   UNK N   1      35.128  10.100  16.336  0.00  0.00     0.002 C 
HETATM   31  C   UNK N   1      35.161  11.057  17.542  0.00  0.00     0.000 C 
HETATM   32  C   UNK N   1      35.507  12.486  17.132  0.00  0.00     0.002 C 
HETATM   33  C   UNK N   1      34.547  12.934  16.044  0.00  0.00     0.032 C 
ENDBRANCH  27  28
ENDBRANCH  12  27
TORSDOF 6
ENDMDL
MODEL 5
REMARK VINA RESULT:      -7.6      5.399      9.798
REMARK  6 active torsions:
REMARK  status: ('A' for Active; 'I' for Inactive)
REMARK    1  A    between atoms: N_1  and  S_2 
REMARK    2  A    between atoms: S_2  and  C_5 
REMARK    3  A    between atoms: C_10  and  N_11 
REMARK    4  A    between atoms: N_11  and  C_12 
REMARK    5  A    between atoms: C_23  and  O_24 
REMARK    6  A    between atoms: O_24  and  C_25 
ROOT
HETATM    1  C   UNK N   1      30.550  17.295   7.010  0.00  0.00     0.150 A 
HETATM    2  N   UNK N   1      29.925  17.772   8.124  0.00  0.00    -0.069 N 
HETATM    3  C   UNK N   1      28.630  18.108   8.109  0.00  0.00     0.708 A 
HETATM    4  N   UNK N   1      27.859  17.989   6.989  0.00  0.00    -0.168 N 
ATOM      5  HN  UNK N   1      26.869  18.234   7.003  1.00  0.00     0.186 HD
HETATM    6  N   UNK N   1      28.225  18.549   9.311  0.00  0.00    -0.184 N 
ATOM      7  HN  UNK N   1      27.297  18.865   9.592  1.00  0.00     0.185 HD
HETATM    8  C   UNK N   1      29.356  18.474  10.064  0.00  0.00     0.215 A 
HETATM    9  N   UNK N   1      30.396  18.001   9.330  0.00  0.00    -0.273 N 
ATOM     10  HN  UNK N   1      31.354  17.853   9.650  1.00  0.00     0.189 HD
HETATM   11  C   UNK N   1      29.821  17.207   5.865  0.00  0.00     0.107 A 
HETATM   12  C   UNK N   1      28.458  17.528   5.845  0.00  0.00     0.161 A 
ENDROOT
BRANCH   1  13
HETATM   13  N   UNK N   1      31.897  16.881   6.924  0.00  0.00    -0.340 N 
HETATM   14  H   UNK N   1      32.248  16.775   6.010  0.00  0.00     0.167 HD
BRANCH  13  15
HETATM   15  C   UNK N   1      32.808  16.598   7.951  0.00  0.00     0.033 A 
HETATM   16  C   UNK N   1      32.680  15.372   8.588  0.00  0.00     0.031 A 
HETATM   17  C   UNK N   1      33.637  14.963   9.494  0.00  0.00     0.027 A 
HETATM   18  C   UNK N   1      34.725  15.785   9.785  0.00  0.00     0.079 A 
HETATM   19  C   UNK N   1      34.805  17.073   9.233  0.00  0.00     0.027 A 
HETATM   20  C   UNK N   1      33.832  17.483   8.320  0.00  0.00     0.031 A 
BRANCH  18  21
HETATM   21  S   UNK N   1      36.089  15.029  10.646  0.00  0.00     0.256 S 
HETATM   22  O   UNK N   1      37.366  14.982   9.795  0.00  0.00    -0.201 OA
HETATM   23  O   UNK N   1      36.393  16.533  10.776  0.00  0.00    -0.201 OA
BRANCH  21  24
HETATM   24  N   UNK N   1      36.579  15.086  12.338  0.00  0.00    -0.324 N 
HETATM   25  H   UNK N   1      37.489  15.457  12.615  0.00  0.00     0.169 HD
HETATM   26  H   UNK N   1      35.940  14.743  13.055  0.00  0.00     0.169 HD
ENDBRANCH  21  24
ENDBRANCH  18  21
ENDBRANCH  13  15
ENDBRANCH   1  13
BRANCH  12  27
HETATM   27  O   UNK N   1      27.761  17.336   4.689  0.00  0.00    -0.330 OA
BRANCH  27  28
HETATM   28  C   UNK N   1      26.730  18.219   4.376  0.00  0.00     0.130 C 
HETATM   29  C   UNK N   1      25.568  17.658   3.590  0.00  0.00     0.032 C 
HETATM   30  C   UNK N   1      24.432  18.691   3.678  0.00  0.00     0.002 C 
HETATM   31  C   UNK N   1      24.867  20.093   3.210  0.00  0.00     0.000 C 
HETATM   32  C   UNK N   1      26.148  20.556   3.899  0.00  0.00     0.002 C 
HETATM   33  C   UNK N   1      27.224  19.503   3.699  0.00  0.00     0.032 C 
ENDBRANCH  27  28
ENDBRANCH  12  27
TORSDOF 6
ENDMDL
MODEL 6
REMARK VINA RESULT:      -7.5      4.203      6.300
REMARK  6 active torsions:
REMARK  status: ('A' for Active; 'I' for Inactive)
REMARK    1  A    between atoms: N_1  and  S_2 
REMARK    2  A    between atoms: S_2  and  C_5 
REMARK    3  A    between atoms: C_10  and  N_11 
REMARK    4  A    between atoms: N_11  and  C_12 
REMARK    5  A    between atoms: C_23  and  O_24 
REMARK    6  A    between atoms: O_24  and  C_25 
ROOT
HETATM    1  C   UNK N   1      32.775  15.975   9.031  0.00  0.00     0.150 A 
HETATM    2  N   UNK N   1      33.686  15.333   9.818  0.00  0.00    -0.069 N 
HETATM    3  C   UNK N   1      34.885  14.972   9.347  0.00  0.00     0.708 A 
HETATM    4  N   UNK N   1      35.272  15.229   8.065  0.00  0.00    -0.168 N 
ATOM      5  HN  UNK N   1      36.198  14.961   7.730  1.00  0.00     0.186 HD
HETATM    6  N   UNK N   1      35.617  14.358  10.292  0.00  0.00    -0.184 N 
ATOM      7  HN  UNK N   1      36.563  13.985  10.219  1.00  0.00     0.185 HD
HETATM    8  C   UNK N   1      34.786  14.353  11.370  0.00  0.00     0.215 A 
HETATM    9  N   UNK N   1      33.602  14.948  11.072  0.00  0.00    -0.273 N 
ATOM     10  HN  UNK N   1      32.805  15.071  11.698  1.00  0.00     0.189 HD
HETATM   11  C   UNK N   1      33.113  16.205   7.733  0.00  0.00     0.107 A 
HETATM   12  C   UNK N   1      34.376  15.858   7.239  0.00  0.00     0.161 A 
ENDROOT
BRANCH   1  13
HETATM   13  N   UNK N   1      31.500  16.427   9.433  0.00  0.00    -0.340 N 
HETATM   14  H   UNK N   1      31.301  16.329  10.392  0.00  0.00     0.167 HD
BRANCH  13  15
HETATM   15  C   UNK N   1      30.474  16.995   8.664  0.00  0.00     0.033 A 
HETATM   16  C   UNK N   1      29.674  17.944   9.284  0.00  0.00     0.031 A 
HETATM   17  C   UNK N   1      28.752  18.658   8.545  0.00  0.00     0.027 A 
HETATM   18  C   UNK N   1      28.609  18.415   7.180  0.00  0.00     0.079 A 
HETATM   19  C   UNK N   1      29.332  17.379   6.567  0.00  0.00     0.027 A 
HETATM   20  C   UNK N   1      30.260  16.659   7.320  0.00  0.00     0.031 A 
BRANCH  18  21
HETATM   21  S   UNK N   1      27.699  19.628   6.245  0.00  0.00     0.256 S 
HETATM   22  O   UNK N   1      28.207  19.759   4.802  0.00  0.00    -0.201 OA
HETATM   23  O   UNK N   1      27.090  18.297   5.765  0.00  0.00    -0.201 OA
BRANCH  21  24
HETATM   24  N   UNK N   1      25.992  20.065   6.249  0.00  0.00    -0.324 N 
HETATM   25  H   UNK N   1      25.594  20.658   5.519  0.00  0.00     0.169 HD
HETATM   26  H   UNK N   1      25.389  19.719   6.995  0.00  0.00     0.169 HD
ENDBRANCH  21  24
ENDBRANCH  18  21
ENDBRANCH  13  15
ENDBRANCH   1  13
BRANCH  12  27
HETATM   27  O   UNK N   1      34.687  16.194   5.954  0.00  0.00    -0.330 OA
BRANCH  27  28
HETATM   28  C   UNK N   1      33.660  16.269   5.016  0.00  0.00     0.130 C 
HETATM   29  C   UNK N   1      33.785  15.385   3.797  0.00  0.00     0.032 C 
HETATM   30  C   UNK N   1      32.407  15.374   3.113  0.00  0.00     0.002 C 
HETATM   31  C   UNK N   1      31.893  16.790   2.792  0.00  0.00     0.000 C 
HETATM   32  C   UNK N   1      31.946  17.710   4.009  0.00  0.00     0.002 C 
HETATM   33  C   UNK N   1      33.357  17.704   4.571  0.00  0.00     0.032 C 
ENDBRANCH  27  28
ENDBRANCH  12  27
TORSDOF 6
ENDMDL
MODEL 7
REMARK VINA RESULT:      -7.2     11.144     14.314
REMARK  6 active torsions:
REMARK  status: ('A' for Active; 'I' for Inactive)
REMARK    1  A    between atoms: N_1  and  S_2 
REMARK    2  A    between atoms: S_2  and  C_5 
REMARK    3  A    between atoms: C_10  and  N_11 
REMARK    4  A    between atoms: N_11  and  C_12 
REMARK    5  A    between atoms: C_23  and  O_24 
REMARK    6  A    between atoms: O_24  and  C_25 
ROOT
HETATM    1  C   UNK N   1      27.919  23.034  -6.327  0.00  0.00     0.150 A 
HETATM    2  N   UNK N   1      26.904  22.426  -7.006  0.00  0.00    -0.069 N 
HETATM    3  C   UNK N   1      25.622  22.651  -6.695  0.00  0.00     0.708 A 
HETATM    4  N   UNK N   1      25.254  23.500  -5.694  0.00  0.00    -0.168 N 
ATOM      5  HN  UNK N   1      24.270  23.672  -5.484  1.00  0.00     0.186 HD
HETATM    6  N   UNK N   1      24.796  21.952  -7.491  0.00  0.00    -0.184 N 
ATOM      7  HN  UNK N   1      23.776  21.933  -7.488  1.00  0.00     0.185 HD
HETATM    8  C   UNK N   1      25.652  21.274  -8.304  0.00  0.00     0.215 A 
HETATM    9  N   UNK N   1      26.943  21.565  -7.999  0.00  0.00    -0.273 N 
ATOM     10  HN  UNK N   1      27.777  21.189  -8.450  1.00  0.00     0.189 HD
HETATM   11  C   UNK N   1      27.586  23.852  -5.293  0.00  0.00     0.107 A 
HETATM   12  C   UNK N   1      26.248  24.117  -4.978  0.00  0.00     0.161 A 
ENDROOT
BRANCH   1  13
HETATM   13  N   UNK N   1      29.299  22.894  -6.592  0.00  0.00    -0.340 N 
HETATM   14  H   UNK N   1      29.584  23.164  -7.495  0.00  0.00     0.167 HD
BRANCH  13  15
HETATM   15  C   UNK N   1      30.322  22.425  -5.757  0.00  0.00     0.033 A 
HETATM   16  C   UNK N   1      30.256  21.096  -5.364  0.00  0.00     0.031 A 
HETATM   17  C   UNK N   1      31.309  20.526  -4.677  0.00  0.00     0.027 A 
HETATM   18  C   UNK N   1      32.433  21.287  -4.362  0.00  0.00     0.079 A 
HETATM   19  C   UNK N   1      32.463  22.660  -4.655  0.00  0.00     0.027 A 
HETATM   20  C   UNK N   1      31.393  23.230  -5.346  0.00  0.00     0.031 A 
BRANCH  18  21
HETATM   21  S   UNK N   1      33.881  20.392  -3.836  0.00  0.00     0.256 S 
HETATM   22  O   UNK N   1      33.749  18.879  -4.062  0.00  0.00    -0.201 OA
HETATM   23  O   UNK N   1      34.060  20.467  -5.364  0.00  0.00    -0.201 OA
BRANCH  21  24
HETATM   24  N   UNK N   1      35.595  20.794  -3.914  0.00  0.00    -0.324 N 
HETATM   25  H   UNK N   1      36.187  20.451  -4.671  0.00  0.00     0.169 HD
HETATM   26  H   UNK N   1      36.004  21.381  -3.187  0.00  0.00     0.169 HD
ENDBRANCH  21  24
ENDBRANCH  18  21
ENDBRANCH  13  15
ENDBRANCH   1  13
BRANCH  12  27
HETATM   27  O   UNK N   1      25.977  25.014  -3.987  0.00  0.00    -0.330 OA
BRANCH  27  28
HETATM   28  C   UNK N   1      26.382  26.337  -4.155  0.00  0.00     0.130 C 
HETATM   29  C   UNK N   1      26.164  27.268  -2.985  0.00  0.00     0.032 C 
HETATM   30  C   UNK N   1      26.991  28.534  -3.266  0.00  0.00     0.002 C 
HETATM   31  C   UNK N   1      26.655  29.173  -4.627  0.00  0.00     0.000 C 
HETATM   32  C   UNK N   1      26.713  28.158  -5.767  0.00  0.00     0.002 C 
HETATM   33  C   UNK N   1      25.817  26.981  -5.425  0.00  0.00     0.032 C 
ENDBRANCH  27  28
ENDBRANCH  12  27
TORSDOF 6
ENDMDL
MODEL 8
REMARK VINA RESULT:      -7.1      9.158     12.195
REMARK  6 active torsions:
REMARK  status: ('A' for Active; 'I' for Inactive)
REMARK    1  A    between atoms: N_1  and  S_2 
REMARK    2  A    between atoms: S_2  and  C_5 
REMARK    3  A    between atoms: C_10  and  N_11 
REMARK    4  A    between atoms: N_11  and  C_12 
REMARK    5  A    between atoms: C_23  and  O_24 
REMARK    6  A    between atoms: O_24  and  C_25 
ROOT
HETATM    1  C   UNK N   1      36.175  13.648  12.675  0.00  0.00     0.150 A 
HETATM    2  N   UNK N   1      36.397  14.006  13.972  0.00  0.00    -0.069 N 
HETATM    3  C   UNK N   1      35.820  13.350  14.986  0.00  0.00     0.708 A 
HETATM    4  N   UNK N   1      34.988  12.288  14.787  0.00  0.00    -0.168 N 
ATOM      5  HN  UNK N   1      34.572  11.790  15.574  1.00  0.00     0.186 HD
HETATM    6  N   UNK N   1      36.179  13.869  16.172  0.00  0.00    -0.184 N 
ATOM      7  HN  UNK N   1      35.901  13.570  17.106  1.00  0.00     0.185 HD
HETATM    8  C   UNK N   1      37.004  14.893  15.822  0.00  0.00     0.215 A 
HETATM    9  N   UNK N   1      37.131  14.975  14.472  0.00  0.00    -0.273 N 
ATOM     10  HN  UNK N   1      37.684  15.655  13.950  1.00  0.00     0.189 HD
HETATM   11  C   UNK N   1      35.314  12.622  12.440  0.00  0.00     0.107 A 
HETATM   12  C   UNK N   1      34.728  11.910  13.494  0.00  0.00     0.161 A 
ENDROOT
BRANCH   1  13
HETATM   13  N   UNK N   1      36.755  14.248  11.536  0.00  0.00    -0.340 N 
HETATM   14  H   UNK N   1      37.710  14.053  11.397  0.00  0.00     0.167 HD
BRANCH  13  15
HETATM   15  C   UNK N   1      36.168  15.081  10.572  0.00  0.00     0.033 A 
HETATM   16  C   UNK N   1      36.039  14.567   9.290  0.00  0.00     0.031 A 
HETATM   17  C   UNK N   1      35.329  15.267   8.335  0.00  0.00     0.027 A 
HETATM   18  C   UNK N   1      34.756  16.498   8.650  0.00  0.00     0.079 A 
HETATM   19  C   UNK N   1      34.977  17.079   9.910  0.00  0.00     0.027 A 
HETATM   20  C   UNK N   1      35.699  16.368  10.869  0.00  0.00     0.031 A 
BRANCH  18  21
HETATM   21  S   UNK N   1      33.550  17.134   7.504  0.00  0.00     0.256 S 
HETATM   22  O   UNK N   1      32.679  18.238   8.120  0.00  0.00    -0.201 OA
HETATM   23  O   UNK N   1      34.652  18.209   7.472  0.00  0.00    -0.201 OA
BRANCH  21  24
HETATM   24  N   UNK N   1      33.629  17.426   5.768  0.00  0.00    -0.324 N 
HETATM   25  H   UNK N   1      34.434  17.129   5.215  0.00  0.00     0.169 HD
HETATM   26  H   UNK N   1      32.854  17.901   5.305  0.00  0.00     0.169 HD
ENDBRANCH  21  24
ENDBRANCH  18  21
ENDBRANCH  13  15
ENDBRANCH   1  13
BRANCH  12  27
HETATM   27  O   UNK N   1      33.943  10.835  13.197  0.00  0.00    -0.330 OA
BRANCH  27  28
HETATM   28  C   UNK N   1      34.316  10.007  12.141  0.00  0.00     0.130 C 
HETATM   29  C   UNK N   1      33.258   9.708  11.104  0.00  0.00     0.032 C 
HETATM   30  C   UNK N   1      33.984   9.095   9.894  0.00  0.00     0.002 C 
HETATM   31  C   UNK N   1      34.836   7.869  10.271  0.00  0.00     0.000 C 
HETATM   32  C   UNK N   1      35.771   8.157  11.443  0.00  0.00     0.002 C 
HETATM   33  C   UNK N   1      34.955   8.693  12.605  0.00  0.00     0.032 C 
ENDBRANCH  27  28
ENDBRANCH  12  27
TORSDOF 6
ENDMDL
MODEL 9
REMARK VINA RESULT:      -7.1     10.625     14.501
REMARK  6 active torsions:
REMARK  status: ('A' for Active; 'I' for Inactive)
REMARK    1  A    between atoms: N_1  and  S_2 
REMARK    2  A    between atoms: S_2  and  C_5 
REMARK    3  A    between atoms: C_10  and  N_11 
REMARK    4  A    between atoms: N_11  and  C_12 
REMARK    5  A    between atoms: C_23  and  O_24 
REMARK    6  A    between atoms: O_24  and  C_25 
ROOT
HETATM    1  C   UNK N   1      36.436  14.087  12.266  0.00  0.00     0.150 A 
HETATM    2  N   UNK N   1      37.226  13.605  11.264  0.00  0.00    -0.069 N 
HETATM    3  C   UNK N   1      36.824  13.624   9.988  0.00  0.00     0.708 A 
HETATM    4  N   UNK N   1      35.613  14.127   9.613  0.00  0.00    -0.168 N 
ATOM      5  HN  UNK N   1      35.332  14.148   8.632  1.00  0.00     0.186 HD
HETATM    6  N   UNK N   1      37.757  13.104   9.174  0.00  0.00    -0.184 N 
ATOM      7  HN  UNK N   1      37.726  12.996   8.160  1.00  0.00     0.185 HD
HETATM    8  C   UNK N   1      38.754  12.754  10.031  0.00  0.00     0.215 A 
HETATM    9  N   UNK N   1      38.421  13.060  11.313  0.00  0.00    -0.273 N 
ATOM     10  HN  UNK N   1      38.986  12.898  12.146  1.00  0.00     0.189 HD
HETATM   11  C   UNK N   1      35.203  14.555  11.931  0.00  0.00     0.107 A 
HETATM   12  C   UNK N   1      34.784  14.605  10.596  0.00  0.00     0.161 A 
ENDROOT
BRANCH   1  13
HETATM   13  N   UNK N   1      36.774  14.146  13.636  0.00  0.00    -0.340 N 
HETATM   14  H   UNK N   1      37.223  14.973  13.924  0.00  0.00     0.167 HD
BRANCH  13  15
HETATM   15  C   UNK N   1      36.562  13.198  14.647  0.00  0.00     0.033 A 
HETATM   16  C   UNK N   1      35.669  13.536  15.653  0.00  0.00     0.031 A 
HETATM   17  C   UNK N   1      35.293  12.594  16.587  0.00  0.00     0.027 A 
HETATM   18  C   UNK N   1      35.821  11.305  16.535  0.00  0.00     0.079 A 
HETATM   19  C   UNK N   1      36.810  10.984  15.591  0.00  0.00     0.027 A 
HETATM   20  C   UNK N   1      37.189  11.944  14.651  0.00  0.00     0.031 A 
BRANCH  18  21
HETATM   21  S   UNK N   1      35.000  10.065  17.516  0.00  0.00     0.256 S 
HETATM   22  O   UNK N   1      35.340   8.638  17.063  0.00  0.00    -0.201 OA
HETATM   23  O   UNK N   1      36.426  10.074  18.098  0.00  0.00    -0.201 OA
BRANCH  21  24
HETATM   24  N   UNK N   1      34.618  10.000  19.236  0.00  0.00    -0.324 N 
HETATM   25  H   UNK N   1      35.173  10.513  19.922  0.00  0.00     0.169 HD
HETATM   26  H   UNK N   1      33.827   9.440  19.551  0.00  0.00     0.169 HD
ENDBRANCH  21  24
ENDBRANCH  18  21
ENDBRANCH  13  15
ENDBRANCH   1  13
BRANCH  12  27
HETATM   27  O   UNK N   1      33.574  15.166  10.314  0.00  0.00    -0.330 OA
BRANCH  27  28
HETATM   28  C   UNK N   1      33.418  15.852   9.112  0.00  0.00     0.130 C 
HETATM   29  C   UNK N   1      34.104  17.195   9.002  0.00  0.00     0.032 C 
HETATM   30  C   UNK N   1      34.091  17.578   7.512  0.00  0.00     0.002 C 
HETATM   31  C   UNK N   1      32.674  17.562   6.907  0.00  0.00     0.000 C 
HETATM   32  C   UNK N   1      31.943  16.252   7.191  0.00  0.00     0.002 C 
HETATM   33  C   UNK N   1      31.953  15.997   8.688  0.00  0.00     0.032 C 
ENDBRANCH  27  28
ENDBRANCH  12  27
TORSDOF 6
ENDMDL
