REMARK  6 active torsions:
REMARK  status: ('A' for Active; 'I' for Inactive)
REMARK    1  A    between atoms: N_1  and  S_2 
REMARK    2  A    between atoms: S_2  and  C_5 
REMARK    3  A    between atoms: C_10  and  N_11 
REMARK    4  A    between atoms: N_11  and  C_12 
REMARK    5  A    between atoms: C_23  and  O_24 
REMARK    6  A    between atoms: O_24  and  C_25 
ROOT
HETATM    1  C   UNK N   1      -0.771   0.760   0.204  0.00  0.00     0.150 A 
HETATM    2  N   UNK N   1      -1.855   1.575   0.056  0.00  0.00    -0.069 N 
HETATM    3  C   UNK N   1      -1.717   2.886  -0.171  0.00  0.00     0.708 A 
HETATM    4  N   UNK N   1      -0.495   3.483  -0.275  0.00  0.00    -0.168 N 
ATOM      5  HN  UNK N   1      -0.411   4.482  -0.466  1.00  0.00     0.186 HD
HETATM    6  N   UNK N   1      -2.911   3.491  -0.285  0.00  0.00    -0.184 N 
ATOM      7  HN  UNK N   1      -3.110   4.475  -0.464  1.00  0.00     0.185 HD
HETATM    8  C   UNK N   1      -3.792   2.470  -0.102  0.00  0.00     0.215 A 
HETATM    9  N   UNK N   1      -3.139   1.298   0.111  0.00  0.00    -0.273 N 
ATOM     10  HN  UNK N   1      -3.561   0.385   0.281  1.00  0.00     0.189 HD
HETATM   11  C   UNK N   1       0.462   1.332   0.151  0.00  0.00     0.107 A 
HETATM   12  C   UNK N   1       0.618   2.698  -0.115  0.00  0.00     0.161 A 
ENDROOT
BRANCH   1  13
HETATM   13  N   UNK N   1      -0.802  -0.636   0.413  0.00  0.00    -0.340 N 
HETATM   14  H   UNK N   1      -0.003  -1.015   0.846  0.00  0.00     0.167 HD
BRANCH  13  15
HETATM   15  C   UNK N   1      -1.805  -1.562   0.093  0.00  0.00     0.033 A 
HETATM   16  C   UNK N   1      -1.726  -2.810   0.694  0.00  0.00     0.031 A 
HETATM   17  C   UNK N   1      -2.761  -3.711   0.551  0.00  0.00     0.027 A 
HETATM   18  C   UNK N   1      -3.880  -3.378  -0.211  0.00  0.00     0.079 A 
HETATM   19  C   UNK N   1      -3.920  -2.164  -0.915  0.00  0.00     0.027 A 
HETATM   20  C   UNK N   1      -2.868  -1.259  -0.769  0.00  0.00     0.031 A 
BRANCH  18  21
HETATM   21  S   UNK N   1      -5.313  -4.420  -0.022  0.00  0.00     0.256 S 
HETATM   22  O   UNK N   1      -5.238  -5.298   1.235  0.00  0.00    -0.201 OA
HETATM   23  O   UNK N   1      -5.593  -3.270   0.963  0.00  0.00    -0.201 OA
BRANCH  21  24
HETATM   24  N   UNK N   1      -7.017  -4.138  -0.373  0.00  0.00    -0.324 N 
HETATM   25  H   UNK N   1      -7.369  -3.202  -0.577  0.00  0.00     0.169 HD
HETATM   26  H   UNK N   1      -7.664  -4.926  -0.373  0.00  0.00     0.169 HD
ENDBRANCH  21  24
ENDBRANCH  18  21
ENDBRANCH  13  15
ENDBRANCH   1  13
BRANCH  12  27
HETATM   27  O   UNK N   1       1.881   3.196  -0.243  0.00  0.00    -0.330 OA
BRANCH  27  28
HETATM   28  C   UNK N   1       2.960   2.330  -0.082  0.00  0.00     0.130 C 
HETATM   29  C   UNK N   1       4.332   2.959  -0.003  0.00  0.00     0.032 C 
HETATM   30  C   UNK N   1       5.288   1.874   0.521  0.00  0.00     0.002 C 
HETATM   31  C   UNK N   1       5.252   0.590  -0.329  0.00  0.00     0.000 C 
HETATM   32  C   UNK N   1       3.828   0.079  -0.537  0.00  0.00     0.002 C 
HETATM   33  C   UNK N   1       2.982   1.199  -1.116  0.00  0.00     0.032 C 
ENDBRANCH  27  28
ENDBRANCH  12  27
TORSDOF 6
