MODEL 1
REMARK VINA RESULT:      -8.2      0.000      0.000
REMARK  7 active torsions:
REMARK  status: ('A' for Active; 'I' for Inactive)
REMARK    1  A    between atoms: O_2  and  C_3 
REMARK    2  A    between atoms: C_3  and  C_5 
REMARK       I    between atoms: N_10  and  C_11 
REMARK    3  A    between atoms: C_11  and  C_13 
REMARK    4  A    between atoms: C_18  and  N_19 
REMARK    5  A    between atoms: N_19  and  C_20 
REMARK    6  A    between atoms: C_20  and  C_21 
REMARK       I    between atoms: C_28  and  N_29 
REMARK    7  A    between atoms: C_32  and  N_33 
ROOT
HETATM    1  C   UNK N   1      32.090  15.844   8.735  0.00  0.00     0.178 C 
ENDROOT
BRANCH   1   2
HETATM    2  N   UNK N   1      33.178  16.751   9.023  0.00  0.00    -0.384 N 
HETATM    3  H   UNK N   1      33.033  17.725   9.048  0.00  0.00     0.160 HD
BRANCH   2   4
HETATM    4  C   UNK N   1      34.442  16.204   9.265  0.00  0.00     0.028 A 
HETATM    5  C   UNK N   1      34.908  15.180   8.444  0.00  0.00     0.030 A 
HETATM    6  C   UNK N   1      35.970  14.399   8.858  0.00  0.00     0.019 A 
HETATM    7  C   UNK N   1      36.561  14.603  10.111  0.00  0.00     0.032 A 
HETATM    8  C   UNK N   1      36.126  15.672  10.908  0.00  0.00     0.019 A 
HETATM    9  C   UNK N   1      35.080  16.487  10.474  0.00  0.00     0.030 A 
BRANCH   7  10
HETATM   10  C   UNK N   1      37.342  13.497  10.720  0.00  0.00     0.253 C 
HETATM   11  N   UNK N   1      36.759  12.552  11.520  0.00  0.00    -0.348 N 
HETATM   12  C   UNK N   1      35.324  12.332  11.544  0.00  0.00     0.127 C 
HETATM   13  C   UNK N   1      37.562  11.816  12.469  0.00  0.00     0.127 C 
HETATM   14  C   UNK N   1      34.771  12.331  12.966  0.00  0.00     0.034 C 
HETATM   15  C   UNK N   1      35.763  12.951  13.943  0.00  0.00     0.088 C 
HETATM   16  C   UNK N   1      37.125  12.214  13.902  0.00  0.00     0.034 C 
HETATM   17  O   UNK N   1      38.561  13.530  10.615  0.00  0.00    -0.267 OA
BRANCH  15  18
HETATM   18  C   UNK N   1      35.160  12.996  15.322  0.00  0.00     0.262 C 
HETATM   19  O   UNK N   1      33.977  12.734  15.454  0.00  0.00    -0.265 OA
BRANCH  18  20
HETATM   20  O   UNK N   1      35.897  13.284  16.427  0.00  0.00    -0.326 OA
HETATM   21  C   UNK N   1      35.370  13.834  17.573  0.00  0.00     0.213 C 
ENDBRANCH  18  20
ENDBRANCH  15  18
ENDBRANCH   7  10
ENDBRANCH   2   4
ENDBRANCH   1   2
BRANCH   1  22
HETATM   22  C   UNK N   1      31.188  16.457   7.756  0.00  0.00     0.043 A 
HETATM   23  C   UNK N   1      31.499  16.446   6.392  0.00  0.00     0.116 A 
HETATM   24  N   UNK N   1      30.676  17.083   5.517  0.00  0.00    -0.348 N 
HETATM   25  C   UNK N   1      29.573  17.742   5.961  0.00  0.00     0.151 A 
ATOM     26  HN  UNK N   1      30.887  17.064   4.519  1.00  0.00     0.167 HD
HETATM   27  N   UNK N   1      28.777  18.418   5.098  0.00  0.00    -0.174 N 
HETATM   28  C   UNK N   1      29.271  17.742   7.331  0.00  0.00     0.122 A 
HETATM   29  C   UNK N   1      27.690  19.103   5.553  0.00  0.00     0.679 A 
ATOM     30  HN  UNK N   1      28.992  18.415   4.101  1.00  0.00     0.186 HD
HETATM   31  N   UNK N   1      26.885  19.819   4.648  0.00  0.00    -0.234 N 
HETATM   32  N   UNK N   1      27.386  19.109   6.881  0.00  0.00    -0.175 N 
HETATM   33  H   UNK N   1      26.107  20.341   4.949  0.00  0.00     0.174 HD
HETATM   34  H   UNK N   1      27.107  19.798   3.689  0.00  0.00     0.174 HD
HETATM   35  C   UNK N   1      28.154  18.439   7.776  0.00  0.00     0.145 A 
ATOM     36  HN  UNK N   1      26.569  19.626   7.207  1.00  0.00     0.186 HD
HETATM   37  N   UNK N   1      30.077  17.092   8.195  0.00  0.00    -0.351 N 
ATOM     38  HN  UNK N   1      29.847  17.080   9.188  1.00  0.00     0.166 HD
BRANCH  35  39
HETATM   39  N   UNK N   1      27.829  18.471   9.150  0.00  0.00    -0.383 N 
HETATM   40  H   UNK N   1      27.651  17.632   9.633  0.00  0.00     0.157 HD
HETATM   41  H   UNK N   1      27.782  19.332   9.624  0.00  0.00     0.157 HD
ENDBRANCH  35  39
ENDBRANCH   1  22
TORSDOF 7
ENDMDL
MODEL 2
REMARK VINA RESULT:      -8.1      4.767      8.212
REMARK  7 active torsions:
REMARK  status: ('A' for Active; 'I' for Inactive)
REMARK    1  A    between atoms: O_2  and  C_3 
REMARK    2  A    between atoms: C_3  and  C_5 
REMARK       I    between atoms: N_10  and  C_11 
REMARK    3  A    between atoms: C_11  and  C_13 
REMARK    4  A    between atoms: C_18  and  N_19 
REMARK    5  A    between atoms: N_19  and  C_20 
REMARK    6  A    between atoms: C_20  and  C_21 
REMARK       I    between atoms: C_28  and  N_29 
REMARK    7  A    between atoms: C_32  and  N_33 
ROOT
HETATM    1  C   UNK N   1      35.074  12.645  13.396  0.00  0.00     0.178 C 
ENDROOT
BRANCH   1   2
HETATM    2  N   UNK N   1      35.259  13.075  14.763  0.00  0.00    -0.384 N 
HETATM    3  H   UNK N   1      35.596  13.977  14.970  0.00  0.00     0.160 HD
BRANCH   2   4
HETATM    4  C   UNK N   1      34.944  12.172  15.783  0.00  0.00     0.028 A 
HETATM    5  C   UNK N   1      35.253  12.501  17.102  0.00  0.00     0.030 A 
HETATM    6  C   UNK N   1      35.278  11.513  18.067  0.00  0.00     0.019 A 
HETATM    7  C   UNK N   1      35.031  10.177  17.729  0.00  0.00     0.032 A 
HETATM    8  C   UNK N   1      34.663   9.861  16.412  0.00  0.00     0.019 A 
HETATM    9  C   UNK N   1      34.599  10.863  15.444  0.00  0.00     0.030 A 
BRANCH   7  10
HETATM   10  C   UNK N   1      35.517   9.109  18.637  0.00  0.00     0.253 C 
HETATM   11  N   UNK N   1      34.684   8.464  19.511  0.00  0.00    -0.348 N 
HETATM   12  C   UNK N   1      33.238   8.498  19.374  0.00  0.00     0.127 C 
HETATM   13  C   UNK N   1      35.227   7.820  20.684  0.00  0.00     0.127 C 
HETATM   14  C   UNK N   1      32.551   8.888  20.679  0.00  0.00     0.034 C 
HETATM   15  C   UNK N   1      33.537   9.523  21.652  0.00  0.00     0.088 C 
HETATM   16  C   UNK N   1      34.729   8.577  21.940  0.00  0.00     0.034 C 
HETATM   17  O   UNK N   1      36.724   8.914  18.701  0.00  0.00    -0.267 OA
BRANCH  15  18
HETATM   18  C   UNK N   1      32.815   9.958  22.900  0.00  0.00     0.262 C 
HETATM   19  O   UNK N   1      32.778  11.146  23.172  0.00  0.00    -0.265 OA
BRANCH  18  20
HETATM   20  O   UNK N   1      32.173   9.076  23.712  0.00  0.00    -0.326 OA
HETATM   21  C   UNK N   1      31.575   9.430  24.900  0.00  0.00     0.213 C 
ENDBRANCH  18  20
ENDBRANCH  15  18
ENDBRANCH   7  10
ENDBRANCH   2   4
ENDBRANCH   1   2
BRANCH   1  22
HETATM   22  C   UNK N   1      35.194  13.799  12.499  0.00  0.00     0.043 A 
HETATM   23  C   UNK N   1      36.196  14.755  12.694  0.00  0.00     0.116 A 
HETATM   24  N   UNK N   1      36.238  15.848  11.887  0.00  0.00    -0.348 N 
HETATM   25  C   UNK N   1      35.307  16.024  10.913  0.00  0.00     0.151 A 
ATOM     26  HN  UNK N   1      36.976  16.542  12.014  1.00  0.00     0.167 HD
HETATM   27  N   UNK N   1      35.316  17.135  10.139  0.00  0.00    -0.174 N 
HETATM   28  C   UNK N   1      34.309  15.055  10.726  0.00  0.00     0.122 A 
HETATM   29  C   UNK N   1      34.362  17.321   9.184  0.00  0.00     0.679 A 
ATOM     30  HN  UNK N   1      36.043  17.839  10.271  1.00  0.00     0.186 HD
HETATM   31  N   UNK N   1      34.371  18.491   8.403  0.00  0.00    -0.234 N 
HETATM   32  N   UNK N   1      33.389  16.386   8.992  0.00  0.00    -0.175 N 
HETATM   33  H   UNK N   1      33.682  18.664   7.721  0.00  0.00     0.174 HD
HETATM   34  H   UNK N   1      35.085  19.153   8.542  0.00  0.00     0.174 HD
HETATM   35  C   UNK N   1      33.348  15.257   9.742  0.00  0.00     0.145 A 
ATOM     36  HN  UNK N   1      32.681  16.538   8.274  1.00  0.00     0.186 HD
HETATM   37  N   UNK N   1      34.282  13.961  11.514  0.00  0.00    -0.351 N 
ATOM     38  HN  UNK N   1      33.566  13.250  11.365  1.00  0.00     0.166 HD
BRANCH  35  39
HETATM   39  N   UNK N   1      32.323  14.308   9.536  0.00  0.00    -0.383 N 
HETATM   40  H   UNK N   1      31.383  14.559   9.682  0.00  0.00     0.157 HD
HETATM   41  H   UNK N   1      32.550  13.395   9.247  0.00  0.00     0.157 HD
ENDBRANCH  35  39
ENDBRANCH   1  22
TORSDOF 7
ENDMDL
MODEL 3
REMARK VINA RESULT:      -8.0      4.307     10.246
REMARK  7 active torsions:
REMARK  status: ('A' for Active; 'I' for Inactive)
REMARK    1  A    between atoms: O_2  and  C_3 
REMARK    2  A    between atoms: C_3  and  C_5 
REMARK       I    between atoms: N_10  and  C_11 
REMARK    3  A    between atoms: C_11  and  C_13 
REMARK    4  A    between atoms: C_18  and  N_19 
REMARK    5  A    between atoms: N_19  and  C_20 
REMARK    6  A    between atoms: C_20  and  C_21 
REMARK       I    between atoms: C_28  and  N_29 
REMARK    7  A    between atoms: C_32  and  N_33 
ROOT
HETATM    1  C   UNK N   1      35.836  16.184  10.565  0.00  0.00     0.178 C 
ENDROOT
BRANCH   1   2
HETATM    2  N   UNK N   1      34.596  16.919  10.469  0.00  0.00    -0.384 N 
HETATM    3  H   UNK N   1      34.194  17.342  11.263  0.00  0.00     0.160 HD
BRANCH   2   4
HETATM    4  C   UNK N   1      33.983  17.012   9.216  0.00  0.00     0.028 A 
HETATM    5  C   UNK N   1      33.120  15.999   8.804  0.00  0.00     0.030 A 
HETATM    6  C   UNK N   1      32.783  15.886   7.469  0.00  0.00     0.019 A 
HETATM    7  C   UNK N   1      33.328  16.758   6.518  0.00  0.00     0.032 A 
HETATM    8  C   UNK N   1      34.150  17.812   6.946  0.00  0.00     0.019 A 
HETATM    9  C   UNK N   1      34.459  17.951   8.299  0.00  0.00     0.030 A 
BRANCH   7  10
HETATM   10  C   UNK N   1      33.342  16.342   5.094  0.00  0.00     0.253 C 
HETATM   11  N   UNK N   1      32.294  16.601   4.251  0.00  0.00    -0.348 N 
HETATM   12  C   UNK N   1      31.278  17.593   4.558  0.00  0.00     0.127 C 
HETATM   13  C   UNK N   1      32.104  15.795   3.068  0.00  0.00     0.127 C 
HETATM   14  C   UNK N   1      29.868  17.029   4.403  0.00  0.00     0.034 C 
HETATM   15  C   UNK N   1      29.884  15.506   4.368  0.00  0.00     0.088 C 
HETATM   16  C   UNK N   1      30.794  14.982   3.229  0.00  0.00     0.034 C 
HETATM   17  O   UNK N   1      34.255  15.620   4.714  0.00  0.00    -0.267 OA
BRANCH  15  18
HETATM   18  C   UNK N   1      28.475  14.982   4.283  0.00  0.00     0.262 C 
HETATM   19  O   UNK N   1      28.161  14.033   4.981  0.00  0.00    -0.265 OA
BRANCH  18  20
HETATM   20  O   UNK N   1      27.535  15.553   3.485  0.00  0.00    -0.326 OA
HETATM   21  C   UNK N   1      27.136  15.024   2.279  0.00  0.00     0.213 C 
ENDBRANCH  18  20
ENDBRANCH  15  18
ENDBRANCH   7  10
ENDBRANCH   2   4
ENDBRANCH   1   2
BRANCH   1  22
HETATM   22  C   UNK N   1      35.674  15.071  11.506  0.00  0.00     0.043 A 
HETATM   23  C   UNK N   1      34.859  13.980  11.188  0.00  0.00     0.116 A 
HETATM   24  N   UNK N   1      34.674  12.997  12.110  0.00  0.00    -0.348 N 
HETATM   25  C   UNK N   1      35.258  13.080  13.334  0.00  0.00     0.151 A 
ATOM     26  HN  UNK N   1      34.094  12.189  11.879  1.00  0.00     0.167 HD
HETATM   27  N   UNK N   1      35.039  12.127  14.272  0.00  0.00    -0.174 N 
HETATM   28  C   UNK N   1      36.077  14.178  13.638  0.00  0.00     0.122 A 
HETATM   29  C   UNK N   1      35.602  12.231  15.508  0.00  0.00     0.679 A 
ATOM     30  HN  UNK N   1      34.447  11.326  14.051  1.00  0.00     0.186 HD
HETATM   31  N   UNK N   1      35.347  11.246  16.479  0.00  0.00    -0.234 N 
HETATM   32  N   UNK N   1      36.400  13.293  15.814  0.00  0.00    -0.175 N 
HETATM   33  H   UNK N   1      35.721  11.305  17.388  0.00  0.00     0.174 HD
HETATM   34  H   UNK N   1      34.779  10.477  16.244  0.00  0.00     0.174 HD
HETATM   35  C   UNK N   1      36.650  14.264  14.902  0.00  0.00     0.145 A 
ATOM     36  HN  UNK N   1      36.815  13.358  16.743  1.00  0.00     0.186 HD
HETATM   37  N   UNK N   1      36.275  15.141  12.716  0.00  0.00    -0.351 N 
ATOM     38  HN  UNK N   1      36.884  15.930  12.932  1.00  0.00     0.166 HD
BRANCH  35  39
HETATM   39  N   UNK N   1      37.468  15.363  15.244  0.00  0.00    -0.383 N 
HETATM   40  H   UNK N   1      37.988  15.348  16.079  0.00  0.00     0.157 HD
HETATM   41  H   UNK N   1      37.518  16.144  14.646  0.00  0.00     0.157 HD
ENDBRANCH  35  39
ENDBRANCH   1  22
TORSDOF 7
ENDMDL
MODEL 4
REMARK VINA RESULT:      -7.9      7.173     13.375
REMARK  7 active torsions:
REMARK  status: ('A' for Active; 'I' for Inactive)
REMARK    1  A    between atoms: O_2  and  C_3 
REMARK    2  A    between atoms: C_3  and  C_5 
REMARK       I    between atoms: N_10  and  C_11 
REMARK    3  A    between atoms: C_11  and  C_13 
REMARK    4  A    between atoms: C_18  and  N_19 
REMARK    5  A    between atoms: N_19  and  C_20 
REMARK    6  A    between atoms: C_20  and  C_21 
REMARK       I    between atoms: C_28  and  N_29 
REMARK    7  A    between atoms: C_32  and  N_33 
ROOT
HETATM    1  C   UNK N   1      29.118  17.007   4.365  0.00  0.00     0.178 C 
ENDROOT
BRANCH   1   2
HETATM    2  N   UNK N   1      28.639  18.343   4.089  0.00  0.00    -0.384 N 
HETATM    3  H   UNK N   1      29.258  19.053   3.800  0.00  0.00     0.160 HD
BRANCH   2   4
HETATM    4  C   UNK N   1      27.273  18.596   4.245  0.00  0.00     0.028 A 
HETATM    5  C   UNK N   1      26.350  17.749   3.636  0.00  0.00     0.030 A 
HETATM    6  C   UNK N   1      25.040  18.160   3.480  0.00  0.00     0.019 A 
HETATM    7  C   UNK N   1      24.637  19.434   3.897  0.00  0.00     0.032 A 
HETATM    8  C   UNK N   1      25.556  20.260   4.563  0.00  0.00     0.019 A 
HETATM    9  C   UNK N   1      26.869  19.831   4.756  0.00  0.00     0.030 A 
BRANCH   7  10
HETATM   10  C   UNK N   1      23.407  20.021   3.311  0.00  0.00     0.253 C 
HETATM   11  N   UNK N   1      22.163  19.517   3.579  0.00  0.00    -0.348 N 
HETATM   12  C   UNK N   1      21.908  18.637   4.708  0.00  0.00     0.127 C 
HETATM   13  C   UNK N   1      21.074  19.754   2.660  0.00  0.00     0.127 C 
HETATM   14  C   UNK N   1      21.153  17.379   4.290  0.00  0.00     0.034 C 
HETATM   15  C   UNK N   1      21.218  17.173   2.782  0.00  0.00     0.088 C 
HETATM   16  C   UNK N   1      20.660  18.403   2.023  0.00  0.00     0.034 C 
HETATM   17  O   UNK N   1      23.534  20.883   2.451  0.00  0.00    -0.267 OA
BRANCH  15  18
HETATM   18  C   UNK N   1      20.523  15.889   2.411  0.00  0.00     0.262 C 
HETATM   19  O   UNK N   1      19.765  15.380   3.218  0.00  0.00    -0.265 OA
BRANCH  18  20
HETATM   20  O   UNK N   1      20.685  15.300   1.197  0.00  0.00    -0.326 OA
HETATM   21  C   UNK N   1      20.776  13.939   1.016  0.00  0.00     0.213 C 
ENDBRANCH  18  20
ENDBRANCH  15  18
ENDBRANCH   7  10
ENDBRANCH   2   4
ENDBRANCH   1   2
BRANCH   1  22
HETATM   22  C   UNK N   1      29.939  17.022   5.578  0.00  0.00     0.043 A 
HETATM   23  C   UNK N   1      29.378  17.342   6.818  0.00  0.00     0.116 A 
HETATM   24  N   UNK N   1      30.180  17.414   7.914  0.00  0.00    -0.348 N 
HETATM   25  C   UNK N   1      31.518  17.197   7.805  0.00  0.00     0.151 A 
ATOM     26  HN  UNK N   1      29.774  17.631   8.824  1.00  0.00     0.167 HD
HETATM   27  N   UNK N   1      32.328  17.315   8.885  0.00  0.00    -0.174 N 
HETATM   28  C   UNK N   1      32.068  16.872   6.556  0.00  0.00     0.122 A 
HETATM   29  C   UNK N   1      33.672  17.126   8.764  0.00  0.00     0.679 A 
ATOM     30  HN  UNK N   1      31.929  17.546   9.795  1.00  0.00     0.186 HD
HETATM   31  N   UNK N   1      34.503  17.274   9.889  0.00  0.00    -0.234 N 
HETATM   32  N   UNK N   1      34.216  16.809   7.556  0.00  0.00    -0.175 N 
HETATM   33  H   UNK N   1      35.480  17.166   9.829  0.00  0.00     0.174 HD
HETATM   34  H   UNK N   1      34.097  17.491  10.759  0.00  0.00     0.174 HD
HETATM   35  C   UNK N   1      33.440  16.675   6.453  0.00  0.00     0.145 A 
ATOM     36  HN  UNK N   1      35.224  16.671   7.481  1.00  0.00     0.186 HD
HETATM   37  N   UNK N   1      31.267  16.781   5.475  0.00  0.00    -0.351 N 
ATOM     38  HN  UNK N   1      31.665  16.528   4.571  1.00  0.00     0.166 HD
BRANCH  35  39
HETATM   39  N   UNK N   1      34.027  16.360   5.208  0.00  0.00    -0.383 N 
HETATM   40  H   UNK N   1      34.996  16.205   5.146  0.00  0.00     0.157 HD
HETATM   41  H   UNK N   1      33.465  16.296   4.402  0.00  0.00     0.157 HD
ENDBRANCH  35  39
ENDBRANCH   1  22
TORSDOF 7
ENDMDL
MODEL 5
REMARK VINA RESULT:      -7.8      6.881     11.137
REMARK  7 active torsions:
REMARK  status: ('A' for Active; 'I' for Inactive)
REMARK    1  A    between atoms: O_2  and  C_3 
REMARK    2  A    between atoms: C_3  and  C_5 
REMARK       I    between atoms: N_10  and  C_11 
REMARK    3  A    between atoms: C_11  and  C_13 
REMARK    4  A    between atoms: C_18  and  N_19 
REMARK    5  A    between atoms: N_19  and  C_20 
REMARK    6  A    between atoms: C_20  and  C_21 
REMARK       I    between atoms: C_28  and  N_29 
REMARK    7  A    between atoms: C_32  and  N_33 
ROOT
HETATM    1  C   UNK N   1      25.103  13.158   5.623  0.00  0.00     0.178 C 
ENDROOT
BRANCH   1   2
HETATM    2  N   UNK N   1      24.085  13.717   4.763  0.00  0.00    -0.384 N 
HETATM    3  H   UNK N   1      23.338  13.163   4.436  0.00  0.00     0.160 HD
BRANCH   2   4
HETATM    4  C   UNK N   1      24.191  15.065   4.409  0.00  0.00     0.028 A 
HETATM    5  C   UNK N   1      24.991  15.423   3.326  0.00  0.00     0.030 A 
HETATM    6  C   UNK N   1      25.388  16.737   3.172  0.00  0.00     0.019 A 
HETATM    7  C   UNK N   1      25.025  17.709   4.112  0.00  0.00     0.032 A 
HETATM    8  C   UNK N   1      24.170  17.354   5.168  0.00  0.00     0.019 A 
HETATM    9  C   UNK N   1      23.736  16.035   5.303  0.00  0.00     0.030 A 
BRANCH   7  10
HETATM   10  C   UNK N   1      25.823  18.956   4.195  0.00  0.00     0.253 C 
HETATM   11  N   UNK N   1      27.095  18.972   4.702  0.00  0.00    -0.348 N 
HETATM   12  C   UNK N   1      27.886  17.763   4.852  0.00  0.00     0.127 C 
HETATM   13  C   UNK N   1      27.648  20.200   5.223  0.00  0.00     0.127 C 
HETATM   14  C   UNK N   1      28.478  17.640   6.253  0.00  0.00     0.034 C 
HETATM   15  C   UNK N   1      27.777  18.573   7.231  0.00  0.00     0.088 C 
HETATM   16  C   UNK N   1      27.847  20.044   6.752  0.00  0.00     0.034 C 
HETATM   17  O   UNK N   1      25.265  20.015   3.937  0.00  0.00    -0.267 OA
BRANCH  15  18
HETATM   18  C   UNK N   1      28.337  18.378   8.615  0.00  0.00     0.262 C 
HETATM   19  O   UNK N   1      27.739  17.654   9.393  0.00  0.00    -0.265 OA
BRANCH  18  20
HETATM   20  O   UNK N   1      29.504  18.950   9.013  0.00  0.00    -0.326 OA
HETATM   21  C   UNK N   1      30.726  18.323   8.936  0.00  0.00     0.213 C 
ENDBRANCH  18  20
ENDBRANCH  15  18
ENDBRANCH   7  10
ENDBRANCH   2   4
ENDBRANCH   1   2
BRANCH   1  22
HETATM   22  C   UNK N   1      24.480  12.625   6.838  0.00  0.00     0.043 A 
HETATM   23  C   UNK N   1      23.345  11.812   6.762  0.00  0.00     0.116 A 
HETATM   24  N   UNK N   1      22.751  11.390   7.910  0.00  0.00    -0.348 N 
HETATM   25  C   UNK N   1      23.240  11.768   9.120  0.00  0.00     0.151 A 
ATOM     26  HN  UNK N   1      21.932  10.783   7.862  1.00  0.00     0.167 HD
HETATM   27  N   UNK N   1      22.623  11.390  10.265  0.00  0.00    -0.174 N 
HETATM   28  C   UNK N   1      24.382  12.581   9.182  0.00  0.00     0.122 A 
HETATM   29  C   UNK N   1      23.100  11.797  11.475  0.00  0.00     0.679 A 
ATOM     30  HN  UNK N   1      21.795  10.795  10.222  1.00  0.00     0.186 HD
HETATM   31  N   UNK N   1      22.436  11.415  12.654  0.00  0.00    -0.234 N 
HETATM   32  N   UNK N   1      24.210  12.585  11.547  0.00  0.00    -0.175 N 
HETATM   33  H   UNK N   1      22.743  11.712  13.541  0.00  0.00     0.174 HD
HETATM   34  H   UNK N   1      21.643  10.836  12.591  0.00  0.00     0.174 HD
HETATM   35  C   UNK N   1      24.860  12.981  10.425  0.00  0.00     0.145 A 
ATOM     36  HN  UNK N   1      24.555  12.883  12.459  1.00  0.00     0.186 HD
HETATM   37  N   UNK N   1      24.982  12.981   8.043  0.00  0.00    -0.351 N 
ATOM     38  HN  UNK N   1      25.822  13.557   8.090  1.00  0.00     0.166 HD
BRANCH  35  39
HETATM   39  N   UNK N   1      25.999  13.809  10.522  0.00  0.00    -0.383 N 
HETATM   40  H   UNK N   1      26.898  13.426  10.408  0.00  0.00     0.157 HD
HETATM   41  H   UNK N   1      25.893  14.771  10.702  0.00  0.00     0.157 HD
ENDBRANCH  35  39
ENDBRANCH   1  22
TORSDOF 7
ENDMDL
MODEL 6
REMARK VINA RESULT:      -7.7      4.985     11.069
REMARK  7 active torsions:
REMARK  status: ('A' for Active; 'I' for Inactive)
REMARK    1  A    between atoms: O_2  and  C_3 
REMARK    2  A    between atoms: C_3  and  C_5 
REMARK       I    between atoms: N_10  and  C_11 
REMARK    3  A    between atoms: C_11  and  C_13 
REMARK    4  A    between atoms: C_18  and  N_19 
REMARK    5  A    between atoms: N_19  and  C_20 
REMARK    6  A    between atoms: C_20  and  C_21 
REMARK       I    between atoms: C_28  and  N_29 
REMARK    7  A    between atoms: C_32  and  N_33 
ROOT
HETATM    1  C   UNK N   1      33.454  15.265   8.518  0.00  0.00     0.178 C 
ENDROOT
BRANCH   1   2
HETATM    2  N   UNK N   1      32.850  16.561   8.312  0.00  0.00    -0.384 N 
HETATM    3  H   UNK N   1      33.372  17.389   8.434  0.00  0.00     0.160 HD
BRANCH   2   4
HETATM    4  C   UNK N   1      31.505  16.607   7.934  0.00  0.00     0.028 A 
HETATM    5  C   UNK N   1      31.165  16.390   6.600  0.00  0.00     0.030 A 
HETATM    6  C   UNK N   1      29.918  16.765   6.141  0.00  0.00     0.019 A 
HETATM    7  C   UNK N   1      29.002  17.395   6.994  0.00  0.00     0.032 A 
HETATM    8  C   UNK N   1      29.327  17.556   8.349  0.00  0.00     0.019 A 
HETATM    9  C   UNK N   1      30.572  17.142   8.823  0.00  0.00     0.030 A 
BRANCH   7  10
HETATM   10  C   UNK N   1      27.905  18.195   6.396  0.00  0.00     0.253 C 
HETATM   11  N   UNK N   1      26.824  17.610   5.793  0.00  0.00    -0.348 N 
HETATM   12  C   UNK N   1      26.479  16.214   6.003  0.00  0.00     0.127 C 
HETATM   13  C   UNK N   1      26.054  18.348   4.820  0.00  0.00     0.127 C 
HETATM   14  C   UNK N   1      26.261  15.477   4.685  0.00  0.00     0.034 C 
HETATM   15  C   UNK N   1      26.845  16.258   3.514  0.00  0.00     0.088 C 
HETATM   16  C   UNK N   1      26.240  17.682   3.433  0.00  0.00     0.034 C 
HETATM   17  O   UNK N   1      28.055  19.408   6.317  0.00  0.00    -0.267 OA
BRANCH  15  18
HETATM   18  C   UNK N   1      26.675  15.473   2.240  0.00  0.00     0.262 C 
HETATM   19  O   UNK N   1      25.560  15.381   1.754  0.00  0.00    -0.265 OA
BRANCH  18  20
HETATM   20  O   UNK N   1      27.724  14.896   1.597  0.00  0.00    -0.326 OA
HETATM   21  C   UNK N   1      28.891  14.525   2.224  0.00  0.00     0.213 C 
ENDBRANCH  18  20
ENDBRANCH  15  18
ENDBRANCH   7  10
ENDBRANCH   2   4
ENDBRANCH   1   2
BRANCH   1  22
HETATM   22  C   UNK N   1      34.176  15.258   9.794  0.00  0.00     0.043 A 
HETATM   23  C   UNK N   1      34.883  16.386  10.222  0.00  0.00     0.116 A 
HETATM   24  N   UNK N   1      35.598  16.324  11.377  0.00  0.00    -0.348 N 
HETATM   25  C   UNK N   1      35.643  15.175  12.101  0.00  0.00     0.151 A 
ATOM     26  HN  UNK N   1      36.104  17.149  11.703  1.00  0.00     0.167 HD
HETATM   27  N   UNK N   1      36.392  15.095  13.227  0.00  0.00    -0.174 N 
HETATM   28  C   UNK N   1      34.925  14.052  11.663  0.00  0.00     0.122 A 
HETATM   29  C   UNK N   1      36.458  13.930  13.932  0.00  0.00     0.679 A 
ATOM     30  HN  UNK N   1      36.912  15.911  13.549  1.00  0.00     0.186 HD
HETATM   31  N   UNK N   1      37.258  13.855  15.086  0.00  0.00    -0.234 N 
HETATM   32  N   UNK N   1      35.764  12.834  13.516  0.00  0.00    -0.175 N 
HETATM   33  H   UNK N   1      37.344  13.023  15.604  0.00  0.00     0.174 HD
HETATM   34  H   UNK N   1      37.746  14.657  15.384  0.00  0.00     0.174 HD
HETATM   35  C   UNK N   1      34.997  12.875  12.399  0.00  0.00     0.145 A 
ATOM     36  HN  UNK N   1      35.822  11.969  14.054  1.00  0.00     0.186 HD
HETATM   37  N   UNK N   1      34.200  14.121  10.528  0.00  0.00    -0.351 N 
ATOM     38  HN  UNK N   1      33.665  13.310  10.220  1.00  0.00     0.166 HD
BRANCH  35  39
HETATM   39  N   UNK N   1      34.297  11.723  11.978  0.00  0.00    -0.383 N 
HETATM   40  H   UNK N   1      34.294  10.916  12.541  0.00  0.00     0.157 HD
HETATM   41  H   UNK N   1      33.811  11.728  11.122  0.00  0.00     0.157 HD
ENDBRANCH  35  39
ENDBRANCH   1  22
TORSDOF 7
ENDMDL
MODEL 7
REMARK VINA RESULT:      -7.7      5.300      8.914
REMARK  7 active torsions:
REMARK  status: ('A' for Active; 'I' for Inactive)
REMARK    1  A    between atoms: O_2  and  C_3 
REMARK    2  A    between atoms: C_3  and  C_5 
REMARK       I    between atoms: N_10  and  C_11 
REMARK    3  A    between atoms: C_11  and  C_13 
REMARK    4  A    between atoms: C_18  and  N_19 
REMARK    5  A    between atoms: N_19  and  C_20 
REMARK    6  A    between atoms: C_20  and  C_21 
REMARK       I    between atoms: C_28  and  N_29 
REMARK    7  A    between atoms: C_32  and  N_33 
ROOT
HETATM    1  C   UNK N   1      26.038  20.231   3.194  0.00  0.00     0.178 C 
ENDROOT
BRANCH   1   2
HETATM    2  N   UNK N   1      26.394  20.966   4.386  0.00  0.00    -0.384 N 
HETATM    3  H   UNK N   1      25.998  21.848   4.575  0.00  0.00     0.160 HD
BRANCH   2   4
HETATM    4  C   UNK N   1      27.317  20.389   5.262  0.00  0.00     0.028 A 
HETATM    5  C   UNK N   1      28.188  19.411   4.786  0.00  0.00     0.030 A 
HETATM    6  C   UNK N   1      28.854  18.592   5.677  0.00  0.00     0.019 A 
HETATM    7  C   UNK N   1      28.636  18.710   7.055  0.00  0.00     0.032 A 
HETATM    8  C   UNK N   1      27.804  19.734   7.532  0.00  0.00     0.019 A 
HETATM    9  C   UNK N   1      27.162  20.588   6.635  0.00  0.00     0.030 A 
BRANCH   7  10
HETATM   10  C   UNK N   1      28.967  17.559   7.931  0.00  0.00     0.253 C 
HETATM   11  N   UNK N   1      30.189  17.433   8.535  0.00  0.00    -0.348 N 
HETATM   12  C   UNK N   1      31.105  18.552   8.674  0.00  0.00     0.127 C 
HETATM   13  C   UNK N   1      30.658  16.132   8.951  0.00  0.00     0.127 C 
HETATM   14  C   UNK N   1      32.508  18.204   8.183  0.00  0.00     0.034 C 
HETATM   15  C   UNK N   1      32.494  16.949   7.320  0.00  0.00     0.088 C 
HETATM   16  C   UNK N   1      31.885  15.748   8.086  0.00  0.00     0.034 C 
HETATM   17  O   UNK N   1      28.170  16.631   7.987  0.00  0.00    -0.267 OA
BRANCH  15  18
HETATM   18  C   UNK N   1      33.879  16.673   6.797  0.00  0.00     0.262 C 
HETATM   19  O   UNK N   1      34.564  17.612   6.430  0.00  0.00    -0.265 OA
BRANCH  18  20
HETATM   20  O   UNK N   1      34.403  15.420   6.756  0.00  0.00    -0.326 OA
HETATM   21  C   UNK N   1      35.489  15.073   5.986  0.00  0.00     0.213 C 
ENDBRANCH  18  20
ENDBRANCH  15  18
ENDBRANCH   7  10
ENDBRANCH   2   4
ENDBRANCH   1   2
BRANCH   1  22
HETATM   22  C   UNK N   1      24.843  19.424   3.454  0.00  0.00     0.043 A 
HETATM   23  C   UNK N   1      24.955  18.087   3.850  0.00  0.00     0.116 A 
HETATM   24  N   UNK N   1      23.828  17.346   4.018  0.00  0.00    -0.348 N 
HETATM   25  C   UNK N   1      22.603  17.889   3.785  0.00  0.00     0.151 A 
ATOM     26  HN  UNK N   1      23.902  16.374   4.322  1.00  0.00     0.167 HD
HETATM   27  N   UNK N   1      21.480  17.141   3.904  0.00  0.00    -0.174 N 
HETATM   28  C   UNK N   1      22.505  19.232   3.393  0.00  0.00     0.122 A 
HETATM   29  C   UNK N   1      20.258  17.682   3.640  0.00  0.00     0.679 A 
ATOM     30  HN  UNK N   1      21.550  16.165   4.194  1.00  0.00     0.186 HD
HETATM   31  N   UNK N   1      19.102  16.887   3.745  0.00  0.00    -0.234 N 
HETATM   32  N   UNK N   1      20.150  18.986   3.259  0.00  0.00    -0.175 N 
HETATM   33  H   UNK N   1      18.208  17.242   3.540  0.00  0.00     0.174 HD
HETATM   34  H   UNK N   1      19.191  15.949   4.033  0.00  0.00     0.174 HD
HETATM   35  C   UNK N   1      21.249  19.770   3.135  0.00  0.00     0.145 A 
ATOM     36  HN  UNK N   1      19.229  19.378   3.065  1.00  0.00     0.186 HD
HETATM   37  N   UNK N   1      23.623  19.971   3.247  0.00  0.00    -0.351 N 
ATOM     38  HN  UNK N   1      23.549  20.952   2.978  1.00  0.00     0.166 HD
BRANCH  35  39
HETATM   39  N   UNK N   1      21.116  21.115   2.725  0.00  0.00    -0.383 N 
HETATM   40  H   UNK N   1      20.281  21.603   2.903  0.00  0.00     0.157 HD
HETATM   41  H   UNK N   1      21.860  21.564   2.262  0.00  0.00     0.157 HD
ENDBRANCH  35  39
ENDBRANCH   1  22
TORSDOF 7
ENDMDL
MODEL 8
REMARK VINA RESULT:      -7.5      3.967      9.926
REMARK  7 active torsions:
REMARK  status: ('A' for Active; 'I' for Inactive)
REMARK    1  A    between atoms: O_2  and  C_3 
REMARK    2  A    between atoms: C_3  and  C_5 
REMARK       I    between atoms: N_10  and  C_11 
REMARK    3  A    between atoms: C_11  and  C_13 
REMARK    4  A    between atoms: C_18  and  N_19 
REMARK    5  A    between atoms: N_19  and  C_20 
REMARK    6  A    between atoms: C_20  and  C_21 
REMARK       I    between atoms: C_28  and  N_29 
REMARK    7  A    between atoms: C_32  and  N_33 
ROOT
HETATM    1  C   UNK N   1      37.136  12.055  12.105  0.00  0.00     0.178 C 
ENDROOT
BRANCH   1   2
HETATM    2  N   UNK N   1      35.992  11.915  11.233  0.00  0.00    -0.384 N 
HETATM    3  H   UNK N   1      35.557  11.040  11.103  0.00  0.00     0.160 HD
BRANCH   2   4
HETATM    4  C   UNK N   1      35.521  13.056  10.578  0.00  0.00     0.028 A 
HETATM    5  C   UNK N   1      34.391  12.959   9.768  0.00  0.00     0.030 A 
HETATM    6  C   UNK N   1      34.114  13.958   8.854  0.00  0.00     0.019 A 
HETATM    7  C   UNK N   1      34.976  15.052   8.708  0.00  0.00     0.032 A 
HETATM    8  C   UNK N   1      36.079  15.174   9.567  0.00  0.00     0.019 A 
HETATM    9  C   UNK N   1      36.339  14.186  10.517  0.00  0.00     0.030 A 
BRANCH   7  10
HETATM   10  C   UNK N   1      34.932  15.832   7.447  0.00  0.00     0.253 C 
HETATM   11  N   UNK N   1      34.163  16.957   7.316  0.00  0.00    -0.348 N 
HETATM   12  C   UNK N   1      33.633  17.674   8.463  0.00  0.00     0.127 C 
HETATM   13  C   UNK N   1      33.749  17.399   6.005  0.00  0.00     0.127 C 
HETATM   14  C   UNK N   1      32.136  17.933   8.331  0.00  0.00     0.034 C 
HETATM   15  C   UNK N   1      31.515  17.044   7.261  0.00  0.00     0.088 C 
HETATM   16  C   UNK N   1      32.211  17.245   5.892  0.00  0.00     0.034 C 
HETATM   17  O   UNK N   1      35.486  15.363   6.461  0.00  0.00    -0.267 OA
BRANCH  15  18
HETATM   18  C   UNK N   1      30.028  17.276   7.204  0.00  0.00     0.262 C 
HETATM   19  O   UNK N   1      29.505  17.459   6.118  0.00  0.00    -0.265 OA
BRANCH  18  20
HETATM   20  O   UNK N   1      29.246  17.250   8.315  0.00  0.00    -0.326 OA
HETATM   21  C   UNK N   1      27.870  17.268   8.280  0.00  0.00     0.213 C 
ENDBRANCH  18  20
ENDBRANCH  15  18
ENDBRANCH   7  10
ENDBRANCH   2   4
ENDBRANCH   1   2
BRANCH   1  22
HETATM   22  C   UNK N   1      36.682  12.160  13.494  0.00  0.00     0.043 A 
HETATM   23  C   UNK N   1      35.905  11.151  14.071  0.00  0.00     0.116 A 
HETATM   24  N   UNK N   1      35.443  11.310  15.340  0.00  0.00    -0.348 N 
HETATM   25  C   UNK N   1      35.715  12.445  16.037  0.00  0.00     0.151 A 
ATOM     26  HN  UNK N   1      34.889  10.571  15.773  1.00  0.00     0.167 HD
HETATM   27  N   UNK N   1      35.217  12.629  17.283  0.00  0.00    -0.174 N 
HETATM   28  C   UNK N   1      36.499  13.448  15.448  0.00  0.00     0.122 A 
HETATM   29  C   UNK N   1      35.467  13.782  17.964  0.00  0.00     0.679 A 
ATOM     30  HN  UNK N   1      34.650  11.899  17.715  1.00  0.00     0.186 HD
HETATM   31  N   UNK N   1      34.924  13.969  19.249  0.00  0.00    -0.234 N 
HETATM   32  N   UNK N   1      36.229  14.762  17.403  0.00  0.00    -0.175 N 
HETATM   33  H   UNK N   1      35.068  14.799  19.757  0.00  0.00     0.174 HD
HETATM   34  H   UNK N   1      34.385  13.248  19.650  0.00  0.00     0.174 HD
HETATM   35  C   UNK N   1      36.751  14.615  16.160  0.00  0.00     0.145 A 
ATOM     36  HN  UNK N   1      36.408  15.620  17.925  1.00  0.00     0.186 HD
HETATM   37  N   UNK N   1      36.974  13.279  14.197  0.00  0.00    -0.351 N 
ATOM     38  HN  UNK N   1      37.558  14.002  13.776  1.00  0.00     0.166 HD
BRANCH  35  39
HETATM   39  N   UNK N   1      37.526  15.649  15.591  0.00  0.00    -0.383 N 
HETATM   40  H   UNK N   1      38.508  15.607  15.630  0.00  0.00     0.157 HD
HETATM   41  H   UNK N   1      37.082  16.412  15.155  0.00  0.00     0.157 HD
ENDBRANCH  35  39
ENDBRANCH   1  22
TORSDOF 7
ENDMDL
MODEL 9
REMARK VINA RESULT:      -7.5      4.534      8.123
REMARK  7 active torsions:
REMARK  status: ('A' for Active; 'I' for Inactive)
REMARK    1  A    between atoms: O_2  and  C_3 
REMARK    2  A    between atoms: C_3  and  C_5 
REMARK       I    between atoms: N_10  and  C_11 
REMARK    3  A    between atoms: C_11  and  C_13 
REMARK    4  A    between atoms: C_18  and  N_19 
REMARK    5  A    between atoms: N_19  and  C_20 
REMARK    6  A    between atoms: C_20  and  C_21 
REMARK       I    between atoms: C_28  and  N_29 
REMARK    7  A    between atoms: C_32  and  N_33 
ROOT
HETATM    1  C   UNK N   1      35.100  12.568  13.298  0.00  0.00     0.178 C 
ENDROOT
BRANCH   1   2
HETATM    2  N   UNK N   1      36.368  12.348  13.958  0.00  0.00    -0.384 N 
HETATM    3  H   UNK N   1      37.218  12.462  13.473  0.00  0.00     0.160 HD
BRANCH   2   4
HETATM    4  C   UNK N   1      36.350  11.970  15.303  0.00  0.00     0.028 A 
HETATM    5  C   UNK N   1      36.880  10.735  15.670  0.00  0.00     0.030 A 
HETATM    6  C   UNK N   1      36.570  10.194  16.903  0.00  0.00     0.019 A 
HETATM    7  C   UNK N   1      35.699  10.857  17.776  0.00  0.00     0.032 A 
HETATM    8  C   UNK N   1      35.216  12.128  17.426  0.00  0.00     0.019 A 
HETATM    9  C   UNK N   1      35.560  12.693  16.198  0.00  0.00     0.030 A 
BRANCH   7  10
HETATM   10  C   UNK N   1      35.021  10.075  18.838  0.00  0.00     0.253 C 
HETATM   11  N   UNK N   1      35.558   9.931  20.089  0.00  0.00    -0.348 N 
HETATM   12  C   UNK N   1      36.608  10.802  20.588  0.00  0.00     0.127 C 
HETATM   13  C   UNK N   1      35.170   8.813  20.917  0.00  0.00     0.127 C 
HETATM   14  C   UNK N   1      37.779  10.010  21.162  0.00  0.00     0.034 C 
HETATM   15  C   UNK N   1      37.737   8.556  20.709  0.00  0.00     0.088 C 
HETATM   16  C   UNK N   1      36.397   7.885  21.103  0.00  0.00     0.034 C 
HETATM   17  O   UNK N   1      34.030   9.425  18.530  0.00  0.00    -0.267 OA
BRANCH  15  18
HETATM   18  C   UNK N   1      38.940   7.821  21.236  0.00  0.00     0.262 C 
HETATM   19  O   UNK N   1      39.145   7.819  22.438  0.00  0.00    -0.265 OA
BRANCH  18  20
HETATM   20  O   UNK N   1      39.784   7.132  20.423  0.00  0.00    -0.326 OA
HETATM   21  C   UNK N   1      39.574   6.964  19.074  0.00  0.00     0.213 C 
ENDBRANCH  18  20
ENDBRANCH  15  18
ENDBRANCH   7  10
ENDBRANCH   2   4
ENDBRANCH   1   2
BRANCH   1  22
HETATM   22  C   UNK N   1      35.198  13.744  12.430  0.00  0.00     0.043 A 
HETATM   23  C   UNK N   1      36.139  14.746  12.685  0.00  0.00     0.116 A 
HETATM   24  N   UNK N   1      36.158  15.857  11.901  0.00  0.00    -0.348 N 
HETATM   25  C   UNK N   1      35.260  16.005  10.892  0.00  0.00     0.151 A 
ATOM     26  HN  UNK N   1      36.853  16.585  12.072  1.00  0.00     0.167 HD
HETATM   27  N   UNK N   1      35.244  17.131  10.139  0.00  0.00    -0.174 N 
HETATM   28  C   UNK N   1      34.323  14.991  10.644  0.00  0.00     0.122 A 
HETATM   29  C   UNK N   1      34.322  17.288   9.148  0.00  0.00     0.679 A 
ATOM     30  HN  UNK N   1      35.928  17.868  10.315  1.00  0.00     0.186 HD
HETATM   31  N   UNK N   1      34.303  18.473   8.390  0.00  0.00    -0.234 N 
HETATM   32  N   UNK N   1      33.408  16.308   8.898  0.00  0.00    -0.175 N 
HETATM   33  H   UNK N   1      33.635  18.624   7.683  0.00  0.00     0.174 HD
HETATM   34  H   UNK N   1      34.975  19.168   8.572  0.00  0.00     0.174 HD
HETATM   35  C   UNK N   1      33.395  15.164   9.623  0.00  0.00     0.145 A 
ATOM     36  HN  UNK N   1      32.724  16.439   8.153  1.00  0.00     0.186 HD
HETATM   37  N   UNK N   1      34.320  13.880  11.409  0.00  0.00    -0.351 N 
ATOM     38  HN  UNK N   1      33.650  13.137  11.216  1.00  0.00     0.166 HD
BRANCH  35  39
HETATM   39  N   UNK N   1      32.430  14.167   9.357  0.00  0.00    -0.383 N 
HETATM   40  H   UNK N   1      31.833  13.856  10.074  0.00  0.00     0.157 HD
HETATM   41  H   UNK N   1      32.355  13.785   8.452  0.00  0.00     0.157 HD
ENDBRANCH  35  39
ENDBRANCH   1  22
TORSDOF 7
ENDMDL
