REMARK  7 active torsions:
REMARK  status: ('A' for Active; 'I' for Inactive)
REMARK    1  A    between atoms: O_2  and  C_3 
REMARK    2  A    between atoms: C_3  and  C_5 
REMARK       I    between atoms: N_10  and  C_11 
REMARK    3  A    between atoms: C_11  and  C_13 
REMARK    4  A    between atoms: C_18  and  N_19 
REMARK    5  A    between atoms: N_19  and  C_20 
REMARK    6  A    between atoms: C_20  and  C_21 
REMARK       I    between atoms: C_28  and  N_29 
REMARK    7  A    between atoms: C_32  and  N_33 
ROOT
HETATM    1  C   UNK N   1       1.599   0.231   0.771  0.00  0.00     0.178 C 
ENDROOT
BRANCH   1   2
HETATM    2  N   UNK N   1       1.758  -0.844  -0.182  0.00  0.00    -0.384 N 
HETATM    3  H   UNK N   1       2.643  -1.064  -0.555  0.00  0.00     0.160 HD
BRANCH   2   4
HETATM    4  C   UNK N   1       0.619  -1.561  -0.559  0.00  0.00     0.028 A 
HETATM    5  C   UNK N   1      -0.541  -0.867  -0.897  0.00  0.00     0.030 A 
HETATM    6  C   UNK N   1      -1.752  -1.531  -0.932  0.00  0.00     0.019 A 
HETATM    7  C   UNK N   1      -1.833  -2.888  -0.596  0.00  0.00     0.032 A 
HETATM    8  C   UNK N   1      -0.654  -3.595  -0.314  0.00  0.00     0.019 A 
HETATM    9  C   UNK N   1       0.575  -2.935  -0.317  0.00  0.00     0.030 A 
BRANCH   7  10
HETATM   10  C   UNK N   1      -3.145  -3.444  -0.183  0.00  0.00     0.253 C 
HETATM   11  N   UNK N   1      -4.328  -2.848  -0.529  0.00  0.00    -0.348 N 
HETATM   12  C   UNK N   1      -4.421  -1.871  -1.600  0.00  0.00     0.127 C 
HETATM   13  C   UNK N   1      -5.515  -3.091   0.257  0.00  0.00     0.127 C 
HETATM   14  C   UNK N   1      -5.149  -0.606  -1.155  0.00  0.00     0.034 C 
HETATM   15  C   UNK N   1      -5.228  -0.521   0.364  0.00  0.00     0.088 C 
HETATM   16  C   UNK N   1      -5.922  -1.771   0.960  0.00  0.00     0.034 C 
HETATM   17  O   UNK N   1      -3.150  -4.376   0.611  0.00  0.00    -0.267 OA
BRANCH  15  18
HETATM   18  C   UNK N   1      -5.890   0.769   0.770  0.00  0.00     0.262 C 
HETATM   19  O   UNK N   1      -5.226   1.610   1.352  0.00  0.00    -0.265 OA
BRANCH  18  20
HETATM   20  O   UNK N   1      -7.189   1.042   0.478  0.00  0.00    -0.326 OA
HETATM   21  C   UNK N   1      -8.026   0.162  -0.169  0.00  0.00     0.213 C 
ENDBRANCH  18  20
ENDBRANCH  15  18
ENDBRANCH   7  10
ENDBRANCH   2   4
ENDBRANCH   1   2
BRANCH   1  22
HETATM   22  C   UNK N   1       2.671   1.213   0.585  0.00  0.00     0.043 A 
HETATM   23  C   UNK N   1       2.391   2.583   0.569  0.00  0.00     0.116 A 
HETATM   24  N   UNK N   1       3.397   3.465   0.326  0.00  0.00    -0.348 N 
HETATM   25  C   UNK N   1       4.659   3.023   0.081  0.00  0.00     0.151 A 
ATOM     26  HN  UNK N   1       3.203   4.467   0.329  1.00  0.00     0.167 HD
HETATM   27  N   UNK N   1       5.654   3.895  -0.209  0.00  0.00    -0.174 N 
HETATM   28  C   UNK N   1       4.927   1.646   0.104  0.00  0.00     0.122 A 
HETATM   29  C   UNK N   1       6.910   3.444  -0.484  0.00  0.00     0.679 A 
ATOM     30  HN  UNK N   1       5.462   4.897  -0.222  1.00  0.00     0.186 HD
HETATM   31  N   UNK N   1       7.928   4.360  -0.806  0.00  0.00    -0.234 N 
HETATM   32  N   UNK N   1       7.182   2.109  -0.463  0.00  0.00    -0.175 N 
HETATM   33  H   UNK N   1       8.839   4.064  -1.031  0.00  0.00     0.174 HD
HETATM   34  H   UNK N   1       7.723   5.323  -0.806  0.00  0.00     0.174 HD
HETATM   35  C   UNK N   1       6.216   1.204  -0.171  0.00  0.00     0.145 A 
ATOM     36  HN  UNK N   1       8.127   1.786  -0.671  1.00  0.00     0.186 HD
HETATM   37  N   UNK N   1       3.932   0.774   0.366  0.00  0.00    -0.351 N 
ATOM     38  HN  UNK N   1       4.132  -0.225   0.399  1.00  0.00     0.166 HD
BRANCH  35  39
HETATM   39  N   UNK N   1       6.516  -0.176  -0.169  0.00  0.00    -0.383 N 
HETATM   40  H   UNK N   1       5.788  -0.838  -0.168  0.00  0.00     0.157 HD
HETATM   41  H   UNK N   1       7.454  -0.475  -0.169  0.00  0.00     0.157 HD
ENDBRANCH  35  39
ENDBRANCH   1  22
TORSDOF 7
