REMARK  6 active torsions:
REMARK  status: ('A' for Active; 'I' for Inactive)
REMARK    1  A    between atoms: N_1  and  S_2 
REMARK    2  A    between atoms: C_5  and  S_2 
REMARK    3  A    between atoms: C_18  and  C_14 
REMARK       I    between atoms: N_21  and  C_18 
REMARK    4  A    between atoms: C_23  and  N_21 
REMARK    5  A    between atoms: C_24  and  C_27 
REMARK    6  A    between atoms: C_27  and  O_30 
ROOT
HETATM    1  C   UNK N   1       0.177  -1.967  -0.394  0.00  0.00     0.075 A 
HETATM    2  C   UNK N   1      -1.069  -1.390  -0.367  0.00  0.00     0.041 A 
HETATM    3  C   UNK N   1       0.308  -3.342  -0.170  0.00  0.00     0.025 A 
HETATM    4  C   UNK N   1      -2.223  -2.131  -0.141  0.00  0.00     0.033 A 
HETATM    5  C   UNK N   1      -0.846  -4.118   0.052  0.00  0.00     0.003 A 
HETATM    6  C   UNK N   1      -2.117  -3.513   0.071  0.00  0.00     0.017 A 
ENDROOT
BRANCH   4   7
HETATM    7  C   UNK N   1      -3.474  -1.365  -0.046  0.00  0.00     0.256 C 
HETATM    8  N   UNK N   1      -3.360  -0.014  -0.090  0.00  0.00    -0.322 N 
HETATM    9  H   UNK N   1      -2.452   0.314  -0.281  0.00  0.00     0.169 HD
HETATM   10  O   UNK N   1      -4.551  -1.915   0.151  0.00  0.00    -0.267 OA
BRANCH   8  11
HETATM   11  C   UNK N   1      -4.325   1.001   0.092  0.00  0.00     0.051 A 
HETATM   12  C   UNK N   1      -3.885   2.343   0.218  0.00  0.00     0.064 A 
HETATM   13  C   UNK N   1      -4.832   3.351   0.438  0.00  0.00     0.020 A 
HETATM   14  C   UNK N   1      -6.190   3.043   0.528  0.00  0.00     0.001 A 
HETATM   15  C   UNK N   1      -6.619   1.721   0.402  0.00  0.00     0.002 A 
HETATM   16  C   UNK N   1      -5.690   0.700   0.188  0.00  0.00     0.030 A 
BRANCH  12  17
HETATM   17  C   UNK N   1      -2.441   2.726   0.148  0.00  0.00     0.178 C 
HETATM   18  O   UNK N   1      -1.573   1.889  -0.047  0.00  0.00    -0.646 OA
BRANCH  17  19
HETATM   19  O   UNK N   1      -2.079   4.013   0.309  0.00  0.00    -0.773 OA
HETATM   20  H   UNK N   1      -1.178   4.243   0.421  0.00  0.00     0.167 HD
ENDBRANCH  17  19
ENDBRANCH  12  17
ENDBRANCH   8  11
ENDBRANCH   4   7
BRANCH   1  21
HETATM   21  S   UNK N   1       1.555  -0.862  -0.602  0.00  0.00     0.244 S 
HETATM   22  O   UNK N   1       1.079   0.402  -1.342  0.00  0.00    -0.206 OA
HETATM   23  O   UNK N   1       2.678  -1.359  -1.525  0.00  0.00    -0.206 OA
BRANCH  21  24
HETATM   24  N   UNK N   1       2.283  -0.271   0.916  0.00  0.00    -0.202 NA
HETATM   25  C   UNK N   1       2.295   1.190   1.041  0.00  0.00     0.112 C 
HETATM   26  C   UNK N   1       3.249   1.847   0.044  0.00  0.00     0.054 C 
HETATM   27  C   UNK N   1       4.555   1.123  -0.051  0.00  0.00    -0.050 A 
HETATM   28  C   UNK N   1       4.721  -0.167   0.493  0.00  0.00    -0.038 A 
HETATM   29  C   UNK N   1       5.629   1.749  -0.690  0.00  0.00     0.007 A 
HETATM   30  C   UNK N   1       3.589  -0.883   1.171  0.00  0.00     0.146 C 
HETATM   31  C   UNK N   1       5.962  -0.803   0.403  0.00  0.00     0.009 A 
HETATM   32  C   UNK N   1       7.032  -0.169  -0.230  0.00  0.00     0.001 A 
HETATM   33  C   UNK N   1       6.865   1.105  -0.780  0.00  0.00     0.001 A 
ENDBRANCH  21  24
ENDBRANCH   1  21
TORSDOF 6
