MODEL 1
REMARK VINA RESULT:      -8.0      0.000      0.000
REMARK  6 active torsions:
REMARK  status: ('A' for Active; 'I' for Inactive)
REMARK    1  A    between atoms: N_1  and  S_2 
REMARK    2  A    between atoms: C_5  and  S_2 
REMARK    3  A    between atoms: C_18  and  C_14 
REMARK       I    between atoms: N_21  and  C_18 
REMARK    4  A    between atoms: C_23  and  N_21 
REMARK    5  A    between atoms: C_24  and  C_27 
REMARK    6  A    between atoms: C_27  and  O_30 
ROOT
HETATM    1  C   UNK N   1      26.593  28.042  -3.871  0.00  0.00     0.075 A 
HETATM    2  C   UNK N   1      27.101  26.788  -3.634  0.00  0.00     0.041 A 
HETATM    3  C   UNK N   1      25.560  28.207  -4.800  0.00  0.00     0.025 A 
HETATM    4  C   UNK N   1      26.610  25.658  -4.276  0.00  0.00     0.033 A 
HETATM    5  C   UNK N   1      25.037  27.076  -5.457  0.00  0.00     0.003 A 
HETATM    6  C   UNK N   1      25.564  25.797  -5.200  0.00  0.00     0.017 A 
ENDROOT
BRANCH   4   7
HETATM    7  C   UNK N   1      27.313  24.398  -3.994  0.00  0.00     0.256 C 
HETATM    8  N   UNK N   1      28.384  24.115  -4.778  0.00  0.00    -0.322 N 
HETATM    9  H   UNK N   1      28.640  24.837  -5.397  0.00  0.00     0.169 HD
HETATM   10  O   UNK N   1      26.901  23.606  -3.155  0.00  0.00    -0.267 OA
BRANCH   8  11
HETATM   11  C   UNK N   1      29.192  22.960  -4.856  0.00  0.00     0.051 A 
HETATM   12  C   UNK N   1      30.165  22.742  -3.848  0.00  0.00     0.064 A 
HETATM   13  C   UNK N   1      30.998  21.619  -3.938  0.00  0.00     0.020 A 
HETATM   14  C   UNK N   1      30.872  20.725  -5.001  0.00  0.00     0.001 A 
HETATM   15  C   UNK N   1      29.912  20.942  -5.991  0.00  0.00     0.002 A 
HETATM   16  C   UNK N   1      29.075  22.059  -5.922  0.00  0.00     0.030 A 
BRANCH  12  17
HETATM   17  C   UNK N   1      30.355  23.678  -2.697  0.00  0.00     0.178 C 
HETATM   18  O   UNK N   1      30.587  24.863  -2.877  0.00  0.00    -0.646 OA
BRANCH  17  19
HETATM   19  O   UNK N   1      30.278  23.215  -1.435  0.00  0.00    -0.773 OA
HETATM   20  H   UNK N   1      30.618  22.370  -1.217  0.00  0.00     0.167 HD
ENDBRANCH  17  19
ENDBRANCH  12  17
ENDBRANCH   8  11
ENDBRANCH   4   7
BRANCH   1  21
HETATM   21  S   UNK N   1      27.398  29.391  -3.036  0.00  0.00     0.244 S 
HETATM   22  O   UNK N   1      27.576  29.028  -1.550  0.00  0.00    -0.206 OA
HETATM   23  O   UNK N   1      26.594  30.697  -2.944  0.00  0.00    -0.206 OA
BRANCH  21  24
HETATM   24  N   UNK N   1      29.039  29.770  -3.626  0.00  0.00    -0.202 NA
HETATM   25  C   UNK N   1      29.085  30.877  -4.587  0.00  0.00     0.112 C 
HETATM   26  C   UNK N   1      28.428  30.512  -5.918  0.00  0.00     0.054 C 
HETATM   27  C   UNK N   1      28.810  29.141  -6.381  0.00  0.00    -0.050 A 
HETATM   28  C   UNK N   1      29.444  28.225  -5.518  0.00  0.00    -0.038 A 
HETATM   29  C   UNK N   1      28.532  28.773  -7.700  0.00  0.00     0.007 A 
HETATM   30  C   UNK N   1      29.744  28.573  -4.089  0.00  0.00     0.146 C 
HETATM   31  C   UNK N   1      29.804  26.961  -5.993  0.00  0.00     0.009 A 
HETATM   32  C   UNK N   1      29.530  26.602  -7.313  0.00  0.00     0.001 A 
HETATM   33  C   UNK N   1      28.891  27.506  -8.166  0.00  0.00     0.001 A 
ENDBRANCH  21  24
ENDBRANCH   1  21
TORSDOF 6
ENDMDL
MODEL 2
REMARK VINA RESULT:      -7.9      2.506      4.452
REMARK  6 active torsions:
REMARK  status: ('A' for Active; 'I' for Inactive)
REMARK    1  A    between atoms: N_1  and  S_2 
REMARK    2  A    between atoms: C_5  and  S_2 
REMARK    3  A    between atoms: C_18  and  C_14 
REMARK       I    between atoms: N_21  and  C_18 
REMARK    4  A    between atoms: C_23  and  N_21 
REMARK    5  A    between atoms: C_24  and  C_27 
REMARK    6  A    between atoms: C_27  and  O_30 
ROOT
HETATM    1  C   UNK N   1      26.923  23.373  -6.147  0.00  0.00     0.075 A 
HETATM    2  C   UNK N   1      28.165  22.825  -5.938  0.00  0.00     0.041 A 
HETATM    3  C   UNK N   1      26.142  22.929  -7.220  0.00  0.00     0.025 A 
HETATM    4  C   UNK N   1      28.677  21.821  -6.751  0.00  0.00     0.033 A 
HETATM    5  C   UNK N   1      26.633  21.905  -8.054  0.00  0.00     0.003 A 
HETATM    6  C   UNK N   1      27.906  21.350  -7.823  0.00  0.00     0.017 A 
ENDROOT
BRANCH   4   7
HETATM    7  C   UNK N   1      30.055  21.399  -6.465  0.00  0.00     0.256 C 
HETATM    8  N   UNK N   1      30.348  21.131  -5.167  0.00  0.00    -0.322 N 
HETATM    9  H   UNK N   1      29.574  21.152  -4.560  0.00  0.00     0.169 HD
HETATM   10  O   UNK N   1      30.915  21.376  -7.337  0.00  0.00    -0.267 OA
BRANCH   8  11
HETATM   11  C   UNK N   1      31.577  20.825  -4.542  0.00  0.00     0.051 A 
HETATM   12  C   UNK N   1      32.007  21.632  -3.458  0.00  0.00     0.064 A 
HETATM   13  C   UNK N   1      33.242  21.360  -2.857  0.00  0.00     0.020 A 
HETATM   14  C   UNK N   1      34.039  20.309  -3.313  0.00  0.00     0.001 A 
HETATM   15  C   UNK N   1      33.611  19.517  -4.379  0.00  0.00     0.002 A 
HETATM   16  C   UNK N   1      32.385  19.775  -4.996  0.00  0.00     0.030 A 
BRANCH  12  17
HETATM   17  C   UNK N   1      31.201  22.781  -2.941  0.00  0.00     0.178 C 
HETATM   18  O   UNK N   1      30.813  22.812  -1.784  0.00  0.00    -0.646 OA
BRANCH  17  19
HETATM   19  O   UNK N   1      30.887  23.803  -3.761  0.00  0.00    -0.773 OA
HETATM   20  H   UNK N   1      30.048  23.839  -4.175  0.00  0.00     0.167 HD
ENDBRANCH  17  19
ENDBRANCH  12  17
ENDBRANCH   8  11
ENDBRANCH   4   7
BRANCH   1  21
HETATM   21  S   UNK N   1      26.459  24.713  -5.074  0.00  0.00     0.244 S 
HETATM   22  O   UNK N   1      27.717  25.522  -4.707  0.00  0.00    -0.206 OA
HETATM   23  O   UNK N   1      25.934  24.309  -3.688  0.00  0.00    -0.206 OA
BRANCH  21  24
HETATM   24  N   UNK N   1      25.332  25.896  -5.789  0.00  0.00    -0.202 NA
HETATM   25  C   UNK N   1      25.618  26.219  -7.190  0.00  0.00     0.112 C 
HETATM   26  C   UNK N   1      26.921  27.002  -7.348  0.00  0.00     0.054 C 
HETATM   27  C   UNK N   1      27.063  28.079  -6.319  0.00  0.00    -0.050 A 
HETATM   28  C   UNK N   1      26.228  28.125  -5.184  0.00  0.00    -0.038 A 
HETATM   29  C   UNK N   1      28.043  29.058  -6.498  0.00  0.00     0.007 A 
HETATM   30  C   UNK N   1      25.174  27.082  -4.944  0.00  0.00     0.146 C 
HETATM   31  C   UNK N   1      26.376  29.158  -4.255  0.00  0.00     0.009 A 
HETATM   32  C   UNK N   1      27.353  30.137  -4.444  0.00  0.00     0.001 A 
HETATM   33  C   UNK N   1      28.189  30.085  -5.563  0.00  0.00     0.001 A 
ENDBRANCH  21  24
ENDBRANCH   1  21
TORSDOF 6
ENDMDL
MODEL 3
REMARK VINA RESULT:      -7.8      1.688      3.067
REMARK  6 active torsions:
REMARK  status: ('A' for Active; 'I' for Inactive)
REMARK    1  A    between atoms: N_1  and  S_2 
REMARK    2  A    between atoms: C_5  and  S_2 
REMARK    3  A    between atoms: C_18  and  C_14 
REMARK       I    between atoms: N_21  and  C_18 
REMARK    4  A    between atoms: C_23  and  N_21 
REMARK    5  A    between atoms: C_24  and  C_27 
REMARK    6  A    between atoms: C_27  and  O_30 
ROOT
HETATM    1  C   UNK N   1      29.958  28.903  -3.169  0.00  0.00     0.075 A 
HETATM    2  C   UNK N   1      29.562  27.640  -3.536  0.00  0.00     0.041 A 
HETATM    3  C   UNK N   1      31.300  29.275  -3.308  0.00  0.00     0.025 A 
HETATM    4  C   UNK N   1      30.449  26.711  -4.066  0.00  0.00     0.033 A 
HETATM    5  C   UNK N   1      32.218  28.356  -3.851  0.00  0.00     0.003 A 
HETATM    6  C   UNK N   1      31.796  27.067  -4.229  0.00  0.00     0.017 A 
ENDROOT
BRANCH   4   7
HETATM    7  C   UNK N   1      29.903  25.371  -4.325  0.00  0.00     0.256 C 
HETATM    8  N   UNK N   1      30.804  24.390  -4.584  0.00  0.00    -0.322 N 
HETATM    9  H   UNK N   1      31.745  24.660  -4.475  0.00  0.00     0.169 HD
HETATM   10  O   UNK N   1      28.696  25.170  -4.389  0.00  0.00    -0.267 OA
BRANCH   8  11
HETATM   11  C   UNK N   1      30.620  23.049  -4.984  0.00  0.00     0.051 A 
HETATM   12  C   UNK N   1      30.875  22.018  -4.045  0.00  0.00     0.064 A 
HETATM   13  C   UNK N   1      30.733  20.683  -4.445  0.00  0.00     0.020 A 
HETATM   14  C   UNK N   1      30.343  20.369  -5.747  0.00  0.00     0.001 A 
HETATM   15  C   UNK N   1      30.092  21.387  -6.668  0.00  0.00     0.002 A 
HETATM   16  C   UNK N   1      30.233  22.725  -6.291  0.00  0.00     0.030 A 
BRANCH  12  17
HETATM   17  C   UNK N   1      31.314  22.298  -2.642  0.00  0.00     0.178 C 
HETATM   18  O   UNK N   1      32.315  21.776  -2.176  0.00  0.00    -0.646 OA
BRANCH  17  19
HETATM   19  O   UNK N   1      30.595  23.133  -1.868  0.00  0.00    -0.773 OA
HETATM   20  H   UNK N   1      29.984  22.795  -1.244  0.00  0.00     0.167 HD
ENDBRANCH  17  19
ENDBRANCH  12  17
ENDBRANCH   8  11
ENDBRANCH   4   7
BRANCH   1  21
HETATM   21  S   UNK N   1      28.717  29.934  -2.422  0.00  0.00     0.244 S 
HETATM   22  O   UNK N   1      29.407  31.017  -1.572  0.00  0.00    -0.206 OA
HETATM   23  O   UNK N   1      27.816  29.251  -1.382  0.00  0.00    -0.206 OA
BRANCH  21  24
HETATM   24  N   UNK N   1      27.686  30.827  -3.573  0.00  0.00    -0.202 NA
HETATM   25  C   UNK N   1      26.287  30.387  -3.583  0.00  0.00     0.112 C 
HETATM   26  C   UNK N   1      26.129  28.980  -4.158  0.00  0.00     0.054 C 
HETATM   27  C   UNK N   1      26.956  28.774  -5.388  0.00  0.00    -0.050 A 
HETATM   28  C   UNK N   1      27.970  29.684  -5.751  0.00  0.00    -0.038 A 
HETATM   29  C   UNK N   1      26.707  27.657  -6.190  0.00  0.00     0.007 A 
HETATM   30  C   UNK N   1      28.283  30.886  -4.909  0.00  0.00     0.146 C 
HETATM   31  C   UNK N   1      28.708  29.469  -6.918  0.00  0.00     0.009 A 
HETATM   32  C   UNK N   1      28.450  28.355  -7.718  0.00  0.00     0.001 A 
HETATM   33  C   UNK N   1      27.452  27.447  -7.352  0.00  0.00     0.001 A 
ENDBRANCH  21  24
ENDBRANCH   1  21
TORSDOF 6
ENDMDL
MODEL 4
REMARK VINA RESULT:      -7.8     12.594     15.477
REMARK  6 active torsions:
REMARK  status: ('A' for Active; 'I' for Inactive)
REMARK    1  A    between atoms: N_1  and  S_2 
REMARK    2  A    between atoms: C_5  and  S_2 
REMARK    3  A    between atoms: C_18  and  C_14 
REMARK       I    between atoms: N_21  and  C_18 
REMARK    4  A    between atoms: C_23  and  N_21 
REMARK    5  A    between atoms: C_24  and  C_27 
REMARK    6  A    between atoms: C_27  and  O_30 
ROOT
HETATM    1  C   UNK N   1      29.227  15.531   4.397  0.00  0.00     0.075 A 
HETATM    2  C   UNK N   1      29.823  15.647   5.629  0.00  0.00     0.041 A 
HETATM    3  C   UNK N   1      29.748  16.237   3.307  0.00  0.00     0.025 A 
HETATM    4  C   UNK N   1      30.950  16.434   5.835  0.00  0.00     0.033 A 
HETATM    5  C   UNK N   1      30.896  17.034   3.486  0.00  0.00     0.003 A 
HETATM    6  C   UNK N   1      31.499  17.138   4.754  0.00  0.00     0.017 A 
ENDROOT
BRANCH   4   7
HETATM    7  C   UNK N   1      31.421  16.537   7.224  0.00  0.00     0.256 C 
HETATM    8  N   UNK N   1      32.709  16.182   7.453  0.00  0.00    -0.322 N 
HETATM    9  H   UNK N   1      33.229  15.983   6.641  0.00  0.00     0.169 HD
HETATM   10  O   UNK N   1      30.664  16.843   8.138  0.00  0.00    -0.267 OA
BRANCH   8  11
HETATM   11  C   UNK N   1      33.431  16.049   8.660  0.00  0.00     0.051 A 
HETATM   12  C   UNK N   1      34.406  17.028   8.980  0.00  0.00     0.064 A 
HETATM   13  C   UNK N   1      35.153  16.883  10.156  0.00  0.00     0.020 A 
HETATM   14  C   UNK N   1      34.941  15.795  11.003  0.00  0.00     0.001 A 
HETATM   15  C   UNK N   1      33.979  14.835  10.685  0.00  0.00     0.002 A 
HETATM   16  C   UNK N   1      33.227  14.958   9.515  0.00  0.00     0.030 A 
BRANCH  12  17
HETATM   17  C   UNK N   1      34.687  18.202   8.098  0.00  0.00     0.178 C 
HETATM   18  O   UNK N   1      35.051  19.271   8.565  0.00  0.00    -0.646 OA
BRANCH  17  19
HETATM   19  O   UNK N   1      34.531  18.094   6.765  0.00  0.00    -0.773 OA
HETATM   20  H   UNK N   1      33.937  17.465   6.405  0.00  0.00     0.167 HD
ENDBRANCH  17  19
ENDBRANCH  12  17
ENDBRANCH   8  11
ENDBRANCH   4   7
BRANCH   1  21
HETATM   21  S   UNK N   1      27.739  14.560   4.328  0.00  0.00     0.244 S 
HETATM   22  O   UNK N   1      27.928  13.288   5.176  0.00  0.00    -0.206 OA
HETATM   23  O   UNK N   1      27.389  13.969   2.954  0.00  0.00    -0.206 OA
BRANCH  21  24
HETATM   24  N   UNK N   1      26.287  15.356   4.993  0.00  0.00    -0.202 NA
HETATM   25  C   UNK N   1      25.413  15.947   3.975  0.00  0.00     0.112 C 
HETATM   26  C   UNK N   1      26.057  17.153   3.291  0.00  0.00     0.054 C 
HETATM   27  C   UNK N   1      26.740  18.059   4.267  0.00  0.00    -0.050 A 
HETATM   28  C   UNK N   1      26.998  17.651   5.592  0.00  0.00    -0.038 A 
HETATM   29  C   UNK N   1      27.123  19.336   3.848  0.00  0.00     0.007 A 
HETATM   30  C   UNK N   1      26.620  16.282   6.078  0.00  0.00     0.146 C 
HETATM   31  C   UNK N   1      27.619  18.533   6.480  0.00  0.00     0.009 A 
HETATM   32  C   UNK N   1      27.992  19.810   6.057  0.00  0.00     0.001 A 
HETATM   33  C   UNK N   1      27.748  20.210   4.740  0.00  0.00     0.001 A 
ENDBRANCH  21  24
ENDBRANCH   1  21
TORSDOF 6
ENDMDL
MODEL 5
REMARK VINA RESULT:      -7.8     11.534     14.417
REMARK  6 active torsions:
REMARK  status: ('A' for Active; 'I' for Inactive)
REMARK    1  A    between atoms: N_1  and  S_2 
REMARK    2  A    between atoms: C_5  and  S_2 
REMARK    3  A    between atoms: C_18  and  C_14 
REMARK       I    between atoms: N_21  and  C_18 
REMARK    4  A    between atoms: C_23  and  N_21 
REMARK    5  A    between atoms: C_24  and  C_27 
REMARK    6  A    between atoms: C_27  and  O_30 
ROOT
HETATM    1  C   UNK N   1      23.678  19.133   4.190  0.00  0.00     0.075 A 
HETATM    2  C   UNK N   1      24.840  19.076   4.919  0.00  0.00     0.041 A 
HETATM    3  C   UNK N   1      23.631  19.898   3.019  0.00  0.00     0.025 A 
HETATM    4  C   UNK N   1      25.994  19.743   4.525  0.00  0.00     0.033 A 
HETATM    5  C   UNK N   1      24.789  20.577   2.592  0.00  0.00     0.003 A 
HETATM    6  C   UNK N   1      25.975  20.505   3.347  0.00  0.00     0.017 A 
ENDROOT
BRANCH   4   7
HETATM    7  C   UNK N   1      27.132  19.668   5.452  0.00  0.00     0.256 C 
HETATM    8  N   UNK N   1      27.303  18.491   6.105  0.00  0.00    -0.322 N 
HETATM    9  H   UNK N   1      26.699  17.771   5.814  0.00  0.00     0.169 HD
HETATM   10  O   UNK N   1      27.834  20.644   5.689  0.00  0.00    -0.267 OA
BRANCH   8  11
HETATM   11  C   UNK N   1      28.201  18.126   7.132  0.00  0.00     0.051 A 
HETATM   12  C   UNK N   1      29.434  17.524   6.774  0.00  0.00     0.064 A 
HETATM   13  C   UNK N   1      30.313  17.123   7.787  0.00  0.00     0.020 A 
HETATM   14  C   UNK N   1      29.986  17.316   9.130  0.00  0.00     0.001 A 
HETATM   15  C   UNK N   1      28.773  17.911   9.478  0.00  0.00     0.002 A 
HETATM   16  C   UNK N   1      27.879  18.312   8.482  0.00  0.00     0.030 A 
BRANCH  12  17
HETATM   17  C   UNK N   1      29.826  17.277   5.352  0.00  0.00     0.178 C 
HETATM   18  O   UNK N   1      30.193  16.173   4.980  0.00  0.00    -0.646 OA
BRANCH  17  19
HETATM   19  O   UNK N   1      29.785  18.284   4.460  0.00  0.00    -0.773 OA
HETATM   20  H   UNK N   1      29.783  19.175   4.748  0.00  0.00     0.167 HD
ENDBRANCH  17  19
ENDBRANCH  12  17
ENDBRANCH   8  11
ENDBRANCH   4   7
BRANCH   1  21
HETATM   21  S   UNK N   1      22.268  18.298   4.884  0.00  0.00     0.244 S 
HETATM   22  O   UNK N   1      20.982  18.939   4.330  0.00  0.00    -0.206 OA
HETATM   23  O   UNK N   1      22.072  18.463   6.398  0.00  0.00    -0.206 OA
BRANCH  21  24
HETATM   24  N   UNK N   1      22.143  16.566   4.476  0.00  0.00    -0.202 NA
HETATM   25  C   UNK N   1      21.905  15.698   5.634  0.00  0.00     0.112 C 
HETATM   26  C   UNK N   1      23.112  15.639   6.570  0.00  0.00     0.054 C 
HETATM   27  C   UNK N   1      24.401  15.503   5.822  0.00  0.00    -0.050 A 
HETATM   28  C   UNK N   1      24.470  15.719   4.431  0.00  0.00    -0.038 A 
HETATM   29  C   UNK N   1      25.556  15.149   6.526  0.00  0.00     0.007 A 
HETATM   30  C   UNK N   1      23.258  16.118   3.639  0.00  0.00     0.146 C 
HETATM   31  C   UNK N   1      25.688  15.561   3.764  0.00  0.00     0.009 A 
HETATM   32  C   UNK N   1      26.835  15.201   4.472  0.00  0.00     0.001 A 
HETATM   33  C   UNK N   1      26.770  14.998   5.853  0.00  0.00     0.001 A 
ENDBRANCH  21  24
ENDBRANCH   1  21
TORSDOF 6
ENDMDL
MODEL 6
REMARK VINA RESULT:      -7.7      1.928      3.397
REMARK  6 active torsions:
REMARK  status: ('A' for Active; 'I' for Inactive)
REMARK    1  A    between atoms: N_1  and  S_2 
REMARK    2  A    between atoms: C_5  and  S_2 
REMARK    3  A    between atoms: C_18  and  C_14 
REMARK       I    between atoms: N_21  and  C_18 
REMARK    4  A    between atoms: C_23  and  N_21 
REMARK    5  A    between atoms: C_24  and  C_27 
REMARK    6  A    between atoms: C_27  and  O_30 
ROOT
HETATM    1  C   UNK N   1      28.396  26.891  -3.646  0.00  0.00     0.075 A 
HETATM    2  C   UNK N   1      29.104  25.864  -4.221  0.00  0.00     0.041 A 
HETATM    3  C   UNK N   1      29.080  27.965  -3.067  0.00  0.00     0.025 A 
HETATM    4  C   UNK N   1      30.493  25.859  -4.267  0.00  0.00     0.033 A 
HETATM    5  C   UNK N   1      30.487  27.990  -3.109  0.00  0.00     0.003 A 
HETATM    6  C   UNK N   1      31.200  26.933  -3.706  0.00  0.00     0.017 A 
ENDROOT
BRANCH   4   7
HETATM    7  C   UNK N   1      31.116  24.651  -4.827  0.00  0.00     0.256 C 
HETATM    8  N   UNK N   1      30.376  23.515  -4.788  0.00  0.00    -0.322 N 
HETATM    9  H   UNK N   1      29.451  23.640  -4.473  0.00  0.00     0.169 HD
HETATM   10  O   UNK N   1      32.274  24.652  -5.227  0.00  0.00    -0.267 OA
BRANCH   8  11
HETATM   11  C   UNK N   1      30.707  22.184  -5.122  0.00  0.00     0.051 A 
HETATM   12  C   UNK N   1      31.297  21.360  -4.129  0.00  0.00     0.064 A 
HETATM   13  C   UNK N   1      31.665  20.051  -4.463  0.00  0.00     0.020 A 
HETATM   14  C   UNK N   1      31.452  19.560  -5.752  0.00  0.00     0.001 A 
HETATM   15  C   UNK N   1      30.871  20.373  -6.725  0.00  0.00     0.002 A 
HETATM   16  C   UNK N   1      30.502  21.684  -6.414  0.00  0.00     0.030 A 
BRANCH  12  17
HETATM   17  C   UNK N   1      31.563  21.842  -2.739  0.00  0.00     0.178 C 
HETATM   18  O   UNK N   1      30.795  22.607  -2.176  0.00  0.00    -0.646 OA
BRANCH  17  19
HETATM   19  O   UNK N   1      32.671  21.438  -2.089  0.00  0.00    -0.773 OA
HETATM   20  H   UNK N   1      32.616  20.794  -1.411  0.00  0.00     0.167 HD
ENDBRANCH  17  19
ENDBRANCH  12  17
ENDBRANCH   8  11
ENDBRANCH   4   7
BRANCH   1  21
HETATM   21  S   UNK N   1      26.629  26.695  -3.588  0.00  0.00     0.244 S 
HETATM   22  O   UNK N   1      26.133  27.018  -2.166  0.00  0.00    -0.206 OA
HETATM   23  O   UNK N   1      26.107  25.264  -3.782  0.00  0.00    -0.206 OA
BRANCH  21  24
HETATM   24  N   UNK N   1      25.714  27.787  -4.663  0.00  0.00    -0.202 NA
HETATM   25  C   UNK N   1      25.146  27.124  -5.841  0.00  0.00     0.112 C 
HETATM   26  C   UNK N   1      26.225  26.667  -6.822  0.00  0.00     0.054 C 
HETATM   27  C   UNK N   1      27.284  27.705  -7.022  0.00  0.00    -0.050 A 
HETATM   28  C   UNK N   1      27.397  28.815  -6.161  0.00  0.00    -0.038 A 
HETATM   29  C   UNK N   1      28.174  27.564  -8.091  0.00  0.00     0.007 A 
HETATM   30  C   UNK N   1      26.474  28.995  -4.991  0.00  0.00     0.146 C 
HETATM   31  C   UNK N   1      28.386  29.775  -6.392  0.00  0.00     0.009 A 
HETATM   32  C   UNK N   1      29.266  29.632  -7.466  0.00  0.00     0.001 A 
HETATM   33  C   UNK N   1      29.163  28.525  -8.313  0.00  0.00     0.001 A 
ENDBRANCH  21  24
ENDBRANCH   1  21
TORSDOF 6
ENDMDL
MODEL 7
REMARK VINA RESULT:      -7.6     11.960     14.713
REMARK  6 active torsions:
REMARK  status: ('A' for Active; 'I' for Inactive)
REMARK    1  A    between atoms: N_1  and  S_2 
REMARK    2  A    between atoms: C_5  and  S_2 
REMARK    3  A    between atoms: C_18  and  C_14 
REMARK       I    between atoms: N_21  and  C_18 
REMARK    4  A    between atoms: C_23  and  N_21 
REMARK    5  A    between atoms: C_24  and  C_27 
REMARK    6  A    between atoms: C_27  and  O_30 
ROOT
HETATM    1  C   UNK N   1      23.472  18.758   4.394  0.00  0.00     0.075 A 
HETATM    2  C   UNK N   1      24.497  18.046   4.967  0.00  0.00     0.041 A 
HETATM    3  C   UNK N   1      23.759  19.735   3.434  0.00  0.00     0.025 A 
HETATM    4  C   UNK N   1      25.826  18.247   4.613  0.00  0.00     0.033 A 
HETATM    5  C   UNK N   1      25.097  19.952   3.049  0.00  0.00     0.003 A 
HETATM    6  C   UNK N   1      26.136  19.210   3.642  0.00  0.00     0.017 A 
ENDROOT
BRANCH   4   7
HETATM    7  C   UNK N   1      26.821  17.481   5.376  0.00  0.00     0.256 C 
HETATM    8  N   UNK N   1      27.935  18.152   5.761  0.00  0.00    -0.322 N 
HETATM    9  H   UNK N   1      27.917  19.117   5.571  0.00  0.00     0.169 HD
HETATM   10  O   UNK N   1      26.690  16.279   5.578  0.00  0.00    -0.267 OA
BRANCH   8  11
HETATM   11  C   UNK N   1      29.117  17.698   6.388  0.00  0.00     0.051 A 
HETATM   12  C   UNK N   1      29.170  17.678   7.805  0.00  0.00     0.064 A 
HETATM   13  C   UNK N   1      30.351  17.266   8.435  0.00  0.00     0.020 A 
HETATM   14  C   UNK N   1      31.460  16.878   7.682  0.00  0.00     0.001 A 
HETATM   15  C   UNK N   1      31.403  16.898   6.288  0.00  0.00     0.002 A 
HETATM   16  C   UNK N   1      30.236  17.310   5.640  0.00  0.00     0.030 A 
BRANCH  12  17
HETATM   17  C   UNK N   1      28.017  18.101   8.659  0.00  0.00     0.178 C 
HETATM   18  O   UNK N   1      27.587  17.378   9.545  0.00  0.00    -0.646 OA
BRANCH  17  19
HETATM   19  O   UNK N   1      27.431  19.295   8.452  0.00  0.00    -0.773 OA
HETATM   20  H   UNK N   1      27.133  19.537   7.598  0.00  0.00     0.167 HD
ENDBRANCH  17  19
ENDBRANCH  12  17
ENDBRANCH   8  11
ENDBRANCH   4   7
BRANCH   1  21
HETATM   21  S   UNK N   1      21.841  18.444   5.029  0.00  0.00     0.244 S 
HETATM   22  O   UNK N   1      20.933  19.644   4.701  0.00  0.00    -0.206 OA
HETATM   23  O   UNK N   1      21.720  18.372   6.559  0.00  0.00    -0.206 OA
BRANCH  21  24
HETATM   24  N   UNK N   1      21.018  17.027   4.324  0.00  0.00    -0.202 NA
HETATM   25  C   UNK N   1      20.641  16.007   5.308  0.00  0.00     0.112 C 
HETATM   26  C   UNK N   1      21.859  15.305   5.907  0.00  0.00     0.054 C 
HETATM   27  C   UNK N   1      22.881  14.960   4.871  0.00  0.00    -0.050 A 
HETATM   28  C   UNK N   1      22.825  15.509   3.573  0.00  0.00    -0.038 A 
HETATM   29  C   UNK N   1      23.907  14.071   5.203  0.00  0.00     0.007 A 
HETATM   30  C   UNK N   1      21.751  16.482   3.179  0.00  0.00     0.146 C 
HETATM   31  C   UNK N   1      23.785  15.147   2.625  0.00  0.00     0.009 A 
HETATM   32  C   UNK N   1      24.802  14.253   2.962  0.00  0.00     0.001 A 
HETATM   33  C   UNK N   1      24.866  13.718   4.252  0.00  0.00     0.001 A 
ENDBRANCH  21  24
ENDBRANCH   1  21
TORSDOF 6
ENDMDL
MODEL 8
REMARK VINA RESULT:      -7.6     17.977     21.852
REMARK  6 active torsions:
REMARK  status: ('A' for Active; 'I' for Inactive)
REMARK    1  A    between atoms: N_1  and  S_2 
REMARK    2  A    between atoms: C_5  and  S_2 
REMARK    3  A    between atoms: C_18  and  C_14 
REMARK       I    between atoms: N_21  and  C_18 
REMARK    4  A    between atoms: C_23  and  N_21 
REMARK    5  A    between atoms: C_24  and  C_27 
REMARK    6  A    between atoms: C_27  and  O_30 
ROOT
HETATM    1  C   UNK N   1      35.107  14.562  11.524  0.00  0.00     0.075 A 
HETATM    2  C   UNK N   1      33.999  14.537  10.713  0.00  0.00     0.041 A 
HETATM    3  C   UNK N   1      35.974  15.659  11.477  0.00  0.00     0.025 A 
HETATM    4  C   UNK N   1      33.690  15.581   9.849  0.00  0.00     0.033 A 
HETATM    5  C   UNK N   1      35.680  16.735  10.618  0.00  0.00     0.003 A 
HETATM    6  C   UNK N   1      34.537  16.698   9.797  0.00  0.00     0.017 A 
ENDROOT
BRANCH   4   7
HETATM    7  C   UNK N   1      32.527  15.374   8.975  0.00  0.00     0.256 C 
HETATM    8  N   UNK N   1      31.938  16.490   8.478  0.00  0.00    -0.322 N 
HETATM    9  H   UNK N   1      32.415  17.328   8.678  0.00  0.00     0.169 HD
HETATM   10  O   UNK N   1      32.061  14.258   8.779  0.00  0.00    -0.267 OA
BRANCH   8  11
HETATM   11  C   UNK N   1      30.756  16.653   7.723  0.00  0.00     0.051 A 
HETATM   12  C   UNK N   1      29.607  17.182   8.364  0.00  0.00     0.064 A 
HETATM   13  C   UNK N   1      28.419  17.310   7.632  0.00  0.00     0.020 A 
HETATM   14  C   UNK N   1      28.365  16.928   6.291  0.00  0.00     0.001 A 
HETATM   15  C   UNK N   1      29.499  16.409   5.664  0.00  0.00     0.002 A 
HETATM   16  C   UNK N   1      30.692  16.268   6.378  0.00  0.00     0.030 A 
BRANCH  12  17
HETATM   17  C   UNK N   1      29.604  17.590   9.802  0.00  0.00     0.178 C 
HETATM   18  O   UNK N   1      29.573  18.768  10.126  0.00  0.00    -0.646 OA
BRANCH  17  19
HETATM   19  O   UNK N   1      29.645  16.652  10.767  0.00  0.00    -0.773 OA
HETATM   20  H   UNK N   1      29.728  16.898  11.667  0.00  0.00     0.167 HD
ENDBRANCH  17  19
ENDBRANCH  12  17
ENDBRANCH   8  11
ENDBRANCH   4   7
BRANCH   1  21
HETATM   21  S   UNK N   1      35.406  13.104  12.499  0.00  0.00     0.244 S 
HETATM   22  O   UNK N   1      35.551  11.892  11.560  0.00  0.00    -0.206 OA
HETATM   23  O   UNK N   1      34.250  12.659  13.407  0.00  0.00    -0.206 OA
BRANCH  21  24
HETATM   24  N   UNK N   1      36.908  13.136  13.460  0.00  0.00    -0.202 NA
HETATM   25  C   UNK N   1      37.508  11.814  13.671  0.00  0.00     0.112 C 
HETATM   26  C   UNK N   1      36.656  10.932  14.583  0.00  0.00     0.054 C 
HETATM   27  C   UNK N   1      36.133  11.682  15.768  0.00  0.00    -0.050 A 
HETATM   28  C   UNK N   1      36.188  13.089  15.829  0.00  0.00    -0.038 A 
HETATM   29  C   UNK N   1      35.587  10.962  16.834  0.00  0.00     0.007 A 
HETATM   30  C   UNK N   1      36.749  13.901  14.699  0.00  0.00     0.146 C 
HETATM   31  C   UNK N   1      35.709  13.753  16.962  0.00  0.00     0.009 A 
HETATM   32  C   UNK N   1      35.171  13.027  18.026  0.00  0.00     0.001 A 
HETATM   33  C   UNK N   1      35.106  11.633  17.961  0.00  0.00     0.001 A 
ENDBRANCH  21  24
ENDBRANCH   1  21
TORSDOF 6
ENDMDL
MODEL 9
REMARK VINA RESULT:      -7.5     18.568     22.736
REMARK  6 active torsions:
REMARK  status: ('A' for Active; 'I' for Inactive)
REMARK    1  A    between atoms: N_1  and  S_2 
REMARK    2  A    between atoms: C_5  and  S_2 
REMARK    3  A    between atoms: C_18  and  C_14 
REMARK       I    between atoms: N_21  and  C_18 
REMARK    4  A    between atoms: C_23  and  N_21 
REMARK    5  A    between atoms: C_24  and  C_27 
REMARK    6  A    between atoms: C_27  and  O_30 
ROOT
HETATM    1  C   UNK N   1      36.596  13.047  11.652  0.00  0.00     0.075 A 
HETATM    2  C   UNK N   1      35.702  13.564  10.747  0.00  0.00     0.041 A 
HETATM    3  C   UNK N   1      37.952  12.964  11.316  0.00  0.00     0.025 A 
HETATM    4  C   UNK N   1      36.099  14.032   9.500  0.00  0.00     0.033 A 
HETATM    5  C   UNK N   1      38.382  13.440  10.062  0.00  0.00     0.003 A 
HETATM    6  C   UNK N   1      37.455  13.973   9.147  0.00  0.00     0.017 A 
ENDROOT
BRANCH   4   7
HETATM    7  C   UNK N   1      35.021  14.470   8.602  0.00  0.00     0.256 C 
HETATM    8  N   UNK N   1      35.379  15.287   7.580  0.00  0.00    -0.322 N 
HETATM    9  H   UNK N   1      36.349  15.425   7.488  0.00  0.00     0.169 HD
HETATM   10  O   UNK N   1      33.849  14.183   8.817  0.00  0.00    -0.267 OA
BRANCH   8  11
HETATM   11  C   UNK N   1      34.595  15.973   6.627  0.00  0.00     0.051 A 
HETATM   12  C   UNK N   1      34.097  17.260   6.955  0.00  0.00     0.064 A 
HETATM   13  C   UNK N   1      33.286  17.931   6.031  0.00  0.00     0.020 A 
HETATM   14  C   UNK N   1      32.975  17.346   4.803  0.00  0.00     0.001 A 
HETATM   15  C   UNK N   1      33.468  16.080   4.483  0.00  0.00     0.002 A 
HETATM   16  C   UNK N   1      34.274  15.392   5.393  0.00  0.00     0.030 A 
BRANCH  12  17
HETATM   17  C   UNK N   1      34.385  17.925   8.263  0.00  0.00     0.178 C 
HETATM   18  O   UNK N   1      34.985  18.987   8.314  0.00  0.00    -0.646 OA
BRANCH  17  19
HETATM   19  O   UNK N   1      33.988  17.346   9.412  0.00  0.00    -0.773 OA
HETATM   20  H   UNK N   1      34.487  16.649   9.791  0.00  0.00     0.167 HD
ENDBRANCH  17  19
ENDBRANCH  12  17
ENDBRANCH   8  11
ENDBRANCH   4   7
BRANCH   1  21
HETATM   21  S   UNK N   1      35.910  12.406  13.163  0.00  0.00     0.244 S 
HETATM   22  O   UNK N   1      34.601  13.154  13.477  0.00  0.00    -0.206 OA
HETATM   23  O   UNK N   1      36.732  12.668  14.434  0.00  0.00    -0.206 OA
BRANCH  21  24
HETATM   24  N   UNK N   1      35.465  10.679  13.116  0.00  0.00    -0.202 NA
HETATM   25  C   UNK N   1      34.064  10.416  13.462  0.00  0.00     0.112 C 
HETATM   26  C   UNK N   1      33.771  10.701  14.935  0.00  0.00     0.054 C 
HETATM   27  C   UNK N   1      34.844  10.180  15.837  0.00  0.00    -0.050 A 
HETATM   28  C   UNK N   1      36.093   9.765  15.330  0.00  0.00    -0.038 A 
HETATM   29  C   UNK N   1      34.594  10.102  17.210  0.00  0.00     0.007 A 
HETATM   30  C   UNK N   1      36.410   9.850  13.865  0.00  0.00     0.146 C 
HETATM   31  C   UNK N   1      37.063   9.265  16.202  0.00  0.00     0.009 A 
HETATM   32  C   UNK N   1      36.804   9.183  17.570  0.00  0.00     0.001 A 
HETATM   33  C   UNK N   1      35.571   9.605  18.075  0.00  0.00     0.001 A 
ENDBRANCH  21  24
ENDBRANCH   1  21
TORSDOF 6
ENDMDL
