MODEL 1
REMARK VINA RESULT:      -9.0      0.000      0.000
REMARK  4 active torsions:
REMARK  status: ('A' for Active; 'I' for Inactive)
REMARK    1  A    between atoms: C_10  and  S_11 
REMARK    2  A    between atoms: N_14  and  S_11 
REMARK    3  A    between atoms: S_20  and  N_19 
REMARK    4  A    between atoms: S_20  and  C_23 
ROOT
HETATM    1  N   UNK N   1      35.063  16.179   8.649  0.00  0.00    -0.204 NA
HETATM    2  C   UNK N   1      34.504  14.830   8.756  0.00  0.00     0.123 C 
HETATM    3  C   UNK N   1      35.226  14.066   9.874  0.00  0.00     0.123 C 
HETATM    4  C   UNK N   1      34.888  16.885   9.917  0.00  0.00     0.123 C 
HETATM    5  C   UNK N   1      35.619  16.127  11.024  0.00  0.00     0.123 C 
HETATM    6  N   UNK N   1      35.058  14.783  11.138  0.00  0.00    -0.204 NA
ENDROOT
BRANCH   1   7
HETATM    7  S   UNK N   1      34.213  17.071   7.375  0.00  0.00     0.243 S 
HETATM    8  O   UNK N   1      34.785  18.495   7.444  0.00  0.00    -0.206 OA
HETATM    9  O   UNK N   1      34.846  16.588   6.062  0.00  0.00    -0.206 OA
BRANCH   7  10
HETATM   10  C   UNK N   1      32.425  17.101   7.255  0.00  0.00     0.077 A 
HETATM   11  C   UNK N   1      31.659  17.486   8.359  0.00  0.00     0.064 A 
HETATM   12  C   UNK N   1      30.264  17.425   8.297  0.00  0.00     0.103 A 
HETATM   13  C   UNK N   1      29.634  16.956   7.133  0.00  0.00     0.102 A 
HETATM   14  O   UNK N   1      29.511  17.814   9.349  0.00  0.00    -0.346 OA
HETATM   15  O   UNK N   1      28.283  16.854   7.107  0.00  0.00    -0.346 OA
HETATM   16  C   UNK N   1      30.396  16.587   6.023  0.00  0.00     0.041 A 
HETATM   17  C   UNK N   1      27.524  16.977   8.260  0.00  0.00     0.202 C 
HETATM   18  C   UNK N   1      28.141  17.994   9.231  0.00  0.00     0.202 C 
HETATM   19  C   UNK N   1      31.793  16.656   6.085  0.00  0.00     0.028 A 
ENDBRANCH   7  10
ENDBRANCH   1   7
BRANCH   6  20
HETATM   20  S   UNK N   1      35.883  13.904  12.442  0.00  0.00     0.249 S 
HETATM   21  O   UNK N   1      37.201  13.425  11.811  0.00  0.00    -0.205 OA
HETATM   22  O   UNK N   1      36.418  15.010  13.364  0.00  0.00    -0.205 OA
BRANCH  20  23
HETATM   23  C   UNK N   1      35.083  12.575  13.374  0.00  0.00     0.151 A 
HETATM   24  C   UNK N   1      34.523  11.469  12.705  0.00  0.00     0.142 A 
HETATM   25  C   UNK N   1      33.890  10.455  13.430  0.00  0.00     0.044 A 
HETATM   26  F   UNK N   1      34.579  11.373  11.354  0.00  0.00    -0.204 F 
HETATM   27  C   UNK N   1      33.808  10.532  14.821  0.00  0.00     0.006 A 
HETATM   28  C   UNK N   1      34.353  11.629  15.492  0.00  0.00     0.044 A 
HETATM   29  C   UNK N   1      34.988  12.649  14.775  0.00  0.00     0.142 A 
HETATM   30  F   UNK N   1      35.499  13.710  15.446  0.00  0.00    -0.204 F 
ENDBRANCH  20  23
ENDBRANCH   6  20
TORSDOF 4
ENDMDL
MODEL 2
REMARK VINA RESULT:      -8.9      1.243      1.959
REMARK  4 active torsions:
REMARK  status: ('A' for Active; 'I' for Inactive)
REMARK    1  A    between atoms: C_10  and  S_11 
REMARK    2  A    between atoms: N_14  and  S_11 
REMARK    3  A    between atoms: S_20  and  N_19 
REMARK    4  A    between atoms: S_20  and  C_23 
ROOT
HETATM    1  N   UNK N   1      34.814  16.249   8.648  0.00  0.00    -0.204 NA
HETATM    2  C   UNK N   1      34.045  15.004   8.622  0.00  0.00     0.123 C 
HETATM    3  C   UNK N   1      34.787  13.929   9.426  0.00  0.00     0.123 C 
HETATM    4  C   UNK N   1      34.977  16.697  10.030  0.00  0.00     0.123 C 
HETATM    5  C   UNK N   1      35.727  15.628  10.824  0.00  0.00     0.123 C 
HETATM    6  N   UNK N   1      34.957  14.386  10.805  0.00  0.00    -0.204 NA
ENDROOT
BRANCH   1   7
HETATM    7  S   UNK N   1      33.945  17.499   7.740  0.00  0.00     0.243 S 
HETATM    8  O   UNK N   1      34.481  18.830   8.291  0.00  0.00    -0.206 OA
HETATM    9  O   UNK N   1      34.595  17.503   6.348  0.00  0.00    -0.206 OA
BRANCH   7  10
HETATM   10  C   UNK N   1      32.158  17.527   7.616  0.00  0.00     0.077 A 
HETATM   11  C   UNK N   1      31.534  17.083   6.446  0.00  0.00     0.064 A 
HETATM   12  C   UNK N   1      30.146  17.187   6.313  0.00  0.00     0.103 A 
HETATM   13  C   UNK N   1      29.384  17.756   7.345  0.00  0.00     0.102 A 
HETATM   14  O   UNK N   1      29.527  16.743   5.197  0.00  0.00    -0.346 OA
HETATM   15  O   UNK N   1      28.046  17.897   7.180  0.00  0.00    -0.346 OA
HETATM   16  C   UNK N   1      30.003  18.184   8.521  0.00  0.00     0.041 A 
HETATM   17  C   UNK N   1      27.444  17.711   5.945  0.00  0.00     0.202 C 
HETATM   18  C   UNK N   1      28.148  16.610   5.139  0.00  0.00     0.202 C 
HETATM   19  C   UNK N   1      31.392  18.073   8.656  0.00  0.00     0.028 A 
ENDBRANCH   7  10
ENDBRANCH   1   7
BRANCH   6  20
HETATM   20  S   UNK N   1      35.809  13.147  11.749  0.00  0.00     0.249 S 
HETATM   21  O   UNK N   1      35.669  11.862  10.916  0.00  0.00    -0.205 OA
HETATM   22  O   UNK N   1      37.297  13.452  11.519  0.00  0.00    -0.205 OA
BRANCH  20  23
HETATM   23  C   UNK N   1      35.445  12.837  13.495  0.00  0.00     0.151 A 
HETATM   24  C   UNK N   1      34.563  11.804  13.869  0.00  0.00     0.142 A 
HETATM   25  C   UNK N   1      34.273  11.583  15.219  0.00  0.00     0.044 A 
HETATM   26  F   UNK N   1      33.977  11.017  12.934  0.00  0.00    -0.204 F 
HETATM   27  C   UNK N   1      34.853  12.383  16.203  0.00  0.00     0.006 A 
HETATM   28  C   UNK N   1      35.722  13.414  15.841  0.00  0.00     0.044 A 
HETATM   29  C   UNK N   1      36.019  13.644  14.493  0.00  0.00     0.142 A 
HETATM   30  F   UNK N   1      36.855  14.659  14.164  0.00  0.00    -0.204 F 
ENDBRANCH  20  23
ENDBRANCH   6  20
TORSDOF 4
ENDMDL
MODEL 3
REMARK VINA RESULT:      -8.8      4.045      9.292
REMARK  4 active torsions:
REMARK  status: ('A' for Active; 'I' for Inactive)
REMARK    1  A    between atoms: C_10  and  S_11 
REMARK    2  A    between atoms: N_14  and  S_11 
REMARK    3  A    between atoms: S_20  and  N_19 
REMARK    4  A    between atoms: S_20  and  C_23 
ROOT
HETATM    1  N   UNK N   1      32.546  17.605   7.358  0.00  0.00    -0.204 NA
HETATM    2  C   UNK N   1      31.691  17.251   8.493  0.00  0.00     0.123 C 
HETATM    3  C   UNK N   1      30.225  17.509   8.125  0.00  0.00     0.123 C 
HETATM    4  C   UNK N   1      32.183  16.794   6.198  0.00  0.00     0.123 C 
HETATM    5  C   UNK N   1      30.724  17.064   5.828  0.00  0.00     0.123 C 
HETATM    6  N   UNK N   1      29.868  16.704   6.956  0.00  0.00    -0.204 NA
ENDROOT
BRANCH   1   7
HETATM    7  S   UNK N   1      34.240  17.284   7.773  0.00  0.00     0.243 S 
HETATM    8  O   UNK N   1      34.873  16.771   6.470  0.00  0.00    -0.206 OA
HETATM    9  O   UNK N   1      34.896  18.669   7.865  0.00  0.00    -0.206 OA
BRANCH   7  10
HETATM   10  C   UNK N   1      34.709  16.256   9.164  0.00  0.00     0.077 A 
HETATM   11  C   UNK N   1      34.448  14.883   9.134  0.00  0.00     0.064 A 
HETATM   12  C   UNK N   1      34.731  14.094  10.254  0.00  0.00     0.103 A 
HETATM   13  C   UNK N   1      35.257  14.686  11.413  0.00  0.00     0.102 A 
HETATM   14  O   UNK N   1      34.504  12.763  10.231  0.00  0.00    -0.346 OA
HETATM   15  O   UNK N   1      35.477  13.917  12.507  0.00  0.00    -0.346 OA
HETATM   16  C   UNK N   1      35.534  16.054  11.439  0.00  0.00     0.041 A 
HETATM   17  C   UNK N   1      34.990  12.622  12.594  0.00  0.00     0.202 C 
HETATM   18  C   UNK N   1      34.996  11.928  11.224  0.00  0.00     0.202 C 
HETATM   19  C   UNK N   1      35.256  16.841  10.315  0.00  0.00     0.028 A 
ENDBRANCH   7  10
ENDBRANCH   1   7
BRANCH   6  20
HETATM   20  S   UNK N   1      28.170  16.988   6.526  0.00  0.00     0.249 S 
HETATM   21  O   UNK N   1      27.772  15.761   5.690  0.00  0.00    -0.205 OA
HETATM   22  O   UNK N   1      27.396  16.691   7.819  0.00  0.00    -0.205 OA
BRANCH  20  23
HETATM   23  C   UNK N   1      27.612  18.522   5.742  0.00  0.00     0.151 A 
HETATM   24  C   UNK N   1      27.450  18.593   4.344  0.00  0.00     0.142 A 
HETATM   25  C   UNK N   1      27.036  19.786   3.745  0.00  0.00     0.044 A 
HETATM   26  F   UNK N   1      27.699  17.516   3.560  0.00  0.00    -0.204 F 
HETATM   27  C   UNK N   1      26.782  20.914   4.526  0.00  0.00     0.006 A 
HETATM   28  C   UNK N   1      26.947  20.855   5.911  0.00  0.00     0.044 A 
HETATM   29  C   UNK N   1      27.361  19.666   6.521  0.00  0.00     0.142 A 
HETATM   30  F   UNK N   1      27.528  19.635   7.865  0.00  0.00    -0.204 F 
ENDBRANCH  20  23
ENDBRANCH   6  20
TORSDOF 4
ENDMDL
MODEL 4
REMARK VINA RESULT:      -8.8      4.047      9.416
REMARK  4 active torsions:
REMARK  status: ('A' for Active; 'I' for Inactive)
REMARK    1  A    between atoms: C_10  and  S_11 
REMARK    2  A    between atoms: N_14  and  S_11 
REMARK    3  A    between atoms: S_20  and  N_19 
REMARK    4  A    between atoms: S_20  and  C_23 
ROOT
HETATM    1  N   UNK N   1      32.580  17.656   7.351  0.00  0.00    -0.204 NA
HETATM    2  C   UNK N   1      31.723  17.334   8.494  0.00  0.00     0.123 C 
HETATM    3  C   UNK N   1      30.258  17.586   8.120  0.00  0.00     0.123 C 
HETATM    4  C   UNK N   1      32.215  16.816   6.212  0.00  0.00     0.123 C 
HETATM    5  C   UNK N   1      30.757  17.080   5.835  0.00  0.00     0.123 C 
HETATM    6  N   UNK N   1      29.899  16.752   6.972  0.00  0.00    -0.204 NA
ENDROOT
BRANCH   1   7
HETATM    7  S   UNK N   1      34.272  17.341   7.774  0.00  0.00     0.243 S 
HETATM    8  O   UNK N   1      34.914  16.831   6.475  0.00  0.00    -0.206 OA
HETATM    9  O   UNK N   1      34.923  18.730   7.870  0.00  0.00    -0.206 OA
BRANCH   7  10
HETATM   10  C   UNK N   1      34.738  16.316   9.168  0.00  0.00     0.077 A 
HETATM   11  C   UNK N   1      34.478  14.942   9.139  0.00  0.00     0.064 A 
HETATM   12  C   UNK N   1      34.759  14.155  10.260  0.00  0.00     0.103 A 
HETATM   13  C   UNK N   1      35.280  14.748  11.420  0.00  0.00     0.102 A 
HETATM   14  O   UNK N   1      34.532  12.823  10.238  0.00  0.00    -0.346 OA
HETATM   15  O   UNK N   1      35.498  13.980  12.515  0.00  0.00    -0.346 OA
HETATM   16  C   UNK N   1      35.556  16.116  11.445  0.00  0.00     0.041 A 
HETATM   17  C   UNK N   1      35.011  12.685  12.602  0.00  0.00     0.202 C 
HETATM   18  C   UNK N   1      35.022  11.990  11.233  0.00  0.00     0.202 C 
HETATM   19  C   UNK N   1      35.282  16.902  10.319  0.00  0.00     0.028 A 
ENDBRANCH   7  10
ENDBRANCH   1   7
BRANCH   6  20
HETATM   20  S   UNK N   1      28.202  17.030   6.533  0.00  0.00     0.249 S 
HETATM   21  O   UNK N   1      27.811  15.797   5.702  0.00  0.00    -0.205 OA
HETATM   22  O   UNK N   1      27.424  16.735   7.825  0.00  0.00    -0.205 OA
BRANCH  20  23
HETATM   23  C   UNK N   1      27.642  18.558   5.740  0.00  0.00     0.151 A 
HETATM   24  C   UNK N   1      27.378  19.708   6.510  0.00  0.00     0.142 A 
HETATM   25  C   UNK N   1      26.929  20.878   5.893  0.00  0.00     0.044 A 
HETATM   26  F   UNK N   1      27.544  19.697   7.855  0.00  0.00    -0.204 F 
HETATM   27  C   UNK N   1      26.738  20.916   4.511  0.00  0.00     0.006 A 
HETATM   28  C   UNK N   1      26.991  19.779   3.741  0.00  0.00     0.044 A 
HETATM   29  C   UNK N   1      27.440  18.602   4.349  0.00  0.00     0.142 A 
HETATM   30  F   UNK N   1      27.666  17.507   3.584  0.00  0.00    -0.204 F 
ENDBRANCH  20  23
ENDBRANCH   6  20
TORSDOF 4
ENDMDL
MODEL 5
REMARK VINA RESULT:      -8.3      1.800      2.543
REMARK  4 active torsions:
REMARK  status: ('A' for Active; 'I' for Inactive)
REMARK    1  A    between atoms: C_10  and  S_11 
REMARK    2  A    between atoms: N_14  and  S_11 
REMARK    3  A    between atoms: S_20  and  N_19 
REMARK    4  A    between atoms: S_20  and  C_23 
ROOT
HETATM    1  N   UNK N   1      34.458  16.134   8.420  0.00  0.00    -0.204 NA
HETATM    2  C   UNK N   1      33.484  15.075   8.691  0.00  0.00     0.123 C 
HETATM    3  C   UNK N   1      34.189  13.900   9.380  0.00  0.00     0.123 C 
HETATM    4  C   UNK N   1      35.053  16.589   9.676  0.00  0.00     0.123 C 
HETATM    5  C   UNK N   1      35.763  15.416  10.352  0.00  0.00     0.123 C 
HETATM    6  N   UNK N   1      34.792  14.361  10.631  0.00  0.00    -0.204 NA
ENDROOT
BRANCH   1   7
HETATM    7  S   UNK N   1      33.640  17.504   7.646  0.00  0.00     0.243 S 
HETATM    8  O   UNK N   1      32.796  18.139   8.762  0.00  0.00    -0.206 OA
HETATM    9  O   UNK N   1      34.727  18.577   7.486  0.00  0.00    -0.206 OA
BRANCH   7  10
HETATM   10  C   UNK N   1      32.686  17.325   6.140  0.00  0.00     0.077 A 
HETATM   11  C   UNK N   1      31.324  17.016   6.211  0.00  0.00     0.064 A 
HETATM   12  C   UNK N   1      30.598  16.788   5.038  0.00  0.00     0.103 A 
HETATM   13  C   UNK N   1      31.242  16.849   3.793  0.00  0.00     0.102 A 
HETATM   14  O   UNK N   1      29.277  16.510   5.091  0.00  0.00    -0.346 OA
HETATM   15  O   UNK N   1      30.536  16.575   2.669  0.00  0.00    -0.346 OA
HETATM   16  C   UNK N   1      32.597  17.174   3.718  0.00  0.00     0.041 A 
HETATM   17  C   UNK N   1      29.268  16.016   2.726  0.00  0.00     0.202 C 
HETATM   18  C   UNK N   1      28.489  16.521   3.950  0.00  0.00     0.202 C 
HETATM   19  C   UNK N   1      33.321  17.409   4.893  0.00  0.00     0.028 A 
ENDBRANCH   7  10
ENDBRANCH   1   7
BRANCH   6  20
HETATM   20  S   UNK N   1      35.605  13.007  11.442  0.00  0.00     0.249 S 
HETATM   21  O   UNK N   1      35.718  11.920  10.361  0.00  0.00    -0.205 OA
HETATM   22  O   UNK N   1      37.075  13.446  11.531  0.00  0.00    -0.205 OA
BRANCH  20  23
HETATM   23  C   UNK N   1      35.010  12.315  13.006  0.00  0.00     0.151 A 
HETATM   24  C   UNK N   1      34.294  11.103  13.025  0.00  0.00     0.142 A 
HETATM   25  C   UNK N   1      33.822  10.585  14.235  0.00  0.00     0.044 A 
HETATM   26  F   UNK N   1      34.042  10.426  11.878  0.00  0.00    -0.204 F 
HETATM   27  C   UNK N   1      34.057  11.265  15.430  0.00  0.00     0.006 A 
HETATM   28  C   UNK N   1      34.759  12.471  15.420  0.00  0.00     0.044 A 
HETATM   29  C   UNK N   1      35.235  12.999  14.214  0.00  0.00     0.142 A 
HETATM   30  F   UNK N   1      35.903  14.177  14.226  0.00  0.00    -0.204 F 
ENDBRANCH  20  23
ENDBRANCH   6  20
TORSDOF 4
ENDMDL
MODEL 6
REMARK VINA RESULT:      -8.2      2.788      8.798
REMARK  4 active torsions:
REMARK  status: ('A' for Active; 'I' for Inactive)
REMARK    1  A    between atoms: C_10  and  S_11 
REMARK    2  A    between atoms: N_14  and  S_11 
REMARK    3  A    between atoms: S_20  and  N_19 
REMARK    4  A    between atoms: S_20  and  C_23 
ROOT
HETATM    1  N   UNK N   1      34.795  14.415  10.733  0.00  0.00    -0.204 NA
HETATM    2  C   UNK N   1      34.266  13.901   9.469  0.00  0.00     0.123 C 
HETATM    3  C   UNK N   1      33.515  15.021   8.738  0.00  0.00     0.123 C 
HETATM    4  C   UNK N   1      35.709  15.525  10.468  0.00  0.00     0.123 C 
HETATM    5  C   UNK N   1      34.952  16.643   9.750  0.00  0.00     0.123 C 
HETATM    6  N   UNK N   1      34.430  16.134   8.484  0.00  0.00    -0.204 NA
ENDROOT
BRANCH   1   7
HETATM    7  S   UNK N   1      35.685  13.128  11.567  0.00  0.00     0.243 S 
HETATM    8  O   UNK N   1      35.659  11.938  10.596  0.00  0.00    -0.206 OA
HETATM    9  O   UNK N   1      37.163  13.533  11.460  0.00  0.00    -0.206 OA
BRANCH   7  10
HETATM   10  C   UNK N   1      35.280  12.607  13.233  0.00  0.00     0.077 A 
HETATM   11  C   UNK N   1      35.623  13.418  14.319  0.00  0.00     0.064 A 
HETATM   12  C   UNK N   1      35.388  12.973  15.624  0.00  0.00     0.103 A 
HETATM   13  C   UNK N   1      34.829  11.704  15.842  0.00  0.00     0.102 A 
HETATM   14  O   UNK N   1      35.696  13.755  16.682  0.00  0.00    -0.346 OA
HETATM   15  O   UNK N   1      34.656  11.267  17.113  0.00  0.00    -0.346 OA
HETATM   16  C   UNK N   1      34.470  10.900  14.759  0.00  0.00     0.041 A 
HETATM   17  C   UNK N   1      35.221  11.930  18.191  0.00  0.00     0.202 C 
HETATM   18  C   UNK N   1      35.256  13.448  17.961  0.00  0.00     0.202 C 
HETATM   19  C   UNK N   1      34.699  11.350  13.453  0.00  0.00     0.028 A 
ENDBRANCH   7  10
ENDBRANCH   1   7
BRANCH   6  20
HETATM   20  S   UNK N   1      33.574  17.434   7.631  0.00  0.00     0.249 S 
HETATM   21  O   UNK N   1      33.833  18.690   8.479  0.00  0.00    -0.205 OA
HETATM   22  O   UNK N   1      34.466  17.743   6.419  0.00  0.00    -0.205 OA
BRANCH  20  23
HETATM   23  C   UNK N   1      31.828  17.306   7.170  0.00  0.00     0.151 A 
HETATM   24  C   UNK N   1      30.824  17.799   8.027  0.00  0.00     0.142 A 
HETATM   25  C   UNK N   1      29.477  17.680   7.672  0.00  0.00     0.044 A 
HETATM   26  F   UNK N   1      31.143  18.386   9.206  0.00  0.00    -0.204 F 
HETATM   27  C   UNK N   1      29.118  17.071   6.468  0.00  0.00     0.006 A 
HETATM   28  C   UNK N   1      30.106  16.573   5.617  0.00  0.00     0.044 A 
HETATM   29  C   UNK N   1      31.457  16.687   5.963  0.00  0.00     0.142 A 
HETATM   30  F   UNK N   1      32.398  16.184   5.128  0.00  0.00    -0.204 F 
ENDBRANCH  20  23
ENDBRANCH   6  20
TORSDOF 4
ENDMDL
MODEL 7
REMARK VINA RESULT:      -7.9      2.478      3.338
REMARK  4 active torsions:
REMARK  status: ('A' for Active; 'I' for Inactive)
REMARK    1  A    between atoms: C_10  and  S_11 
REMARK    2  A    between atoms: N_14  and  S_11 
REMARK    3  A    between atoms: S_20  and  N_19 
REMARK    4  A    between atoms: S_20  and  C_23 
ROOT
HETATM    1  N   UNK N   1      33.821  15.727   7.917  0.00  0.00    -0.204 NA
HETATM    2  C   UNK N   1      33.579  15.887   9.352  0.00  0.00     0.123 C 
HETATM    3  C   UNK N   1      34.133  14.670  10.101  0.00  0.00     0.123 C 
HETATM    4  C   UNK N   1      35.257  15.613   7.670  0.00  0.00     0.123 C 
HETATM    5  C   UNK N   1      35.802  14.391   8.410  0.00  0.00     0.123 C 
HETATM    6  N   UNK N   1      35.569  14.553   9.843  0.00  0.00    -0.204 NA
ENDROOT
BRANCH   1   7
HETATM    7  S   UNK N   1      33.203  17.146   7.051  0.00  0.00     0.243 S 
HETATM    8  O   UNK N   1      32.630  18.056   8.148  0.00  0.00    -0.206 OA
HETATM    9  O   UNK N   1      34.453  17.948   6.660  0.00  0.00    -0.206 OA
BRANCH   7  10
HETATM   10  C   UNK N   1      32.069  17.009   5.671  0.00  0.00     0.077 A 
HETATM   11  C   UNK N   1      30.725  16.700   5.903  0.00  0.00     0.064 A 
HETATM   12  C   UNK N   1      29.858  16.505   4.823  0.00  0.00     0.103 A 
HETATM   13  C   UNK N   1      30.342  16.597   3.509  0.00  0.00     0.102 A 
HETATM   14  O   UNK N   1      28.552  16.226   5.032  0.00  0.00    -0.346 OA
HETATM   15  O   UNK N   1      29.501  16.355   2.475  0.00  0.00    -0.346 OA
HETATM   16  C   UNK N   1      31.680  16.923   3.276  0.00  0.00     0.041 A 
HETATM   17  C   UNK N   1      28.248  15.797   2.674  0.00  0.00     0.202 C 
HETATM   18  C   UNK N   1      27.629  16.269   3.998  0.00  0.00     0.202 C 
HETATM   19  C   UNK N   1      32.545  17.125   4.358  0.00  0.00     0.028 A 
ENDBRANCH   7  10
ENDBRANCH   1   7
BRANCH   6  20
HETATM   20  S   UNK N   1      36.224  13.150  10.712  0.00  0.00     0.249 S 
HETATM   21  O   UNK N   1      35.316  11.980  10.299  0.00  0.00    -0.205 OA
HETATM   22  O   UNK N   1      37.498  12.784   9.934  0.00  0.00    -0.205 OA
BRANCH  20  23
HETATM   23  C   UNK N   1      36.504  13.161  12.500  0.00  0.00     0.151 A 
HETATM   24  C   UNK N   1      36.329  14.345  13.244  0.00  0.00     0.142 A 
HETATM   25  C   UNK N   1      36.565  14.349  14.622  0.00  0.00     0.044 A 
HETATM   26  F   UNK N   1      35.941  15.494  12.640  0.00  0.00    -0.204 F 
HETATM   27  C   UNK N   1      36.976  13.183  15.270  0.00  0.00     0.006 A 
HETATM   28  C   UNK N   1      37.159  12.008  14.539  0.00  0.00     0.044 A 
HETATM   29  C   UNK N   1      36.926  11.992  13.159  0.00  0.00     0.142 A 
HETATM   30  F   UNK N   1      37.123  10.844  12.468  0.00  0.00    -0.204 F 
ENDBRANCH  20  23
ENDBRANCH   6  20
TORSDOF 4
ENDMDL
MODEL 8
REMARK VINA RESULT:      -7.8      3.132      8.784
REMARK  4 active torsions:
REMARK  status: ('A' for Active; 'I' for Inactive)
REMARK    1  A    between atoms: C_10  and  S_11 
REMARK    2  A    between atoms: N_14  and  S_11 
REMARK    3  A    between atoms: S_20  and  N_19 
REMARK    4  A    between atoms: S_20  and  C_23 
ROOT
HETATM    1  N   UNK N   1      35.050  14.503   9.347  0.00  0.00    -0.204 NA
HETATM    2  C   UNK N   1      35.390  15.308   8.172  0.00  0.00     0.123 C 
HETATM    3  C   UNK N   1      34.199  15.329   7.207  0.00  0.00     0.123 C 
HETATM    4  C   UNK N   1      33.886  15.079  10.018  0.00  0.00     0.123 C 
HETATM    5  C   UNK N   1      32.699  15.086   9.055  0.00  0.00     0.123 C 
HETATM    6  N   UNK N   1      33.033  15.896   7.885  0.00  0.00    -0.204 NA
ENDROOT
BRANCH   1   7
HETATM    7  S   UNK N   1      36.417  14.499  10.476  0.00  0.00     0.243 S 
HETATM    8  O   UNK N   1      37.647  14.202   9.604  0.00  0.00    -0.206 OA
HETATM    9  O   UNK N   1      36.668  15.979  10.801  0.00  0.00    -0.206 OA
BRANCH   7  10
HETATM   10  C   UNK N   1      36.428  13.503  11.965  0.00  0.00     0.077 A 
HETATM   11  C   UNK N   1      35.571  13.822  13.023  0.00  0.00     0.064 A 
HETATM   12  C   UNK N   1      35.641  13.101  14.219  0.00  0.00     0.103 A 
HETATM   13  C   UNK N   1      36.585  12.073  14.364  0.00  0.00     0.102 A 
HETATM   14  O   UNK N   1      34.805  13.385  15.242  0.00  0.00    -0.346 OA
HETATM   15  O   UNK N   1      36.675  11.418  15.547  0.00  0.00    -0.346 OA
HETATM   16  C   UNK N   1      37.430  11.741  13.303  0.00  0.00     0.041 A 
HETATM   17  C   UNK N   1      36.029  11.882  16.683  0.00  0.00     0.202 C 
HETATM   18  C   UNK N   1      34.686  12.539  16.335  0.00  0.00     0.202 C 
HETATM   19  C   UNK N   1      37.354  12.459  12.104  0.00  0.00     0.028 A 
ENDBRANCH   7  10
ENDBRANCH   1   7
BRANCH   6  20
HETATM   20  S   UNK N   1      31.649  15.931   6.775  0.00  0.00     0.249 S 
HETATM   21  O   UNK N   1      32.261  16.257   5.403  0.00  0.00    -0.205 OA
HETATM   22  O   UNK N   1      31.295  14.451   6.563  0.00  0.00    -0.205 OA
BRANCH  20  23
HETATM   23  C   UNK N   1      30.178  16.940   7.090  0.00  0.00     0.151 A 
HETATM   24  C   UNK N   1      30.177  17.899   8.121  0.00  0.00     0.142 A 
HETATM   25  C   UNK N   1      29.031  18.661   8.370  0.00  0.00     0.044 A 
HETATM   26  F   UNK N   1      31.275  18.094   8.891  0.00  0.00    -0.204 F 
HETATM   27  C   UNK N   1      27.882  18.476   7.600  0.00  0.00     0.006 A 
HETATM   28  C   UNK N   1      27.872  17.521   6.581  0.00  0.00     0.044 A 
HETATM   29  C   UNK N   1      29.014  16.753   6.324  0.00  0.00     0.142 A 
HETATM   30  F   UNK N   1      28.977  15.824   5.339  0.00  0.00    -0.204 F 
ENDBRANCH  20  23
ENDBRANCH   6  20
TORSDOF 4
ENDMDL
MODEL 9
REMARK VINA RESULT:      -7.5      4.251      9.425
REMARK  4 active torsions:
REMARK  status: ('A' for Active; 'I' for Inactive)
REMARK    1  A    between atoms: C_10  and  S_11 
REMARK    2  A    between atoms: N_14  and  S_11 
REMARK    3  A    between atoms: S_20  and  N_19 
REMARK    4  A    between atoms: S_20  and  C_23 
ROOT
HETATM    1  N   UNK N   1      32.504  17.521   6.754  0.00  0.00    -0.204 NA
HETATM    2  C   UNK N   1      31.477  17.087   7.703  0.00  0.00     0.123 C 
HETATM    3  C   UNK N   1      30.091  17.444   7.151  0.00  0.00     0.123 C 
HETATM    4  C   UNK N   1      32.302  16.853   5.470  0.00  0.00     0.123 C 
HETATM    5  C   UNK N   1      30.924  17.222   4.920  0.00  0.00     0.123 C 
HETATM    6  N   UNK N   1      29.896  16.782   5.861  0.00  0.00    -0.204 NA
ENDROOT
BRANCH   1   7
HETATM    7  S   UNK N   1      34.106  17.087   7.379  0.00  0.00     0.243 S 
HETATM    8  O   UNK N   1      34.914  16.680   6.137  0.00  0.00    -0.206 OA
HETATM    9  O   UNK N   1      34.779  18.426   7.713  0.00  0.00    -0.206 OA
BRANCH   7  10
HETATM   10  C   UNK N   1      34.329  15.906   8.707  0.00  0.00     0.077 A 
HETATM   11  C   UNK N   1      35.070  16.262   9.838  0.00  0.00     0.064 A 
HETATM   12  C   UNK N   1      35.320  15.314  10.836  0.00  0.00     0.103 A 
HETATM   13  C   UNK N   1      34.846  14.001  10.689  0.00  0.00     0.102 A 
HETATM   14  O   UNK N   1      36.017  15.650  11.943  0.00  0.00    -0.346 OA
HETATM   15  O   UNK N   1      35.141  13.081  11.639  0.00  0.00    -0.346 OA
HETATM   16  C   UNK N   1      34.091  13.648   9.569  0.00  0.00     0.041 A 
HETATM   17  C   UNK N   1      36.081  13.333  12.626  0.00  0.00     0.202 C 
HETATM   18  C   UNK N   1      36.070  14.810  13.046  0.00  0.00     0.202 C 
HETATM   19  C   UNK N   1      33.835  14.600   8.575  0.00  0.00     0.028 A 
ENDBRANCH   7  10
ENDBRANCH   1   7
BRANCH   6  20
HETATM   20  S   UNK N   1      28.292  17.182   5.216  0.00  0.00     0.249 S 
HETATM   21  O   UNK N   1      27.407  17.357   6.460  0.00  0.00    -0.205 OA
HETATM   22  O   UNK N   1      28.417  18.647   4.771  0.00  0.00    -0.205 OA
BRANCH  20  23
HETATM   23  C   UNK N   1      27.468  16.164   3.965  0.00  0.00     0.151 A 
HETATM   24  C   UNK N   1      27.928  14.862   3.686  0.00  0.00     0.142 A 
HETATM   25  C   UNK N   1      27.298  14.089   2.707  0.00  0.00     0.044 A 
HETATM   26  F   UNK N   1      28.989  14.343   4.351  0.00  0.00    -0.204 F 
HETATM   27  C   UNK N   1      26.211  14.602   1.998  0.00  0.00     0.006 A 
HETATM   28  C   UNK N   1      25.753  15.894   2.263  0.00  0.00     0.044 A 
HETATM   29  C   UNK N   1      26.377  16.676   3.241  0.00  0.00     0.142 A 
HETATM   30  F   UNK N   1      25.923  17.932   3.472  0.00  0.00    -0.204 F 
ENDBRANCH  20  23
ENDBRANCH   6  20
TORSDOF 4
ENDMDL
