REMARK  3 active torsions:
REMARK  status: ('A' for Active; 'I' for Inactive)
REMARK    1  A    between atoms: C_8  and  C_9 
REMARK       I    between atoms: C_9  and  N_11 
REMARK    2  A    between atoms: N_11  and  C_12 
REMARK    3  A    between atoms: C_16  and  O_17 
ROOT
HETATM    1  C   UNK N   1       1.921   0.204  -0.101  0.00  0.00     0.257 C 
HETATM    2  O   UNK N   1       1.971   1.419  -0.237  0.00  0.00    -0.267 OA
HETATM    3  N   UNK N   1       0.720  -0.412   0.048  0.00  0.00    -0.323 N 
HETATM    4  H   UNK N   1       0.740  -1.390   0.155  0.00  0.00     0.169 HD
ENDROOT
BRANCH   3   5
HETATM    5  C   UNK N   1      -0.562   0.199   0.068  0.00  0.00     0.037 A 
HETATM    6  C   UNK N   1      -1.683  -0.623   0.197  0.00  0.00     0.051 A 
HETATM    7  C   UNK N   1      -2.967  -0.079   0.197  0.00  0.00     0.047 A 
HETATM    8 Br   UNK N   1      -4.466  -1.251   0.363  0.00  0.00    -0.048 Br
HETATM    9  C   UNK N   1      -3.139   1.307   0.067  0.00  0.00     0.100 A 
HETATM   10  C   UNK N   1      -2.016   2.140  -0.056  0.00  0.00     0.047 A 
HETATM   11 Br   UNK N   1      -2.206   4.032  -0.236  0.00  0.00    -0.048 Br
HETATM   12  C   UNK N   1      -0.735   1.585  -0.056  0.00  0.00     0.051 A 
BRANCH   9  13
HETATM   13  O   UNK N   1      -4.375   1.835   0.058  0.00  0.00    -0.358 OA
HETATM   14  H   UNK N   1      -4.488   2.766   0.052  0.00  0.00     0.217 HD
ENDBRANCH   9  13
ENDBRANCH   3   5
BRANCH   1  15
HETATM   15  C   UNK N   1       3.189  -0.610  -0.080  0.00  0.00     0.044 A 
HETATM   16  C   UNK N   1       4.466   0.023  -0.037  0.00  0.00    -0.046 A 
HETATM   17  C   UNK N   1       4.636   1.506  -0.004  0.00  0.00     0.049 C 
HETATM   18  C   UNK N   1       5.631  -0.746  -0.002  0.00  0.00     0.008 A 
HETATM   19  C   UNK N   1       5.569  -2.134  -0.014  0.00  0.00     0.001 A 
HETATM   20  C   UNK N   1       4.338  -2.773  -0.065  0.00  0.00     0.008 A 
HETATM   21  C   UNK N   1       3.151  -2.040  -0.096  0.00  0.00    -0.046 A 
HETATM   22  C   UNK N   1       1.885  -2.828  -0.168  0.00  0.00     0.049 C 
ENDBRANCH   1  15
TORSDOF 3
