MODEL 1
REMARK VINA RESULT:      -7.0      0.000      0.000
REMARK  3 active torsions:
REMARK  status: ('A' for Active; 'I' for Inactive)
REMARK    1  A    between atoms: C_8  and  C_9 
REMARK       I    between atoms: C_9  and  N_11 
REMARK    2  A    between atoms: N_11  and  C_12 
REMARK    3  A    between atoms: C_16  and  O_17 
ROOT
HETATM    1  C   UNK N   1      35.160  12.495  15.724  0.00  0.00     0.257 C 
HETATM    2  O   UNK N   1      34.084  12.654  15.164  0.00  0.00    -0.267 OA
HETATM    3  N   UNK N   1      36.315  12.678  15.034  0.00  0.00    -0.323 N 
HETATM    4  H   UNK N   1      37.151  12.535  15.534  0.00  0.00     0.169 HD
ENDROOT
BRANCH   3   5
HETATM    5  C   UNK N   1      36.452  13.053  13.671  0.00  0.00     0.037 A 
HETATM    6  C   UNK N   1      37.089  12.164  12.803  0.00  0.00     0.051 A 
HETATM    7  C   UNK N   1      37.273  12.491  11.460  0.00  0.00     0.047 A 
HETATM    8 Br   UNK N   1      38.164  11.244  10.320  0.00  0.00    -0.048 Br
HETATM    9  C   UNK N   1      36.815  13.723  10.971  0.00  0.00     0.100 A 
HETATM   10  C   UNK N   1      36.167  14.618  11.837  0.00  0.00     0.047 A 
HETATM   11 Br   UNK N   1      35.527  16.306  11.212  0.00  0.00    -0.048 Br
HETATM   12  C   UNK N   1      35.989  14.282  13.180  0.00  0.00     0.051 A 
BRANCH   9  13
HETATM   13  O   UNK N   1      36.997  14.046   9.680  0.00  0.00    -0.358 OA
HETATM   14  H   UNK N   1      37.796  13.816   9.246  0.00  0.00     0.217 HD
ENDBRANCH   9  13
ENDBRANCH   3   5
BRANCH   1  15
HETATM   15  C   UNK N   1      35.209  12.078  17.171  0.00  0.00     0.044 A 
HETATM   16  C   UNK N   1      35.178  10.701  17.539  0.00  0.00    -0.046 A 
HETATM   17  C   UNK N   1      35.103   9.595  16.539  0.00  0.00     0.049 C 
HETATM   18  C   UNK N   1      35.239  10.331  18.884  0.00  0.00     0.008 A 
HETATM   19  C   UNK N   1      35.326  11.292  19.884  0.00  0.00     0.001 A 
HETATM   20  C   UNK N   1      35.348  12.639  19.551  0.00  0.00     0.008 A 
HETATM   21  C   UNK N   1      35.293  13.049  18.218  0.00  0.00    -0.046 A 
HETATM   22  C   UNK N   1      35.306  14.522  17.975  0.00  0.00     0.049 C 
ENDBRANCH   1  15
TORSDOF 3
ENDMDL
MODEL 2
REMARK VINA RESULT:      -7.0      0.037      1.953
REMARK  3 active torsions:
REMARK  status: ('A' for Active; 'I' for Inactive)
REMARK    1  A    between atoms: C_8  and  C_9 
REMARK       I    between atoms: C_9  and  N_11 
REMARK    2  A    between atoms: N_11  and  C_12 
REMARK    3  A    between atoms: C_16  and  O_17 
ROOT
HETATM    1  C   UNK N   1      35.154  12.506  15.732  0.00  0.00     0.257 C 
HETATM    2  O   UNK N   1      34.075  12.666  15.178  0.00  0.00    -0.267 OA
HETATM    3  N   UNK N   1      36.306  12.680  15.034  0.00  0.00    -0.323 N 
HETATM    4  H   UNK N   1      37.143  12.535  15.530  0.00  0.00     0.169 HD
ENDROOT
BRANCH   3   5
HETATM    5  C   UNK N   1      36.436  13.045  13.668  0.00  0.00     0.037 A 
HETATM    6  C   UNK N   1      37.073  12.153  12.804  0.00  0.00     0.051 A 
HETATM    7  C   UNK N   1      37.251  12.472  11.458  0.00  0.00     0.047 A 
HETATM    8 Br   UNK N   1      38.141  11.220  10.323  0.00  0.00    -0.048 Br
HETATM    9  C   UNK N   1      36.785  13.699  10.963  0.00  0.00     0.100 A 
HETATM   10  C   UNK N   1      36.137  14.597  11.824  0.00  0.00     0.047 A 
HETATM   11 Br   UNK N   1      35.490  16.279  11.191  0.00  0.00    -0.048 Br
HETATM   12  C   UNK N   1      35.966  14.269  13.170  0.00  0.00     0.051 A 
BRANCH   9  13
HETATM   13  O   UNK N   1      36.962  14.014   9.668  0.00  0.00    -0.358 OA
HETATM   14  H   UNK N   1      36.320  13.763   9.032  0.00  0.00     0.217 HD
ENDBRANCH   9  13
ENDBRANCH   3   5
BRANCH   1  15
HETATM   15  C   UNK N   1      35.209  12.097  17.181  0.00  0.00     0.044 A 
HETATM   16  C   UNK N   1      35.298  13.075  18.215  0.00  0.00    -0.046 A 
HETATM   17  C   UNK N   1      35.335  14.542  17.944  0.00  0.00     0.049 C 
HETATM   18  C   UNK N   1      35.332  12.680  19.554  0.00  0.00     0.008 A 
HETATM   19  C   UNK N   1      35.287  11.336  19.902  0.00  0.00     0.001 A 
HETATM   20  C   UNK N   1      35.209  10.365  18.913  0.00  0.00     0.008 A 
HETATM   21  C   UNK N   1      35.168  10.719  17.564  0.00  0.00    -0.046 A 
HETATM   22  C   UNK N   1      35.103   9.595  16.584  0.00  0.00     0.049 C 
ENDBRANCH   1  15
TORSDOF 3
ENDMDL
MODEL 3
REMARK VINA RESULT:      -6.9      0.111      2.126
REMARK  3 active torsions:
REMARK  status: ('A' for Active; 'I' for Inactive)
REMARK    1  A    between atoms: C_8  and  C_9 
REMARK       I    between atoms: C_9  and  N_11 
REMARK    2  A    between atoms: N_11  and  C_12 
REMARK    3  A    between atoms: C_16  and  O_17 
ROOT
HETATM    1  C   UNK N   1      35.210  12.446  15.729  0.00  0.00     0.257 C 
HETATM    2  O   UNK N   1      34.152  12.634  15.143  0.00  0.00    -0.267 OA
HETATM    3  N   UNK N   1      36.385  12.568  15.061  0.00  0.00    -0.323 N 
HETATM    4  H   UNK N   1      37.204  12.405  15.581  0.00  0.00     0.169 HD
ENDROOT
BRANCH   3   5
HETATM    5  C   UNK N   1      36.565  12.905  13.692  0.00  0.00     0.037 A 
HETATM    6  C   UNK N   1      36.078  14.135  13.246  0.00  0.00     0.051 A 
HETATM    7  C   UNK N   1      36.204  14.505  11.907  0.00  0.00     0.047 A 
HETATM    8 Br   UNK N   1      35.509  16.194  11.348  0.00  0.00    -0.048 Br
HETATM    9  C   UNK N   1      36.825  13.637  10.997  0.00  0.00     0.100 A 
HETATM   10  C   UNK N   1      37.323  12.402  11.441  0.00  0.00     0.047 A 
HETATM   11 Br   UNK N   1      38.175  11.191  10.234  0.00  0.00    -0.048 Br
HETATM   12  C   UNK N   1      37.191  12.040  12.783  0.00  0.00     0.051 A 
BRANCH   9  13
HETATM   13  O   UNK N   1      36.941  13.986   9.704  0.00  0.00    -0.358 OA
HETATM   14  H   UNK N   1      37.759  14.308   9.376  0.00  0.00     0.217 HD
ENDBRANCH   9  13
ENDBRANCH   3   5
BRANCH   1  15
HETATM   15  C   UNK N   1      35.212  12.063  17.186  0.00  0.00     0.044 A 
HETATM   16  C   UNK N   1      35.139  10.695  17.585  0.00  0.00    -0.046 A 
HETATM   17  C   UNK N   1      35.064   9.569  16.608  0.00  0.00     0.049 C 
HETATM   18  C   UNK N   1      35.159  10.356  18.939  0.00  0.00     0.008 A 
HETATM   19  C   UNK N   1      35.242  11.337  19.918  0.00  0.00     0.001 A 
HETATM   20  C   UNK N   1      35.305  12.676  19.556  0.00  0.00     0.008 A 
HETATM   21  C   UNK N   1      35.293  13.055  18.213  0.00  0.00    -0.046 A 
HETATM   22  C   UNK N   1      35.346  14.522  17.937  0.00  0.00     0.049 C 
ENDBRANCH   1  15
TORSDOF 3
ENDMDL
MODEL 4
REMARK VINA RESULT:      -6.9      0.113      2.887
REMARK  3 active torsions:
REMARK  status: ('A' for Active; 'I' for Inactive)
REMARK    1  A    between atoms: C_8  and  C_9 
REMARK       I    between atoms: C_9  and  N_11 
REMARK    2  A    between atoms: N_11  and  C_12 
REMARK    3  A    between atoms: C_16  and  O_17 
ROOT
HETATM    1  C   UNK N   1      35.213  12.469  15.719  0.00  0.00     0.257 C 
HETATM    2  O   UNK N   1      34.155  12.672  15.139  0.00  0.00    -0.267 OA
HETATM    3  N   UNK N   1      36.387  12.576  15.044  0.00  0.00    -0.323 N 
HETATM    4  H   UNK N   1      37.206  12.400  15.560  0.00  0.00     0.169 HD
ENDROOT
BRANCH   3   5
HETATM    5  C   UNK N   1      36.563  12.911  13.675  0.00  0.00     0.037 A 
HETATM    6  C   UNK N   1      36.075  14.141  13.229  0.00  0.00     0.051 A 
HETATM    7  C   UNK N   1      36.198  14.511  11.890  0.00  0.00     0.047 A 
HETATM    8 Br   UNK N   1      35.502  16.200  11.331  0.00  0.00    -0.048 Br
HETATM    9  C   UNK N   1      36.818  13.643  10.979  0.00  0.00     0.100 A 
HETATM   10  C   UNK N   1      37.317  12.408  11.422  0.00  0.00     0.047 A 
HETATM   11 Br   UNK N   1      38.166  11.197  10.215  0.00  0.00    -0.048 Br
HETATM   12  C   UNK N   1      37.187  12.047  12.765  0.00  0.00     0.051 A 
BRANCH   9  13
HETATM   13  O   UNK N   1      36.931  13.992   9.686  0.00  0.00    -0.358 OA
HETATM   14  H   UNK N   1      36.354  14.634   9.320  0.00  0.00     0.217 HD
ENDBRANCH   9  13
ENDBRANCH   3   5
BRANCH   1  15
HETATM   15  C   UNK N   1      35.218  12.083  17.175  0.00  0.00     0.044 A 
HETATM   16  C   UNK N   1      35.296  13.075  18.196  0.00  0.00    -0.046 A 
HETATM   17  C   UNK N   1      35.371  14.537  17.903  0.00  0.00     0.049 C 
HETATM   18  C   UNK N   1      35.284  12.702  19.542  0.00  0.00     0.008 A 
HETATM   19  C   UNK N   1      35.201  11.365  19.909  0.00  0.00     0.001 A 
HETATM   20  C   UNK N   1      35.133  10.380  18.933  0.00  0.00     0.008 A 
HETATM   21  C   UNK N   1      35.138  10.713  17.578  0.00  0.00    -0.046 A 
HETATM   22  C   UNK N   1      35.079   9.574  16.614  0.00  0.00     0.049 C 
ENDBRANCH   1  15
TORSDOF 3
ENDMDL
MODEL 5
REMARK VINA RESULT:      -6.4     15.487     16.885
REMARK  3 active torsions:
REMARK  status: ('A' for Active; 'I' for Inactive)
REMARK    1  A    between atoms: C_8  and  C_9 
REMARK       I    between atoms: C_9  and  N_11 
REMARK    2  A    between atoms: N_11  and  C_12 
REMARK    3  A    between atoms: C_16  and  O_17 
ROOT
HETATM    1  C   UNK N   1      22.192  16.073   6.032  0.00  0.00     0.257 C 
HETATM    2  O   UNK N   1      22.093  15.569   4.921  0.00  0.00    -0.267 OA
HETATM    3  N   UNK N   1      22.601  17.361   6.157  0.00  0.00    -0.323 N 
HETATM    4  H   UNK N   1      22.663  17.713   7.074  0.00  0.00     0.169 HD
ENDROOT
BRANCH   3   5
HETATM    5  C   UNK N   1      22.951  18.257   5.112  0.00  0.00     0.037 A 
HETATM    6  C   UNK N   1      24.300  18.566   4.932  0.00  0.00     0.051 A 
HETATM    7  C   UNK N   1      24.698  19.460   3.938  0.00  0.00     0.047 A 
HETATM    8 Br   UNK N   1      26.556  19.857   3.743  0.00  0.00    -0.048 Br
HETATM    9  C   UNK N   1      23.737  20.055   3.108  0.00  0.00     0.100 A 
HETATM   10  C   UNK N   1      22.379  19.744   3.279  0.00  0.00     0.047 A 
HETATM   11 Br   UNK N   1      21.038  20.533   2.172  0.00  0.00    -0.048 Br
HETATM   12  C   UNK N   1      21.991  18.849   4.278  0.00  0.00     0.051 A 
BRANCH   9  13
HETATM   13  O   UNK N   1      24.114  20.923   2.154  0.00  0.00    -0.358 OA
HETATM   14  H   UNK N   1      24.571  21.709   2.387  0.00  0.00     0.217 HD
ENDBRANCH   9  13
ENDBRANCH   3   5
BRANCH   1  15
HETATM   15  C   UNK N   1      21.878  15.262   7.263  0.00  0.00     0.044 A 
HETATM   16  C   UNK N   1      22.791  14.280   7.747  0.00  0.00    -0.046 A 
HETATM   17  C   UNK N   1      24.099  13.994   7.087  0.00  0.00     0.049 C 
HETATM   18  C   UNK N   1      22.492  13.549   8.898  0.00  0.00     0.008 A 
HETATM   19  C   UNK N   1      21.303  13.758   9.587  0.00  0.00     0.001 A 
HETATM   20  C   UNK N   1      20.394  14.702   9.130  0.00  0.00     0.008 A 
HETATM   21  C   UNK N   1      20.659  15.457   7.986  0.00  0.00    -0.046 A 
HETATM   22  C   UNK N   1      19.605  16.431   7.574  0.00  0.00     0.049 C 
ENDBRANCH   1  15
TORSDOF 3
ENDMDL
MODEL 6
REMARK VINA RESULT:      -6.1      3.307      4.884
REMARK  3 active torsions:
REMARK  status: ('A' for Active; 'I' for Inactive)
REMARK    1  A    between atoms: C_8  and  C_9 
REMARK       I    between atoms: C_9  and  N_11 
REMARK    2  A    between atoms: N_11  and  C_12 
REMARK    3  A    between atoms: C_16  and  O_17 
ROOT
HETATM    1  C   UNK N   1      35.286  12.813  11.592  0.00  0.00     0.257 C 
HETATM    2  O   UNK N   1      36.383  12.636  11.079  0.00  0.00    -0.267 OA
HETATM    3  N   UNK N   1      34.358  13.577  10.959  0.00  0.00    -0.323 N 
HETATM    4  H   UNK N   1      33.495  13.687  11.418  0.00  0.00     0.169 HD
ENDROOT
BRANCH   3   5
HETATM    5  C   UNK N   1      34.496  14.235   9.708  0.00  0.00     0.037 A 
HETATM    6  C   UNK N   1      34.763  13.458   8.579  0.00  0.00     0.051 A 
HETATM    7  C   UNK N   1      34.933  14.054   7.330  0.00  0.00     0.047 A 
HETATM    8 Br   UNK N   1      35.309  12.945   5.821  0.00  0.00    -0.048 Br
HETATM    9  C   UNK N   1      34.835  15.447   7.201  0.00  0.00     0.100 A 
HETATM   10  C   UNK N   1      34.561  16.234   8.331  0.00  0.00     0.047 A 
HETATM   11 Br   UNK N   1      34.421  18.134   8.199  0.00  0.00    -0.048 Br
HETATM   12  C   UNK N   1      34.393  15.627   9.577  0.00  0.00     0.051 A 
BRANCH   9  13
HETATM   13  O   UNK N   1      35.007  16.027   6.001  0.00  0.00    -0.358 OA
HETATM   14  H   UNK N   1      34.919  16.956   5.911  0.00  0.00     0.217 HD
ENDBRANCH   9  13
ENDBRANCH   3   5
BRANCH   1  15
HETATM   15  C   UNK N   1      34.967  12.204  12.933  0.00  0.00     0.044 A 
HETATM   16  C   UNK N   1      35.372  12.840  14.143  0.00  0.00    -0.046 A 
HETATM   17  C   UNK N   1      36.120  14.132  14.169  0.00  0.00     0.049 C 
HETATM   18  C   UNK N   1      35.055  12.269  15.377  0.00  0.00     0.008 A 
HETATM   19  C   UNK N   1      34.348  11.076  15.450  0.00  0.00     0.001 A 
HETATM   20  C   UNK N   1      33.951  10.433  14.286  0.00  0.00     0.008 A 
HETATM   21  C   UNK N   1      34.244  10.973  13.033  0.00  0.00    -0.046 A 
HETATM   22  C   UNK N   1      33.785  10.190  11.847  0.00  0.00     0.049 C 
ENDBRANCH   1  15
TORSDOF 3
ENDMDL
MODEL 7
REMARK VINA RESULT:      -6.1     14.921     17.291
REMARK  3 active torsions:
REMARK  status: ('A' for Active; 'I' for Inactive)
REMARK    1  A    between atoms: C_8  and  C_9 
REMARK       I    between atoms: C_9  and  N_11 
REMARK    2  A    between atoms: N_11  and  C_12 
REMARK    3  A    between atoms: C_16  and  O_17 
ROOT
HETATM    1  C   UNK N   1      25.116  17.433   4.540  0.00  0.00     0.257 C 
HETATM    2  O   UNK N   1      25.032  16.791   3.502  0.00  0.00    -0.267 OA
HETATM    3  N   UNK N   1      24.016  18.049   5.046  0.00  0.00    -0.323 N 
HETATM    4  H   UNK N   1      24.142  18.552   5.882  0.00  0.00     0.169 HD
ENDROOT
BRANCH   3   5
HETATM    5  C   UNK N   1      22.704  18.047   4.502  0.00  0.00     0.037 A 
HETATM    6  C   UNK N   1      22.377  19.030   3.565  0.00  0.00     0.051 A 
HETATM    7  C   UNK N   1      21.096  19.091   3.018  0.00  0.00     0.047 A 
HETATM    8 Br   UNK N   1      20.699  20.464   1.750  0.00  0.00    -0.048 Br
HETATM    9  C   UNK N   1      20.124  18.159   3.408  0.00  0.00     0.100 A 
HETATM   10  C   UNK N   1      20.448  17.164   4.344  0.00  0.00     0.047 A 
HETATM   11 Br   UNK N   1      19.153  15.876   4.903  0.00  0.00    -0.048 Br
HETATM   12  C   UNK N   1      21.733  17.112   4.887  0.00  0.00     0.051 A 
BRANCH   9  13
HETATM   13  O   UNK N   1      18.885  18.219   2.889  0.00  0.00    -0.358 OA
HETATM   14  H   UNK N   1      18.594  18.999   2.458  0.00  0.00     0.217 HD
ENDBRANCH   9  13
ENDBRANCH   3   5
BRANCH   1  15
HETATM   15  C   UNK N   1      26.439  17.559   5.250  0.00  0.00     0.044 A 
HETATM   16  C   UNK N   1      27.336  18.625   4.946  0.00  0.00    -0.046 A 
HETATM   17  C   UNK N   1      27.033  19.675   3.928  0.00  0.00     0.049 C 
HETATM   18  C   UNK N   1      28.551  18.736   5.624  0.00  0.00     0.008 A 
HETATM   19  C   UNK N   1      28.910  17.813   6.599  0.00  0.00     0.001 A 
HETATM   20  C   UNK N   1      28.058  16.762   6.906  0.00  0.00     0.008 A 
HETATM   21  C   UNK N   1      26.833  16.619   6.254  0.00  0.00    -0.046 A 
HETATM   22  C   UNK N   1      26.003  15.443   6.650  0.00  0.00     0.049 C 
ENDBRANCH   1  15
TORSDOF 3
ENDMDL
MODEL 8
REMARK VINA RESULT:      -6.0     10.752     13.630
REMARK  3 active torsions:
REMARK  status: ('A' for Active; 'I' for Inactive)
REMARK    1  A    between atoms: C_8  and  C_9 
REMARK       I    between atoms: C_9  and  N_11 
REMARK    2  A    between atoms: N_11  and  C_12 
REMARK    3  A    between atoms: C_16  and  O_17 
ROOT
HETATM    1  C   UNK N   1      29.847  16.945   5.767  0.00  0.00     0.257 C 
HETATM    2  O   UNK N   1      29.455  15.815   5.507  0.00  0.00    -0.267 OA
HETATM    3  N   UNK N   1      29.006  18.002   5.627  0.00  0.00    -0.323 N 
HETATM    4  H   UNK N   1      29.375  18.887   5.849  0.00  0.00     0.169 HD
ENDROOT
BRANCH   3   5
HETATM    5  C   UNK N   1      27.654  17.973   5.193  0.00  0.00     0.037 A 
HETATM    6  C   UNK N   1      27.218  18.973   4.322  0.00  0.00     0.051 A 
HETATM    7  C   UNK N   1      25.894  19.007   3.885  0.00  0.00     0.047 A 
HETATM    8 Br   UNK N   1      25.347  20.406   2.705  0.00  0.00    -0.048 Br
HETATM    9  C   UNK N   1      24.988  18.028   4.321  0.00  0.00     0.100 A 
HETATM   10  C   UNK N   1      25.422  17.015   5.190  0.00  0.00     0.047 A 
HETATM   11 Br   UNK N   1      24.221  15.664   5.808  0.00  0.00    -0.048 Br
HETATM   12  C   UNK N   1      26.749  16.991   5.623  0.00  0.00     0.051 A 
BRANCH   9  13
HETATM   13  O   UNK N   1      23.709  18.062   3.908  0.00  0.00    -0.358 OA
HETATM   14  H   UNK N   1      23.375  18.824   3.477  0.00  0.00     0.217 HD
ENDBRANCH   9  13
ENDBRANCH   3   5
BRANCH   1  15
HETATM   15  C   UNK N   1      31.264  17.170   6.226  0.00  0.00     0.044 A 
HETATM   16  C   UNK N   1      32.326  17.309   5.285  0.00  0.00    -0.046 A 
HETATM   17  C   UNK N   1      32.115  17.249   3.808  0.00  0.00     0.049 C 
HETATM   18  C   UNK N   1      33.632  17.533   5.727  0.00  0.00     0.008 A 
HETATM   19  C   UNK N   1      33.921  17.619   7.083  0.00  0.00     0.001 A 
HETATM   20  C   UNK N   1      32.905  17.478   8.018  0.00  0.00     0.008 A 
HETATM   21  C   UNK N   1      31.587  17.258   7.617  0.00  0.00    -0.046 A 
HETATM   22  C   UNK N   1      30.578  17.104   8.706  0.00  0.00     0.049 C 
ENDBRANCH   1  15
TORSDOF 3
ENDMDL
MODEL 9
REMARK VINA RESULT:      -6.0     16.112     17.001
REMARK  3 active torsions:
REMARK  status: ('A' for Active; 'I' for Inactive)
REMARK    1  A    between atoms: C_8  and  C_9 
REMARK       I    between atoms: C_9  and  N_11 
REMARK    2  A    between atoms: N_11  and  C_12 
REMARK    3  A    between atoms: C_16  and  O_17 
ROOT
HETATM    1  C   UNK N   1      21.280  13.169   6.688  0.00  0.00     0.257 C 
HETATM    2  O   UNK N   1      20.243  12.704   6.236  0.00  0.00    -0.267 OA
HETATM    3  N   UNK N   1      22.005  14.051   5.951  0.00  0.00    -0.323 N 
HETATM    4  H   UNK N   1      22.831  14.391   6.364  0.00  0.00     0.169 HD
ENDROOT
BRANCH   3   5
HETATM    5  C   UNK N   1      21.703  14.536   4.651  0.00  0.00     0.037 A 
HETATM    6  C   UNK N   1      22.127  13.787   3.552  0.00  0.00     0.051 A 
HETATM    7  C   UNK N   1      21.879  14.229   2.253  0.00  0.00     0.047 A 
HETATM    8 Br   UNK N   1      22.493  13.171   0.786  0.00  0.00    -0.048 Br
HETATM    9  C   UNK N   1      21.198  15.436   2.043  0.00  0.00     0.100 A 
HETATM   10  C   UNK N   1      20.762  16.191   3.143  0.00  0.00     0.047 A 
HETATM   11 Br   UNK N   1      19.832  17.842   2.902  0.00  0.00    -0.048 Br
HETATM   12  C   UNK N   1      21.016  15.740   4.440  0.00  0.00     0.051 A 
BRANCH   9  13
HETATM   13  O   UNK N   1      20.965  15.871   0.792  0.00  0.00    -0.358 OA
HETATM   14  H   UNK N   1      21.177  15.326   0.059  0.00  0.00     0.217 HD
ENDBRANCH   9  13
ENDBRANCH   3   5
BRANCH   1  15
HETATM   15  C   UNK N   1      21.768  12.753   8.051  0.00  0.00     0.044 A 
HETATM   16  C   UNK N   1      22.707  11.690   8.202  0.00  0.00    -0.046 A 
HETATM   17  C   UNK N   1      23.267  10.932   7.043  0.00  0.00     0.049 C 
HETATM   18  C   UNK N   1      23.160  11.326   9.471  0.00  0.00     0.008 A 
HETATM   19  C   UNK N   1      22.705  11.986  10.606  0.00  0.00     0.001 A 
HETATM   20  C   UNK N   1      21.784  13.017  10.486  0.00  0.00     0.008 A 
HETATM   21  C   UNK N   1      21.310  13.413   9.235  0.00  0.00    -0.046 A 
HETATM   22  C   UNK N   1      20.310  14.521   9.223  0.00  0.00     0.049 C 
ENDBRANCH   1  15
TORSDOF 3
ENDMDL
