MODEL 1
REMARK VINA RESULT:      -6.8      0.000      0.000
REMARK  3 active torsions:
REMARK  status: ('A' for Active; 'I' for Inactive)
REMARK    1  A    between atoms: C_4  and  O_5 
REMARK    2  A    between atoms: C_9  and  N_10 
REMARK       I    between atoms: N_10  and  C_11 
REMARK    3  A    between atoms: C_11  and  C_13 
ROOT
HETATM    1  N   UNK N   1      22.159  17.173   5.759  0.00  0.00    -0.323 N 
HETATM    2  C   UNK N   1      21.428  17.375   6.884  0.00  0.00     0.257 C 
HETATM    3  O   UNK N   1      21.082  18.506   7.204  0.00  0.00    -0.267 OA
HETATM    4  H   UNK N   1      22.407  16.242   5.554  0.00  0.00     0.169 HD
ENDROOT
BRANCH   1   5
HETATM    5  C   UNK N   1      22.604  18.166   4.848  0.00  0.00     0.037 A 
HETATM    6  C   UNK N   1      23.963  18.481   4.820  0.00  0.00     0.051 A 
HETATM    7  C   UNK N   1      24.449  19.450   3.942  0.00  0.00     0.047 A 
HETATM    8 Br   UNK N   1      26.318  19.841   3.946  0.00  0.00    -0.048 Br
HETATM    9  C   UNK N   1      23.568  20.117   3.078  0.00  0.00     0.100 A 
HETATM   10  C   UNK N   1      22.200  19.805   3.102  0.00  0.00     0.047 A 
HETATM   11 Br   UNK N   1      20.964  20.687   1.944  0.00  0.00    -0.048 Br
HETATM   12  C   UNK N   1      21.725  18.835   3.983  0.00  0.00     0.051 A 
BRANCH   9  13
HETATM   13  O   UNK N   1      24.033  21.052   2.231  0.00  0.00    -0.358 OA
HETATM   14  H   UNK N   1      24.956  21.184   2.141  0.00  0.00     0.217 HD
ENDBRANCH   9  13
ENDBRANCH   1   5
BRANCH   2  15
HETATM   15  C   UNK N   1      21.034  16.228   7.745  0.00  0.00     0.055 A 
HETATM   16  C   UNK N   1      21.758  15.034   7.607  0.00  0.00     0.042 A 
HETATM   17  C   UNK N   1      21.452  13.914   8.377  0.00  0.00     0.035 A 
HETATM   18 Cl   UNK N   1      22.377  12.444   8.177  0.00  0.00    -0.084 Cl
HETATM   19  C   UNK N   1      20.412  13.968   9.302  0.00  0.00     0.025 A 
HETATM   20  C   UNK N   1      19.677  15.142   9.457  0.00  0.00     0.026 A 
HETATM   21  C   UNK N   1      19.971  16.276   8.693  0.00  0.00     0.049 A 
HETATM   22 Cl   UNK N   1      18.975  17.701   8.977  0.00  0.00    -0.083 Cl
ENDBRANCH   2  15
TORSDOF 3
ENDMDL
MODEL 2
REMARK VINA RESULT:      -6.8     16.279     17.345
REMARK  3 active torsions:
REMARK  status: ('A' for Active; 'I' for Inactive)
REMARK    1  A    between atoms: C_4  and  O_5 
REMARK    2  A    between atoms: C_9  and  N_10 
REMARK       I    between atoms: N_10  and  C_11 
REMARK    3  A    between atoms: C_11  and  C_13 
ROOT
HETATM    1  N   UNK N   1      36.350  12.736  15.040  0.00  0.00    -0.323 N 
HETATM    2  C   UNK N   1      35.191  12.601  15.733  0.00  0.00     0.257 C 
HETATM    3  O   UNK N   1      34.114  12.805  15.186  0.00  0.00    -0.267 OA
HETATM    4  H   UNK N   1      37.184  12.560  15.534  0.00  0.00     0.169 HD
ENDROOT
BRANCH   1   5
HETATM    5  C   UNK N   1      36.484  13.107  13.676  0.00  0.00     0.037 A 
HETATM    6  C   UNK N   1      37.106  12.213  12.804  0.00  0.00     0.051 A 
HETATM    7  C   UNK N   1      37.261  12.531  11.455  0.00  0.00     0.047 A 
HETATM    8 Br   UNK N   1      38.121  11.271  10.305  0.00  0.00    -0.048 Br
HETATM    9  C   UNK N   1      36.788  13.758  10.965  0.00  0.00     0.100 A 
HETATM   10  C   UNK N   1      36.161  14.660  11.838  0.00  0.00     0.047 A 
HETATM   11 Br   UNK N   1      35.502  16.341  11.217  0.00  0.00    -0.048 Br
HETATM   12  C   UNK N   1      36.012  14.332  13.185  0.00  0.00     0.051 A 
BRANCH   9  13
HETATM   13  O   UNK N   1      36.936  14.067   9.665  0.00  0.00    -0.358 OA
HETATM   14  H   UNK N   1      36.216  14.429   9.186  0.00  0.00     0.217 HD
ENDBRANCH   9  13
ENDBRANCH   1   5
BRANCH   2  15
HETATM   15  C   UNK N   1      35.211  12.205  17.166  0.00  0.00     0.055 A 
HETATM   16  C   UNK N   1      35.159  10.834  17.462  0.00  0.00     0.042 A 
HETATM   17  C   UNK N   1      35.173  10.382  18.779  0.00  0.00     0.035 A 
HETATM   18 Cl   UNK N   1      35.106   8.666  19.108  0.00  0.00    -0.084 Cl
HETATM   19  C   UNK N   1      35.239  11.295  19.829  0.00  0.00     0.025 A 
HETATM   20  C   UNK N   1      35.292  12.662  19.561  0.00  0.00     0.026 A 
HETATM   21  C   UNK N   1      35.279  13.133  18.245  0.00  0.00     0.049 A 
HETATM   22 Cl   UNK N   1      35.349  14.881  18.031  0.00  0.00    -0.083 Cl
ENDBRANCH   2  15
TORSDOF 3
ENDMDL
MODEL 3
REMARK VINA RESULT:      -6.7     16.314     17.448
REMARK  3 active torsions:
REMARK  status: ('A' for Active; 'I' for Inactive)
REMARK    1  A    between atoms: C_4  and  O_5 
REMARK    2  A    between atoms: C_9  and  N_10 
REMARK       I    between atoms: N_10  and  C_11 
REMARK    3  A    between atoms: C_11  and  C_13 
ROOT
HETATM    1  N   UNK N   1      36.401  12.636  15.045  0.00  0.00    -0.323 N 
HETATM    2  C   UNK N   1      35.231  12.522  15.722  0.00  0.00     0.257 C 
HETATM    3  O   UNK N   1      34.163  12.711  15.151  0.00  0.00    -0.267 OA
HETATM    4  H   UNK N   1      37.226  12.473  15.557  0.00  0.00     0.169 HD
ENDROOT
BRANCH   1   5
HETATM    5  C   UNK N   1      36.558  12.967  13.673  0.00  0.00     0.037 A 
HETATM    6  C   UNK N   1      36.077  14.199  13.229  0.00  0.00     0.051 A 
HETATM    7  C   UNK N   1      36.206  14.571  11.891  0.00  0.00     0.047 A 
HETATM    8 Br   UNK N   1      35.530  16.268  11.336  0.00  0.00    -0.048 Br
HETATM    9  C   UNK N   1      36.825  13.702  10.979  0.00  0.00     0.100 A 
HETATM   10  C   UNK N   1      37.312  12.461  11.421  0.00  0.00     0.047 A 
HETATM   11 Br   UNK N   1      38.161  11.247  10.217  0.00  0.00    -0.048 Br
HETATM   12  C   UNK N   1      37.176  12.101  12.761  0.00  0.00     0.051 A 
BRANCH   9  13
HETATM   13  O   UNK N   1      36.952  14.056   9.689  0.00  0.00    -0.358 OA
HETATM   14  H   UNK N   1      36.549  13.539   9.020  0.00  0.00     0.217 HD
ENDBRANCH   9  13
ENDBRANCH   1   5
BRANCH   2  15
HETATM   15  C   UNK N   1      35.226  12.166  17.166  0.00  0.00     0.055 A 
HETATM   16  C   UNK N   1      35.134  10.807  17.500  0.00  0.00     0.042 A 
HETATM   17  C   UNK N   1      35.123  10.391  18.829  0.00  0.00     0.035 A 
HETATM   18 Cl   UNK N   1      35.007   8.688  19.206  0.00  0.00    -0.084 Cl
HETATM   19  C   UNK N   1      35.204  11.332  19.853  0.00  0.00     0.025 A 
HETATM   20  C   UNK N   1      35.296  12.689  19.547  0.00  0.00     0.026 A 
HETATM   21  C   UNK N   1      35.308  13.123  18.218  0.00  0.00     0.049 A 
HETATM   22 Cl   UNK N   1      35.428  14.861  17.956  0.00  0.00    -0.083 Cl
ENDBRANCH   2  15
TORSDOF 3
ENDMDL
MODEL 4
REMARK VINA RESULT:      -6.6      1.236      2.482
REMARK  3 active torsions:
REMARK  status: ('A' for Active; 'I' for Inactive)
REMARK    1  A    between atoms: C_4  and  O_5 
REMARK    2  A    between atoms: C_9  and  N_10 
REMARK       I    between atoms: N_10  and  C_11 
REMARK    3  A    between atoms: C_11  and  C_13 
ROOT
HETATM    1  N   UNK N   1      22.653  17.449   6.180  0.00  0.00    -0.323 N 
HETATM    2  C   UNK N   1      22.420  16.117   6.064  0.00  0.00     0.257 C 
HETATM    3  O   UNK N   1      22.549  15.556   4.982  0.00  0.00    -0.267 OA
HETATM    4  H   UNK N   1      22.533  17.842   7.074  0.00  0.00     0.169 HD
ENDROOT
BRANCH   1   5
HETATM    5  C   UNK N   1      23.052  18.332   5.142  0.00  0.00     0.037 A 
HETATM    6  C   UNK N   1      22.069  18.855   4.301  0.00  0.00     0.051 A 
HETATM    7  C   UNK N   1      22.410  19.727   3.267  0.00  0.00     0.047 A 
HETATM    8 Br   UNK N   1      21.025  20.413   2.146  0.00  0.00    -0.048 Br
HETATM    9  C   UNK N   1      23.752  20.084   3.067  0.00  0.00     0.100 A 
HETATM   10  C   UNK N   1      24.745  19.561   3.909  0.00  0.00     0.047 A 
HETATM   11 Br   UNK N   1      26.584  20.019   3.674  0.00  0.00    -0.048 Br
HETATM   12  C   UNK N   1      24.392  18.690   4.940  0.00  0.00     0.051 A 
BRANCH   9  13
HETATM   13  O   UNK N   1      24.085  20.924   2.071  0.00  0.00    -0.358 OA
HETATM   14  H   UNK N   1      24.936  21.317   2.055  0.00  0.00     0.217 HD
ENDBRANCH   9  13
ENDBRANCH   1   5
BRANCH   2  15
HETATM   15  C   UNK N   1      22.006  15.318   7.248  0.00  0.00     0.055 A 
HETATM   16  C   UNK N   1      22.716  14.138   7.517  0.00  0.00     0.042 A 
HETATM   17  C   UNK N   1      22.390  13.334   8.606  0.00  0.00     0.035 A 
HETATM   18 Cl   UNK N   1      23.298  11.872   8.909  0.00  0.00    -0.084 Cl
HETATM   19  C   UNK N   1      21.342  13.697   9.450  0.00  0.00     0.025 A 
HETATM   20  C   UNK N   1      20.621  14.864   9.204  0.00  0.00     0.026 A 
HETATM   21  C   UNK N   1      20.936  15.683   8.115  0.00  0.00     0.049 A 
HETATM   22 Cl   UNK N   1      19.955  17.131   7.906  0.00  0.00    -0.083 Cl
ENDBRANCH   2  15
TORSDOF 3
ENDMDL
MODEL 5
REMARK VINA RESULT:      -6.6     13.512     14.665
REMARK  3 active torsions:
REMARK  status: ('A' for Active; 'I' for Inactive)
REMARK    1  A    between atoms: C_4  and  O_5 
REMARK    2  A    between atoms: C_9  and  N_10 
REMARK       I    between atoms: N_10  and  C_11 
REMARK    3  A    between atoms: C_11  and  C_13 
ROOT
HETATM    1  N   UNK N   1      34.348  13.512  11.079  0.00  0.00    -0.323 N 
HETATM    2  C   UNK N   1      35.305  13.126  11.960  0.00  0.00     0.257 C 
HETATM    3  O   UNK N   1      36.489  13.325  11.716  0.00  0.00    -0.267 OA
HETATM    4  H   UNK N   1      33.415  13.325  11.330  0.00  0.00     0.169 HD
ENDROOT
BRANCH   1   5
HETATM    5  C   UNK N   1      34.555  14.158   9.832  0.00  0.00     0.037 A 
HETATM    6  C   UNK N   1      34.934  13.381   8.737  0.00  0.00     0.051 A 
HETATM    7  C   UNK N   1      35.150  13.969   7.491  0.00  0.00     0.047 A 
HETATM    8 Br   UNK N   1      35.667  12.858   6.025  0.00  0.00    -0.048 Br
HETATM    9  C   UNK N   1      34.986  15.353   7.331  0.00  0.00     0.100 A 
HETATM   10  C   UNK N   1      34.605  16.140   8.429  0.00  0.00     0.047 A 
HETATM   11 Br   UNK N   1      34.369  18.027   8.260  0.00  0.00    -0.048 Br
HETATM   12  C   UNK N   1      34.392  15.541   9.670  0.00  0.00     0.051 A 
BRANCH   9  13
HETATM   13  O   UNK N   1      35.193  15.923   6.132  0.00  0.00    -0.358 OA
HETATM   14  H   UNK N   1      35.423  16.830   6.078  0.00  0.00     0.217 HD
ENDBRANCH   9  13
ENDBRANCH   1   5
BRANCH   2  15
HETATM   15  C   UNK N   1      34.932  12.456  13.234  0.00  0.00     0.055 A 
HETATM   16  C   UNK N   1      35.221  13.129  14.431  0.00  0.00     0.042 A 
HETATM   17  C   UNK N   1      34.904  12.568  15.666  0.00  0.00     0.035 A 
HETATM   18 Cl   UNK N   1      35.279  13.437  17.136  0.00  0.00    -0.084 Cl
HETATM   19  C   UNK N   1      34.289  11.320  15.727  0.00  0.00     0.025 A 
HETATM   20  C   UNK N   1      33.992  10.631  14.552  0.00  0.00     0.026 A 
HETATM   21  C   UNK N   1      34.303  11.179  13.304  0.00  0.00     0.049 A 
HETATM   22 Cl   UNK N   1      33.880  10.217  11.890  0.00  0.00    -0.083 Cl
ENDBRANCH   2  15
TORSDOF 3
ENDMDL
MODEL 6
REMARK VINA RESULT:      -6.6     11.885     13.619
REMARK  3 active torsions:
REMARK  status: ('A' for Active; 'I' for Inactive)
REMARK    1  A    between atoms: C_4  and  O_5 
REMARK    2  A    between atoms: C_9  and  N_10 
REMARK       I    between atoms: N_10  and  C_11 
REMARK    3  A    between atoms: C_11  and  C_13 
ROOT
HETATM    1  N   UNK N   1      33.456  15.279   8.997  0.00  0.00    -0.323 N 
HETATM    2  C   UNK N   1      33.137  16.578   8.768  0.00  0.00     0.257 C 
HETATM    3  O   UNK N   1      33.884  17.475   9.139  0.00  0.00    -0.267 OA
HETATM    4  H   UNK N   1      32.817  14.604   8.675  0.00  0.00     0.169 HD
ENDROOT
BRANCH   1   5
HETATM    5  C   UNK N   1      34.619  14.796   9.653  0.00  0.00     0.037 A 
HETATM    6  C   UNK N   1      35.736  14.484   8.878  0.00  0.00     0.051 A 
HETATM    7  C   UNK N   1      36.903  14.006   9.476  0.00  0.00     0.047 A 
HETATM    8 Br   UNK N   1      38.403  13.594   8.369  0.00  0.00    -0.048 Br
HETATM    9  C   UNK N   1      36.957  13.835  10.867  0.00  0.00     0.100 A 
HETATM   10  C   UNK N   1      35.836  14.148  11.652  0.00  0.00     0.047 A 
HETATM   11 Br   UNK N   1      35.864  13.932  13.549  0.00  0.00    -0.048 Br
HETATM   12  C   UNK N   1      34.676  14.625  11.043  0.00  0.00     0.051 A 
BRANCH   9  13
HETATM   13  O   UNK N   1      38.079  13.375  11.447  0.00  0.00    -0.358 OA
HETATM   14  H   UNK N   1      38.731  12.944  10.929  0.00  0.00     0.217 HD
ENDBRANCH   9  13
ENDBRANCH   1   5
BRANCH   2  15
HETATM   15  C   UNK N   1      31.876  16.932   8.063  0.00  0.00     0.055 A 
HETATM   16  C   UNK N   1      30.762  17.262   8.850  0.00  0.00     0.042 A 
HETATM   17  C   UNK N   1      29.545  17.605   8.267  0.00  0.00     0.035 A 
HETATM   18 Cl   UNK N   1      28.180  18.011   9.281  0.00  0.00    -0.084 Cl
HETATM   19  C   UNK N   1      29.418  17.625   6.880  0.00  0.00     0.025 A 
HETATM   20  C   UNK N   1      30.510  17.301   6.076  0.00  0.00     0.026 A 
HETATM   21  C   UNK N   1      31.739  16.954   6.645  0.00  0.00     0.049 A 
HETATM   22 Cl   UNK N   1      33.045  16.564   5.528  0.00  0.00    -0.083 Cl
ENDBRANCH   2  15
TORSDOF 3
ENDMDL
MODEL 7
REMARK VINA RESULT:      -6.5     13.477     14.666
REMARK  3 active torsions:
REMARK  status: ('A' for Active; 'I' for Inactive)
REMARK    1  A    between atoms: C_4  and  O_5 
REMARK    2  A    between atoms: C_9  and  N_10 
REMARK       I    between atoms: N_10  and  C_11 
REMARK    3  A    between atoms: C_11  and  C_13 
ROOT
HETATM    1  N   UNK N   1      34.339  13.416  10.978  0.00  0.00    -0.323 N 
HETATM    2  C   UNK N   1      35.288  12.971  11.840  0.00  0.00     0.257 C 
HETATM    3  O   UNK N   1      36.477  13.083  11.565  0.00  0.00    -0.267 OA
HETATM    4  H   UNK N   1      33.402  13.299  11.254  0.00  0.00     0.169 HD
ENDROOT
BRANCH   1   5
HETATM    5  C   UNK N   1      34.561  14.033   9.719  0.00  0.00     0.037 A 
HETATM    6  C   UNK N   1      34.396  15.414   9.618  0.00  0.00     0.051 A 
HETATM    7  C   UNK N   1      34.602  16.068   8.403  0.00  0.00     0.047 A 
HETATM    8 Br   UNK N   1      34.362  17.960   8.322  0.00  0.00    -0.048 Br
HETATM    9  C   UNK N   1      34.980  15.333   7.268  0.00  0.00     0.100 A 
HETATM   10  C   UNK N   1      35.148  13.943   7.364  0.00  0.00     0.047 A 
HETATM   11 Br   UNK N   1      35.660  12.903   5.847  0.00  0.00    -0.048 Br
HETATM   12  C   UNK N   1      34.939  13.301   8.584  0.00  0.00     0.051 A 
BRANCH   9  13
HETATM   13  O   UNK N   1      35.180  15.959   6.096  0.00  0.00    -0.358 OA
HETATM   14  H   UNK N   1      34.647  15.745   5.355  0.00  0.00     0.217 HD
ENDBRANCH   9  13
ENDBRANCH   1   5
BRANCH   2  15
HETATM   15  C   UNK N   1      34.900  12.342  13.130  0.00  0.00     0.055 A 
HETATM   16  C   UNK N   1      35.203  13.039  14.310  0.00  0.00     0.042 A 
HETATM   17  C   UNK N   1      34.872  12.518  15.558  0.00  0.00     0.035 A 
HETATM   18 Cl   UNK N   1      35.266  13.415  17.006  0.00  0.00    -0.084 Cl
HETATM   19  C   UNK N   1      34.231  11.285  15.651  0.00  0.00     0.025 A 
HETATM   20  C   UNK N   1      33.919  10.573  14.493  0.00  0.00     0.026 A 
HETATM   21  C   UNK N   1      34.244  11.081  13.232  0.00  0.00     0.049 A 
HETATM   22 Cl   UNK N   1      33.801  10.092  11.843  0.00  0.00    -0.083 Cl
ENDBRANCH   2  15
TORSDOF 3
ENDMDL
MODEL 8
REMARK VINA RESULT:      -6.5     11.904     13.664
REMARK  3 active torsions:
REMARK  status: ('A' for Active; 'I' for Inactive)
REMARK    1  A    between atoms: C_4  and  O_5 
REMARK    2  A    between atoms: C_9  and  N_10 
REMARK       I    between atoms: N_10  and  C_11 
REMARK    3  A    between atoms: C_11  and  C_13 
ROOT
HETATM    1  N   UNK N   1      33.497  15.224   8.941  0.00  0.00    -0.323 N 
HETATM    2  C   UNK N   1      33.187  16.521   8.690  0.00  0.00     0.257 C 
HETATM    3  O   UNK N   1      33.957  17.417   9.014  0.00  0.00    -0.267 OA
HETATM    4  H   UNK N   1      32.839  14.549   8.658  0.00  0.00     0.169 HD
ENDROOT
BRANCH   1   5
HETATM    5  C   UNK N   1      34.674  14.741   9.571  0.00  0.00     0.037 A 
HETATM    6  C   UNK N   1      34.653  14.540  10.951  0.00  0.00     0.051 A 
HETATM    7  C   UNK N   1      35.784  14.067  11.617  0.00  0.00     0.047 A 
HETATM    8 Br   UNK N   1      35.701  13.810  13.507  0.00  0.00    -0.048 Br
HETATM    9  C   UNK N   1      36.956  13.790  10.896  0.00  0.00     0.100 A 
HETATM   10  C   UNK N   1      36.983  13.990   9.507  0.00  0.00     0.047 A 
HETATM   11 Br   UNK N   1      38.554  13.626   8.485  0.00  0.00    -0.048 Br
HETATM   12  C   UNK N   1      35.846  14.463   8.853  0.00  0.00     0.051 A 
BRANCH   9  13
HETATM   13  O   UNK N   1      38.048  13.334  11.534  0.00  0.00    -0.358 OA
HETATM   14  H   UNK N   1      38.900  13.615  11.262  0.00  0.00     0.217 HD
ENDBRANCH   9  13
ENDBRANCH   1   5
BRANCH   2  15
HETATM   15  C   UNK N   1      31.908  16.874   8.018  0.00  0.00     0.055 A 
HETATM   16  C   UNK N   1      30.814  17.201   8.833  0.00  0.00     0.042 A 
HETATM   17  C   UNK N   1      29.582  17.544   8.282  0.00  0.00     0.035 A 
HETATM   18 Cl   UNK N   1      28.243  17.945   9.330  0.00  0.00    -0.084 Cl
HETATM   19  C   UNK N   1      29.421  17.565   6.898  0.00  0.00     0.025 A 
HETATM   20  C   UNK N   1      30.492  17.245   6.066  0.00  0.00     0.026 A 
HETATM   21  C   UNK N   1      31.736  16.899   6.604  0.00  0.00     0.049 A 
HETATM   22 Cl   UNK N   1      33.014  16.513   5.454  0.00  0.00    -0.083 Cl
ENDBRANCH   2  15
TORSDOF 3
ENDMDL
MODEL 9
REMARK VINA RESULT:      -6.4      2.020      3.586
REMARK  3 active torsions:
REMARK  status: ('A' for Active; 'I' for Inactive)
REMARK    1  A    between atoms: C_4  and  O_5 
REMARK    2  A    between atoms: C_9  and  N_10 
REMARK       I    between atoms: N_10  and  C_11 
REMARK    3  A    between atoms: C_11  and  C_13 
ROOT
HETATM    1  N   UNK N   1      23.000  16.965   6.186  0.00  0.00    -0.323 N 
HETATM    2  C   UNK N   1      23.072  15.621   6.014  0.00  0.00     0.257 C 
HETATM    3  O   UNK N   1      23.148  15.142   4.889  0.00  0.00    -0.267 OA
HETATM    4  H   UNK N   1      22.942  17.290   7.113  0.00  0.00     0.169 HD
ENDROOT
BRANCH   1   5
HETATM    5  C   UNK N   1      23.001  17.950   5.164  0.00  0.00     0.037 A 
HETATM    6  C   UNK N   1      21.783  18.305   4.583  0.00  0.00     0.051 A 
HETATM    7  C   UNK N   1      21.731  19.268   3.575  0.00  0.00     0.047 A 
HETATM    8 Br   UNK N   1      20.038  19.715   2.815  0.00  0.00    -0.048 Br
HETATM    9  C   UNK N   1      22.911  19.888   3.137  0.00  0.00     0.100 A 
HETATM   10  C   UNK N   1      24.139  19.535   3.718  0.00  0.00     0.047 A 
HETATM   11 Br   UNK N   1      25.771  20.353   3.155  0.00  0.00    -0.048 Br
HETATM   12  C   UNK N   1      24.179  18.572   4.725  0.00  0.00     0.051 A 
BRANCH   9  13
HETATM   13  O   UNK N   1      22.866  20.816   2.166  0.00  0.00    -0.358 OA
HETATM   14  H   UNK N   1      22.893  21.727   2.388  0.00  0.00     0.217 HD
ENDBRANCH   9  13
ENDBRANCH   1   5
BRANCH   2  15
HETATM   15  C   UNK N   1      23.061  14.709   7.189  0.00  0.00     0.055 A 
HETATM   16  C   UNK N   1      21.891  14.658   7.961  0.00  0.00     0.042 A 
HETATM   17  C   UNK N   1      21.800  13.829   9.076  0.00  0.00     0.035 A 
HETATM   18 Cl   UNK N   1      20.325  13.793  10.014  0.00  0.00    -0.084 Cl
HETATM   19  C   UNK N   1      22.883  13.033   9.442  0.00  0.00     0.025 A 
HETATM   20  C   UNK N   1      24.057  13.065   8.692  0.00  0.00     0.026 A 
HETATM   21  C   UNK N   1      24.165  13.891   7.569  0.00  0.00     0.049 A 
HETATM   22 Cl   UNK N   1      25.697  13.848   6.700  0.00  0.00    -0.083 Cl
ENDBRANCH   2  15
TORSDOF 3
ENDMDL
