REMARK  3 active torsions:
REMARK  status: ('A' for Active; 'I' for Inactive)
REMARK    1  A    between atoms: C_4  and  O_5 
REMARK    2  A    between atoms: C_9  and  N_10 
REMARK       I    between atoms: N_10  and  C_11 
REMARK    3  A    between atoms: C_11  and  C_13 
ROOT
HETATM    1  N   UNK N   1       1.044   0.264  -0.000  0.00  0.00    -0.323 N 
HETATM    2  C   UNK N   1      -0.180  -0.322  -0.000  0.00  0.00     0.257 C 
HETATM    3  O   UNK N   1      -0.283  -1.543  -0.000  0.00  0.00    -0.267 OA
HETATM    4  H   UNK N   1       1.063   1.248  -0.000  0.00  0.00     0.169 HD
ENDROOT
BRANCH   1   5
HETATM    5  C   UNK N   1       2.300  -0.398  -0.000  0.00  0.00     0.037 A 
HETATM    6  C   UNK N   1       3.459   0.378  -0.000  0.00  0.00     0.051 A 
HETATM    7  C   UNK N   1       4.717  -0.225  -0.000  0.00  0.00     0.047 A 
HETATM    8 Br   UNK N   1       6.271   0.885  -0.000  0.00  0.00    -0.048 Br
HETATM    9  C   UNK N   1       4.823  -1.624   0.000  0.00  0.00     0.100 A 
HETATM   10  C   UNK N   1       3.660  -2.410   0.000  0.00  0.00     0.047 A 
HETATM   11 Br   UNK N   1       3.755  -4.317   0.000  0.00  0.00    -0.048 Br
HETATM   12  C   UNK N   1       2.408  -1.796  -0.000  0.00  0.00     0.051 A 
BRANCH   9  13
HETATM   13  O   UNK N   1       6.033  -2.209   0.000  0.00  0.00    -0.358 OA
HETATM   14  H   UNK N   1       6.101  -3.144   0.000  0.00  0.00     0.217 HD
ENDBRANCH   9  13
ENDBRANCH   1   5
BRANCH   2  15
HETATM   15  C   UNK N   1      -1.414   0.508  -0.000  0.00  0.00     0.055 A 
HETATM   16  C   UNK N   1      -2.647  -0.161  -0.000  0.00  0.00     0.042 A 
HETATM   17  C   UNK N   1      -3.848   0.544   0.000  0.00  0.00     0.035 A 
HETATM   18 Cl   UNK N   1      -5.365  -0.325   0.000  0.00  0.00    -0.084 Cl
HETATM   19  C   UNK N   1      -3.838   1.937   0.000  0.00  0.00     0.025 A 
HETATM   20  C   UNK N   1      -2.626   2.625   0.000  0.00  0.00     0.026 A 
HETATM   21  C   UNK N   1      -1.411   1.933   0.000  0.00  0.00     0.049 A 
HETATM   22 Cl   UNK N   1       0.055   2.910   0.000  0.00  0.00    -0.083 Cl
ENDBRANCH   2  15
TORSDOF 3
