MODEL 1
REMARK VINA RESULT:      -6.5      0.000      0.000
REMARK  4 active torsions:
REMARK  status: ('A' for Active; 'I' for Inactive)
REMARK    1  A    between atoms: C_4  and  O_5 
REMARK    2  A    between atoms: C_9  and  C_10 
REMARK       I    between atoms: C_10  and  N_12 
REMARK    3  A    between atoms: N_12  and  C_13 
REMARK    4  A    between atoms: C_17  and  O_18 
ROOT
HETATM    1  C   UNK N   1      35.369  12.905  14.556  0.00  0.00     0.256 C 
HETATM    2  O   UNK N   1      34.470  12.388  13.904  0.00  0.00    -0.267 OA
HETATM    3  N   UNK N   1      36.381  13.576  13.938  0.00  0.00    -0.323 N 
HETATM    4  H   UNK N   1      37.089  13.950  14.510  0.00  0.00     0.169 HD
ENDROOT
BRANCH   1   5
HETATM    5  C   UNK N   1      35.305  12.862  16.030  0.00  0.00     0.033 A 
HETATM    6  C   UNK N   1      35.315  11.637  16.711  0.00  0.00     0.026 A 
HETATM    7  C   UNK N   1      35.300  11.604  18.108  0.00  0.00    -0.027 A 
HETATM    8  C   UNK N   1      35.312  10.287  18.807  0.00  0.00     0.051 C 
HETATM    9  C   UNK N   1      35.281  12.805  18.839  0.00  0.00     0.077 A 
HETATM   10  C   UNK N   1      35.271  14.032  18.158  0.00  0.00    -0.027 A 
HETATM   11  C   UNK N   1      35.256  15.321  18.905  0.00  0.00     0.051 C 
HETATM   12  C   UNK N   1      35.283  14.056  16.763  0.00  0.00     0.026 A 
BRANCH   9  13
HETATM   13  O   UNK N   1      35.274  12.778  20.185  0.00  0.00    -0.360 OA
HETATM   14  H   UNK N   1      34.819  12.098  20.641  0.00  0.00     0.217 HD
ENDBRANCH   9  13
ENDBRANCH   1   5
BRANCH   3  15
HETATM   15  C   UNK N   1      36.501  13.782  12.533  0.00  0.00     0.037 A 
HETATM   16  C   UNK N   1      35.859  14.882  11.957  0.00  0.00     0.051 A 
HETATM   17  C   UNK N   1      35.863  15.061  10.570  0.00  0.00     0.047 A 
HETATM   18 Br   UNK N   1      34.934  16.554   9.822  0.00  0.00    -0.048 Br
HETATM   19  C   UNK N   1      36.517  14.134   9.744  0.00  0.00     0.100 A 
HETATM   20  C   UNK N   1      37.179  13.039  10.318  0.00  0.00     0.047 A 
HETATM   21 Br   UNK N   1      38.079  11.751   9.230  0.00  0.00    -0.048 Br
HETATM   22  C   UNK N   1      37.163  12.865  11.701  0.00  0.00     0.051 A 
BRANCH  19  23
HETATM   23  O   UNK N   1      36.504  14.290   8.409  0.00  0.00    -0.358 OA
HETATM   24  H   UNK N   1      36.608  13.550   7.843  0.00  0.00     0.217 HD
ENDBRANCH  19  23
ENDBRANCH   3  15
TORSDOF 4
ENDMDL
MODEL 2
REMARK VINA RESULT:      -6.5      0.810      2.025
REMARK  4 active torsions:
REMARK  status: ('A' for Active; 'I' for Inactive)
REMARK    1  A    between atoms: C_4  and  O_5 
REMARK    2  A    between atoms: C_9  and  C_10 
REMARK       I    between atoms: C_10  and  N_12 
REMARK    3  A    between atoms: N_12  and  C_13 
REMARK    4  A    between atoms: C_17  and  O_18 
ROOT
HETATM    1  C   UNK N   1      35.450  12.400  14.692  0.00  0.00     0.256 C 
HETATM    2  O   UNK N   1      35.038  11.385  14.143  0.00  0.00    -0.267 OA
HETATM    3  N   UNK N   1      35.919  13.447  13.958  0.00  0.00    -0.323 N 
HETATM    4  H   UNK N   1      36.260  14.227  14.452  0.00  0.00     0.169 HD
ENDROOT
BRANCH   1   5
HETATM    5  C   UNK N   1      35.361  12.510  16.160  0.00  0.00     0.033 A 
HETATM    6  C   UNK N   1      35.375  11.363  16.966  0.00  0.00     0.026 A 
HETATM    7  C   UNK N   1      35.336  11.476  18.359  0.00  0.00    -0.027 A 
HETATM    8  C   UNK N   1      35.354  10.240  19.192  0.00  0.00     0.051 C 
HETATM    9  C   UNK N   1      35.288  12.746  18.959  0.00  0.00     0.077 A 
HETATM   10  C   UNK N   1      35.273  13.896  18.154  0.00  0.00    -0.027 A 
HETATM   11  C   UNK N   1      35.227  15.255  18.761  0.00  0.00     0.051 C 
HETATM   12  C   UNK N   1      35.309  13.773  16.764  0.00  0.00     0.026 A 
BRANCH   9  13
HETATM   13  O   UNK N   1      35.258  12.860  20.300  0.00  0.00    -0.360 OA
HETATM   14  H   UNK N   1      35.104  12.107  20.835  0.00  0.00     0.217 HD
ENDBRANCH   9  13
ENDBRANCH   1   5
BRANCH   3  15
HETATM   15  C   UNK N   1      35.958  13.509  12.535  0.00  0.00     0.037 A 
HETATM   16  C   UNK N   1      37.133  13.137  11.877  0.00  0.00     0.051 A 
HETATM   17  C   UNK N   1      37.251  13.283  10.491  0.00  0.00     0.047 A 
HETATM   18 Br   UNK N   1      38.892  12.804   9.640  0.00  0.00    -0.048 Br
HETATM   19  C   UNK N   1      36.179  13.805   9.748  0.00  0.00     0.100 A 
HETATM   20  C   UNK N   1      34.991  14.162  10.400  0.00  0.00     0.047 A 
HETATM   21 Br   UNK N   1      33.511  14.879   9.427  0.00  0.00    -0.048 Br
HETATM   22  C   UNK N   1      34.887  14.019  11.783  0.00  0.00     0.051 A 
BRANCH  19  23
HETATM   23  O   UNK N   1      36.296  13.969   8.419  0.00  0.00    -0.358 OA
HETATM   24  H   UNK N   1      35.722  13.516   7.833  0.00  0.00     0.217 HD
ENDBRANCH  19  23
ENDBRANCH   3  15
TORSDOF 4
ENDMDL
MODEL 3
REMARK VINA RESULT:      -6.5      5.301      9.238
REMARK  4 active torsions:
REMARK  status: ('A' for Active; 'I' for Inactive)
REMARK    1  A    between atoms: C_4  and  O_5 
REMARK    2  A    between atoms: C_9  and  C_10 
REMARK       I    between atoms: C_10  and  N_12 
REMARK    3  A    between atoms: N_12  and  C_13 
REMARK    4  A    between atoms: C_17  and  O_18 
ROOT
HETATM    1  C   UNK N   1      33.247  16.726   8.754  0.00  0.00     0.256 C 
HETATM    2  O   UNK N   1      33.990  17.625   9.131  0.00  0.00    -0.267 OA
HETATM    3  N   UNK N   1      33.566  15.421   8.975  0.00  0.00    -0.323 N 
HETATM    4  H   UNK N   1      32.945  14.740   8.628  0.00  0.00     0.169 HD
ENDROOT
BRANCH   1   5
HETATM    5  C   UNK N   1      31.959  17.075   8.125  0.00  0.00     0.033 A 
HETATM    6  C   UNK N   1      31.794  16.986   6.735  0.00  0.00     0.026 A 
HETATM    7  C   UNK N   1      30.558  17.274   6.150  0.00  0.00    -0.027 A 
HETATM    8  C   UNK N   1      30.410  17.169   4.670  0.00  0.00     0.051 C 
HETATM    9  C   UNK N   1      29.469  17.649   6.955  0.00  0.00     0.077 A 
HETATM   10  C   UNK N   1      29.633  17.740   8.347  0.00  0.00    -0.027 A 
HETATM   11  C   UNK N   1      28.497  18.130   9.227  0.00  0.00     0.051 C 
HETATM   12  C   UNK N   1      30.871  17.453   8.922  0.00  0.00     0.026 A 
BRANCH   9  13
HETATM   13  O   UNK N   1      28.275  17.920   6.396  0.00  0.00    -0.360 OA
HETATM   14  H   UNK N   1      27.557  18.198   6.928  0.00  0.00     0.217 HD
ENDBRANCH   9  13
ENDBRANCH   1   5
BRANCH   3  15
HETATM   15  C   UNK N   1      34.723  14.956   9.665  0.00  0.00     0.037 A 
HETATM   16  C   UNK N   1      35.863  14.631   8.924  0.00  0.00     0.051 A 
HETATM   17  C   UNK N   1      36.982  14.072   9.549  0.00  0.00     0.047 A 
HETATM   18 Br   UNK N   1      38.501  13.601   8.491  0.00  0.00    -0.048 Br
HETATM   19  C   UNK N   1      36.968  13.836  10.933  0.00  0.00     0.100 A 
HETATM   20  C   UNK N   1      35.835  14.178  11.684  0.00  0.00     0.047 A 
HETATM   21 Br   UNK N   1      35.772  13.870  13.569  0.00  0.00    -0.048 Br
HETATM   22  C   UNK N   1      34.721  14.728  11.051  0.00  0.00     0.051 A 
BRANCH  19  23
HETATM   23  O   UNK N   1      38.033  13.278  11.534  0.00  0.00    -0.358 OA
HETATM   24  H   UNK N   1      37.917  12.678  12.244  0.00  0.00     0.217 HD
ENDBRANCH  19  23
ENDBRANCH   3  15
TORSDOF 4
ENDMDL
MODEL 4
REMARK VINA RESULT:      -6.4      0.191      2.796
REMARK  4 active torsions:
REMARK  status: ('A' for Active; 'I' for Inactive)
REMARK    1  A    between atoms: C_4  and  O_5 
REMARK    2  A    between atoms: C_9  and  C_10 
REMARK       I    between atoms: C_10  and  N_12 
REMARK    3  A    between atoms: N_12  and  C_13 
REMARK    4  A    between atoms: C_17  and  O_18 
ROOT
HETATM    1  C   UNK N   1      35.342  12.844  14.574  0.00  0.00     0.256 C 
HETATM    2  O   UNK N   1      34.456  12.235  13.987  0.00  0.00    -0.267 OA
HETATM    3  N   UNK N   1      36.274  13.556  13.881  0.00  0.00    -0.323 N 
HETATM    4  H   UNK N   1      36.978  14.005  14.402  0.00  0.00     0.169 HD
ENDROOT
BRANCH   1   5
HETATM    5  C   UNK N   1      35.348  12.862  16.049  0.00  0.00     0.033 A 
HETATM    6  C   UNK N   1      35.362  14.076  16.750  0.00  0.00     0.026 A 
HETATM    7  C   UNK N   1      35.321  14.086  18.147  0.00  0.00    -0.027 A 
HETATM    8  C   UNK N   1      35.336  15.391  18.867  0.00  0.00     0.051 C 
HETATM    9  C   UNK N   1      35.258  12.875  18.857  0.00  0.00     0.077 A 
HETATM   10  C   UNK N   1      35.244  11.659  18.157  0.00  0.00    -0.027 A 
HETATM   11  C   UNK N   1      35.173  10.360  18.881  0.00  0.00     0.051 C 
HETATM   12  C   UNK N   1      35.289  11.657  16.762  0.00  0.00     0.026 A 
BRANCH   9  13
HETATM   13  O   UNK N   1      35.211  12.881  20.203  0.00  0.00    -0.360 OA
HETATM   14  H   UNK N   1      34.469  12.526  20.650  0.00  0.00     0.217 HD
ENDBRANCH   9  13
ENDBRANCH   1   5
BRANCH   3  15
HETATM   15  C   UNK N   1      36.316  13.707  12.464  0.00  0.00     0.037 A 
HETATM   16  C   UNK N   1      37.147  12.864  11.722  0.00  0.00     0.051 A 
HETATM   17  C   UNK N   1      37.299  13.047  10.344  0.00  0.00     0.047 A 
HETATM   18 Br   UNK N   1      38.482  11.900   9.377  0.00  0.00    -0.048 Br
HETATM   19  C   UNK N   1      36.609  14.083   9.694  0.00  0.00     0.100 A 
HETATM   20  C   UNK N   1      35.758  14.919  10.430  0.00  0.00     0.047 A 
HETATM   21 Br   UNK N   1      34.804  16.343   9.585  0.00  0.00    -0.048 Br
HETATM   22  C   UNK N   1      35.620  14.733  11.805  0.00  0.00     0.051 A 
BRANCH  19  23
HETATM   23  O   UNK N   1      36.770  14.277   8.374  0.00  0.00    -0.358 OA
HETATM   24  H   UNK N   1      36.074  14.081   7.777  0.00  0.00     0.217 HD
ENDBRANCH  19  23
ENDBRANCH   3  15
TORSDOF 4
ENDMDL
MODEL 5
REMARK VINA RESULT:      -6.2      5.370      9.200
REMARK  4 active torsions:
REMARK  status: ('A' for Active; 'I' for Inactive)
REMARK    1  A    between atoms: C_4  and  O_5 
REMARK    2  A    between atoms: C_9  and  C_10 
REMARK       I    between atoms: C_10  and  N_12 
REMARK    3  A    between atoms: N_12  and  C_13 
REMARK    4  A    between atoms: C_17  and  O_18 
ROOT
HETATM    1  C   UNK N   1      33.062  16.416   8.638  0.00  0.00     0.256 C 
HETATM    2  O   UNK N   1      33.822  17.291   9.037  0.00  0.00    -0.267 OA
HETATM    3  N   UNK N   1      33.383  15.100   8.776  0.00  0.00    -0.323 N 
HETATM    4  H   UNK N   1      32.747  14.440   8.416  0.00  0.00     0.169 HD
ENDROOT
BRANCH   1   5
HETATM    5  C   UNK N   1      31.754  16.801   8.075  0.00  0.00     0.033 A 
HETATM    6  C   UNK N   1      30.686  17.144   8.914  0.00  0.00     0.026 A 
HETATM    7  C   UNK N   1      29.463  17.552   8.373  0.00  0.00    -0.027 A 
HETATM    8  C   UNK N   1      28.344  17.912   9.289  0.00  0.00     0.051 C 
HETATM    9  C   UNK N   1      29.302  17.626   6.979  0.00  0.00     0.077 A 
HETATM   10  C   UNK N   1      30.371  17.282   6.136  0.00  0.00    -0.027 A 
HETATM   11  C   UNK N   1      30.232  17.356   4.655  0.00  0.00     0.051 C 
HETATM   12  C   UNK N   1      31.587  16.873   6.685  0.00  0.00     0.026 A 
BRANCH   9  13
HETATM   13  O   UNK N   1      28.129  18.025   6.453  0.00  0.00    -0.360 OA
HETATM   14  H   UNK N   1      27.818  18.897   6.599  0.00  0.00     0.217 HD
ENDBRANCH   9  13
ENDBRANCH   1   5
BRANCH   3  15
HETATM   15  C   UNK N   1      34.562  14.595   9.398  0.00  0.00     0.037 A 
HETATM   16  C   UNK N   1      34.581  14.452  10.789  0.00  0.00     0.051 A 
HETATM   17  C   UNK N   1      35.751  14.063  11.448  0.00  0.00     0.047 A 
HETATM   18 Br   UNK N   1      35.744  13.924  13.353  0.00  0.00    -0.048 Br
HETATM   19  C   UNK N   1      36.919  13.808  10.712  0.00  0.00     0.100 A 
HETATM   20  C   UNK N   1      36.901  13.931   9.316  0.00  0.00     0.047 A 
HETATM   21 Br   UNK N   1      38.469  13.597   8.277  0.00  0.00    -0.048 Br
HETATM   22  C   UNK N   1      35.731  14.327   8.668  0.00  0.00     0.051 A 
BRANCH  19  23
HETATM   23  O   UNK N   1      38.052  13.456  11.344  0.00  0.00    -0.358 OA
HETATM   24  H   UNK N   1      38.786  13.134  10.859  0.00  0.00     0.217 HD
ENDBRANCH  19  23
ENDBRANCH   3  15
TORSDOF 4
ENDMDL
MODEL 6
REMARK VINA RESULT:      -6.1      9.763     13.061
REMARK  4 active torsions:
REMARK  status: ('A' for Active; 'I' for Inactive)
REMARK    1  A    between atoms: C_4  and  O_5 
REMARK    2  A    between atoms: C_9  and  C_10 
REMARK       I    between atoms: C_10  and  N_12 
REMARK    3  A    between atoms: N_12  and  C_13 
REMARK    4  A    between atoms: C_17  and  O_18 
ROOT
HETATM    1  C   UNK N   1      28.769  17.025   6.800  0.00  0.00     0.256 C 
HETATM    2  O   UNK N   1      28.276  17.495   7.819  0.00  0.00    -0.267 OA
HETATM    3  N   UNK N   1      27.983  16.458   5.844  0.00  0.00    -0.323 N 
HETATM    4  H   UNK N   1      28.435  16.074   5.058  0.00  0.00     0.169 HD
ENDROOT
BRANCH   1   5
HETATM    5  C   UNK N   1      30.223  17.148   6.582  0.00  0.00     0.033 A 
HETATM    6  C   UNK N   1      30.755  17.150   5.286  0.00  0.00     0.026 A 
HETATM    7  C   UNK N   1      32.129  17.313   5.085  0.00  0.00    -0.027 A 
HETATM    8  C   UNK N   1      32.667  17.312   3.695  0.00  0.00     0.051 C 
HETATM    9  C   UNK N   1      32.985  17.482   6.186  0.00  0.00     0.077 A 
HETATM   10  C   UNK N   1      32.454  17.480   7.486  0.00  0.00    -0.027 A 
HETATM   11  C   UNK N   1      33.335  17.662   8.672  0.00  0.00     0.051 C 
HETATM   12  C   UNK N   1      31.082  17.314   7.677  0.00  0.00     0.026 A 
BRANCH   9  13
HETATM   13  O   UNK N   1      34.307  17.646   5.997  0.00  0.00    -0.360 OA
HETATM   14  H   UNK N   1      34.675  18.507   5.959  0.00  0.00     0.217 HD
ENDBRANCH   9  13
ENDBRANCH   1   5
BRANCH   3  15
HETATM   15  C   UNK N   1      26.561  16.373   5.884  0.00  0.00     0.037 A 
HETATM   16  C   UNK N   1      25.968  15.338   6.613  0.00  0.00     0.051 A 
HETATM   17  C   UNK N   1      24.582  15.156   6.591  0.00  0.00     0.047 A 
HETATM   18 Br   UNK N   1      23.820  13.700   7.565  0.00  0.00    -0.048 Br
HETATM   19  C   UNK N   1      23.773  16.019   5.836  0.00  0.00     0.100 A 
HETATM   20  C   UNK N   1      24.359  17.071   5.119  0.00  0.00     0.047 A 
HETATM   21 Br   UNK N   1      23.294  18.266   4.075  0.00  0.00    -0.048 Br
HETATM   22  C   UNK N   1      25.743  17.240   5.140  0.00  0.00     0.051 A 
BRANCH  19  23
HETATM   23  O   UNK N   1      22.442  15.833   5.795  0.00  0.00    -0.358 OA
HETATM   24  H   UNK N   1      21.878  16.511   5.477  0.00  0.00     0.217 HD
ENDBRANCH  19  23
ENDBRANCH   3  15
TORSDOF 4
ENDMDL
MODEL 7
REMARK VINA RESULT:      -6.1      1.729      2.693
REMARK  4 active torsions:
REMARK  status: ('A' for Active; 'I' for Inactive)
REMARK    1  A    between atoms: C_4  and  O_5 
REMARK    2  A    between atoms: C_9  and  C_10 
REMARK       I    between atoms: C_10  and  N_12 
REMARK    3  A    between atoms: N_12  and  C_13 
REMARK    4  A    between atoms: C_17  and  O_18 
ROOT
HETATM    1  C   UNK N   1      35.701  13.666  13.601  0.00  0.00     0.256 C 
HETATM    2  O   UNK N   1      36.410  14.666  13.579  0.00  0.00    -0.267 OA
HETATM    3  N   UNK N   1      35.093  13.219  12.467  0.00  0.00    -0.323 N 
HETATM    4  H   UNK N   1      34.515  12.426  12.548  0.00  0.00     0.169 HD
ENDROOT
BRANCH   1   5
HETATM    5  C   UNK N   1      35.575  12.902  14.856  0.00  0.00     0.033 A 
HETATM    6  C   UNK N   1      35.450  13.562  16.087  0.00  0.00     0.026 A 
HETATM    7  C   UNK N   1      35.285  12.832  17.267  0.00  0.00    -0.027 A 
HETATM    8  C   UNK N   1      35.154  13.560  18.562  0.00  0.00     0.051 C 
HETATM    9  C   UNK N   1      35.236  11.428  17.225  0.00  0.00     0.077 A 
HETATM   10  C   UNK N   1      35.361  10.765  15.993  0.00  0.00    -0.027 A 
HETATM   11  C   UNK N   1      35.308   9.279  15.915  0.00  0.00     0.051 C 
HETATM   12  C   UNK N   1      35.529  11.502  14.820  0.00  0.00     0.026 A 
BRANCH   9  13
HETATM   13  O   UNK N   1      35.070  10.722  18.358  0.00  0.00    -0.360 OA
HETATM   14  H   UNK N   1      35.226  11.121  19.191  0.00  0.00     0.217 HD
ENDBRANCH   9  13
ENDBRANCH   1   5
BRANCH   3  15
HETATM   15  C   UNK N   1      35.221  13.803  11.173  0.00  0.00     0.037 A 
HETATM   16  C   UNK N   1      34.204  14.641  10.709  0.00  0.00     0.051 A 
HETATM   17  C   UNK N   1      34.238  15.148   9.407  0.00  0.00     0.047 A 
HETATM   18 Br   UNK N   1      32.803  16.253   8.799  0.00  0.00    -0.048 Br
HETATM   19  C   UNK N   1      35.304  14.819   8.554  0.00  0.00     0.100 A 
HETATM   20  C   UNK N   1      36.338  13.996   9.020  0.00  0.00     0.047 A 
HETATM   21 Br   UNK N   1      37.805  13.521   7.892  0.00  0.00    -0.048 Br
HETATM   22  C   UNK N   1      36.290  13.489  10.318  0.00  0.00     0.051 A 
BRANCH  19  23
HETATM   23  O   UNK N   1      35.330  15.287   7.294  0.00  0.00    -0.358 OA
HETATM   24  H   UNK N   1      35.523  16.188   7.125  0.00  0.00     0.217 HD
ENDBRANCH  19  23
ENDBRANCH   3  15
TORSDOF 4
ENDMDL
MODEL 8
REMARK VINA RESULT:      -6.1     10.241     13.502
REMARK  4 active torsions:
REMARK  status: ('A' for Active; 'I' for Inactive)
REMARK    1  A    between atoms: C_4  and  O_5 
REMARK    2  A    between atoms: C_9  and  C_10 
REMARK       I    between atoms: C_10  and  N_12 
REMARK    3  A    between atoms: N_12  and  C_13 
REMARK    4  A    between atoms: C_17  and  O_18 
ROOT
HETATM    1  C   UNK N   1      28.728  17.604   6.020  0.00  0.00     0.256 C 
HETATM    2  O   UNK N   1      28.180  18.097   6.998  0.00  0.00    -0.267 OA
HETATM    3  N   UNK N   1      28.005  17.244   4.924  0.00  0.00    -0.323 N 
HETATM    4  H   UNK N   1      28.493  16.830   4.177  0.00  0.00     0.169 HD
ENDROOT
BRANCH   1   5
HETATM    5  C   UNK N   1      30.198  17.474   6.009  0.00  0.00     0.033 A 
HETATM    6  C   UNK N   1      30.896  17.344   4.800  0.00  0.00     0.026 A 
HETATM    7  C   UNK N   1      32.292  17.267   4.794  0.00  0.00    -0.027 A 
HETATM    8  C   UNK N   1      33.008  17.131   3.494  0.00  0.00     0.051 C 
HETATM    9  C   UNK N   1      33.004  17.325   6.004  0.00  0.00     0.077 A 
HETATM   10  C   UNK N   1      32.307  17.454   7.215  0.00  0.00    -0.027 A 
HETATM   11  C   UNK N   1      33.034  17.523   8.513  0.00  0.00     0.051 C 
HETATM   12  C   UNK N   1      30.913  17.527   7.212  0.00  0.00     0.026 A 
BRANCH   9  13
HETATM   13  O   UNK N   1      34.348  17.258   6.001  0.00  0.00    -0.360 OA
HETATM   14  H   UNK N   1      34.856  17.944   6.387  0.00  0.00     0.217 HD
ENDBRANCH   9  13
ENDBRANCH   1   5
BRANCH   3  15
HETATM   15  C   UNK N   1      26.598  17.417   4.767  0.00  0.00     0.037 A 
HETATM   16  C   UNK N   1      26.130  18.548   4.092  0.00  0.00     0.051 A 
HETATM   17  C   UNK N   1      24.759  18.810   4.008  0.00  0.00     0.047 A 
HETATM   18 Br   UNK N   1      24.166  20.391   3.116  0.00  0.00    -0.048 Br
HETATM   19  C   UNK N   1      23.840  17.931   4.603  0.00  0.00     0.100 A 
HETATM   20  C   UNK N   1      24.302  16.785   5.264  0.00  0.00     0.047 A 
HETATM   21 Br   UNK N   1      23.085  15.565   6.090  0.00  0.00    -0.048 Br
HETATM   22  C   UNK N   1      25.672  16.536   5.349  0.00  0.00     0.051 A 
BRANCH  19  23
HETATM   23  O   UNK N   1      22.522  18.191   4.545  0.00  0.00    -0.358 OA
HETATM   24  H   UNK N   1      22.002  17.853   3.842  0.00  0.00     0.217 HD
ENDBRANCH  19  23
ENDBRANCH   3  15
TORSDOF 4
ENDMDL
MODEL 9
REMARK VINA RESULT:      -6.0      1.776      3.274
REMARK  4 active torsions:
REMARK  status: ('A' for Active; 'I' for Inactive)
REMARK    1  A    between atoms: C_4  and  O_5 
REMARK    2  A    between atoms: C_9  and  C_10 
REMARK       I    between atoms: C_10  and  N_12 
REMARK    3  A    between atoms: N_12  and  C_13 
REMARK    4  A    between atoms: C_17  and  O_18 
ROOT
HETATM    1  C   UNK N   1      35.494  12.253  14.735  0.00  0.00     0.256 C 
HETATM    2  O   UNK N   1      34.525  12.575  14.058  0.00  0.00    -0.267 OA
HETATM    3  N   UNK N   1      36.626  11.774  14.147  0.00  0.00    -0.323 N 
HETATM    4  H   UNK N   1      37.364  11.507  14.741  0.00  0.00     0.169 HD
ENDROOT
BRANCH   1   5
HETATM    5  C   UNK N   1      35.452  12.461  16.194  0.00  0.00     0.033 A 
HETATM    6  C   UNK N   1      35.418  13.756  16.732  0.00  0.00     0.026 A 
HETATM    7  C   UNK N   1      35.333  13.945  18.115  0.00  0.00    -0.027 A 
HETATM    8  C   UNK N   1      35.296  15.332  18.659  0.00  0.00     0.051 C 
HETATM    9  C   UNK N   1      35.275  12.835  18.974  0.00  0.00     0.077 A 
HETATM   10  C   UNK N   1      35.310  11.538  18.437  0.00  0.00    -0.027 A 
HETATM   11  C   UNK N   1      35.245  10.342  19.322  0.00  0.00     0.051 C 
HETATM   12  C   UNK N   1      35.398  11.358  17.056  0.00  0.00     0.026 A 
BRANCH   9  13
HETATM   13  O   UNK N   1      35.185  13.013  20.305  0.00  0.00    -0.360 OA
HETATM   14  H   UNK N   1      34.548  13.599  20.661  0.00  0.00     0.217 HD
ENDBRANCH   9  13
ENDBRANCH   1   5
BRANCH   3  15
HETATM   15  C   UNK N   1      36.832  11.627  12.744  0.00  0.00     0.037 A 
HETATM   16  C   UNK N   1      36.587  10.384  12.155  0.00  0.00     0.051 A 
HETATM   17  C   UNK N   1      36.877  10.167  10.805  0.00  0.00     0.047 A 
HETATM   18 Br   UNK N   1      36.570   8.438  10.052  0.00  0.00    -0.048 Br
HETATM   19  C   UNK N   1      37.416  11.205  10.028  0.00  0.00     0.100 A 
HETATM   20  C   UNK N   1      37.645  12.460  10.608  0.00  0.00     0.047 A 
HETATM   21 Br   UNK N   1      38.380  13.898   9.588  0.00  0.00    -0.048 Br
HETATM   22  C   UNK N   1      37.360  12.664  11.957  0.00  0.00     0.051 A 
BRANCH  19  23
HETATM   23  O   UNK N   1      37.718  10.994   8.735  0.00  0.00    -0.358 OA
HETATM   24  H   UNK N   1      37.275  10.328   8.246  0.00  0.00     0.217 HD
ENDBRANCH  19  23
ENDBRANCH   3  15
TORSDOF 4
ENDMDL
