REMARK  4 active torsions:
REMARK  status: ('A' for Active; 'I' for Inactive)
REMARK    1  A    between atoms: C_4  and  O_5 
REMARK    2  A    between atoms: C_9  and  C_10 
REMARK       I    between atoms: C_10  and  N_12 
REMARK    3  A    between atoms: N_12  and  C_13 
REMARK    4  A    between atoms: C_17  and  O_18 
ROOT
HETATM    1  C   UNK N   1      -1.548  -0.727   0.204  0.00  0.00     0.256 C 
HETATM    2  O   UNK N   1      -1.587  -1.947   0.098  0.00  0.00    -0.267 OA
HETATM    3  N   UNK N   1      -0.357  -0.075   0.309  0.00  0.00    -0.323 N 
HETATM    4  H   UNK N   1      -0.386   0.903   0.417  0.00  0.00     0.169 HD
ENDROOT
BRANCH   1   5
HETATM    5  C   UNK N   1      -2.806   0.041   0.139  0.00  0.00     0.033 A 
HETATM    6  C   UNK N   1      -2.796   1.440   0.227  0.00  0.00     0.026 A 
HETATM    7  C   UNK N   1      -3.987   2.164   0.119  0.00  0.00    -0.027 A 
HETATM    8  C   UNK N   1      -3.947   3.651   0.215  0.00  0.00     0.051 C 
HETATM    9  C   UNK N   1      -5.203   1.490  -0.085  0.00  0.00     0.077 A 
HETATM   10  C   UNK N   1      -5.215   0.089  -0.173  0.00  0.00    -0.027 A 
HETATM   11  C   UNK N   1      -6.487  -0.653  -0.394  0.00  0.00     0.051 C 
HETATM   12  C   UNK N   1      -4.022  -0.626  -0.061  0.00  0.00     0.026 A 
BRANCH   9  13
HETATM   13  O   UNK N   1      -6.351   2.184  -0.197  0.00  0.00    -0.360 OA
HETATM   14  H   UNK N   1      -6.333   3.117  -0.275  0.00  0.00     0.217 HD
ENDBRANCH   9  13
ENDBRANCH   1   5
BRANCH   3  15
HETATM   15  C   UNK N   1       0.929  -0.689   0.276  0.00  0.00     0.037 A 
HETATM   16  C   UNK N   1       2.057   0.120   0.114  0.00  0.00     0.051 A 
HETATM   17  C   UNK N   1       3.326  -0.449  -0.030  0.00  0.00     0.047 A 
HETATM   18 Br   UNK N   1       4.834   0.693  -0.295  0.00  0.00    -0.048 Br
HETATM   19  C   UNK N   1       3.475  -1.845  -0.009  0.00  0.00     0.100 A 
HETATM   20  C   UNK N   1       2.350  -2.661   0.173  0.00  0.00     0.047 A 
HETATM   21 Br   UNK N   1       2.508  -4.565   0.204  0.00  0.00    -0.048 Br
HETATM   22  C   UNK N   1       1.088  -2.084   0.308  0.00  0.00     0.051 A 
BRANCH  19  23
HETATM   23  O   UNK N   1       4.690  -2.397  -0.170  0.00  0.00    -0.358 OA
HETATM   24  H   UNK N   1       4.780  -3.323  -0.282  0.00  0.00     0.217 HD
ENDBRANCH  19  23
ENDBRANCH   3  15
TORSDOF 4
