MODEL 1
REMARK VINA RESULT:      -5.5      0.000      0.000
REMARK  7 active torsions:
REMARK  status: ('A' for Active; 'I' for Inactive)
REMARK    1  A    between atoms: C_2  and  O_5 
REMARK    2  A    between atoms: O_5  and  C_6 
REMARK       I    between atoms: C_6  and  N_8 
REMARK    3  A    between atoms: C_9  and  N_8 
REMARK    4  A    between atoms: C_9  and  C_13 
REMARK    5  A    between atoms: C_9  and  C_10 
REMARK    6  A    between atoms: C_14  and  C_13 
REMARK    7  A    between atoms: C_14  and  O_15 
ROOT
HETATM    1  C   UNK N   1      20.690  14.597   9.352  0.00  0.00     0.362 C 
HETATM    2  O   UNK N   1      19.523  14.236   9.340  0.00  0.00    -0.238 OA
HETATM    3  N   UNK N   1      21.080  15.698   8.658  0.00  0.00    -0.325 N 
HETATM    4  H   UNK N   1      22.044  15.897   8.617  0.00  0.00     0.165 HD
ENDROOT
BRANCH   3   5
HETATM    5  C   UNK N   1      20.174  16.602   7.972  0.00  0.00     0.165 C 
BRANCH   5   6
HETATM    6  C   UNK N   1      19.558  17.531   9.023  0.00  0.00     0.144 C 
BRANCH   6   7
HETATM    7  C   UNK N   1      18.077  17.362   9.192  0.00  0.00     0.260 C 
HETATM    8  O   UNK N   1      17.424  16.778   8.339  0.00  0.00    -0.265 OA
BRANCH   7   9
HETATM    9  O   UNK N   1      17.473  17.897  10.280  0.00  0.00    -0.326 OA
HETATM   10  C   UNK N   1      17.970  19.001  10.932  0.00  0.00     0.213 C 
ENDBRANCH   7   9
ENDBRANCH   6   7
ENDBRANCH   5   6
BRANCH   5  11
HETATM   11  C   UNK N   1      20.879  17.397   6.899  0.00  0.00     0.146 C 
HETATM   12  O   UNK N   1      21.111  18.585   7.060  0.00  0.00    -0.296 OA
HETATM   13  C   UNK N   1      21.297  16.731   5.629  0.00  0.00     0.093 C 
ENDBRANCH   5  11
ENDBRANCH   3   5
BRANCH   1  14
HETATM   14  O   UNK N   1      21.618  13.926  10.091  0.00  0.00    -0.294 OA
BRANCH  14  15
HETATM   15  C   UNK N   1      22.425  12.892   9.638  0.00  0.00     0.061 C 
HETATM   16  C   UNK N   1      22.457  11.760  10.648  0.00  0.00     0.046 C 
HETATM   17  C   UNK N   1      21.841  12.362   8.344  0.00  0.00     0.046 C 
HETATM   18  C   UNK N   1      23.841  13.368   9.347  0.00  0.00     0.046 C 
ENDBRANCH  14  15
ENDBRANCH   1  14
TORSDOF 7
ENDMDL
MODEL 2
REMARK VINA RESULT:      -5.4     16.469     18.210
REMARK  7 active torsions:
REMARK  status: ('A' for Active; 'I' for Inactive)
REMARK    1  A    between atoms: C_2  and  O_5 
REMARK    2  A    between atoms: O_5  and  C_6 
REMARK       I    between atoms: C_6  and  N_8 
REMARK    3  A    between atoms: C_9  and  N_8 
REMARK    4  A    between atoms: C_9  and  C_13 
REMARK    5  A    between atoms: C_9  and  C_10 
REMARK    6  A    between atoms: C_14  and  C_13 
REMARK    7  A    between atoms: C_14  and  O_15 
ROOT
HETATM    1  C   UNK N   1      27.155  24.811  -3.788  0.00  0.00     0.362 C 
HETATM    2  O   UNK N   1      26.316  24.008  -3.409  0.00  0.00    -0.238 OA
HETATM    3  N   UNK N   1      26.877  25.676  -4.799  0.00  0.00    -0.325 N 
HETATM    4  H   UNK N   1      27.611  26.238  -5.136  0.00  0.00     0.165 HD
ENDROOT
BRANCH   3   5
HETATM    5  C   UNK N   1      25.571  25.827  -5.416  0.00  0.00     0.165 C 
BRANCH   5   6
HETATM    6  C   UNK N   1      25.171  27.302  -5.305  0.00  0.00     0.144 C 
BRANCH   6   7
HETATM    7  C   UNK N   1      25.805  28.020  -4.151  0.00  0.00     0.260 C 
HETATM    8  O   UNK N   1      25.428  27.799  -3.008  0.00  0.00    -0.265 OA
BRANCH   7   9
HETATM    9  O   UNK N   1      26.770  28.938  -4.396  0.00  0.00    -0.326 OA
HETATM   10  C   UNK N   1      26.653  30.252  -4.009  0.00  0.00     0.213 C 
ENDBRANCH   7   9
ENDBRANCH   6   7
ENDBRANCH   5   6
BRANCH   5  11
HETATM   11  C   UNK N   1      25.576  25.379  -6.858  0.00  0.00     0.146 C 
HETATM   12  O   UNK N   1      25.283  24.231  -7.152  0.00  0.00    -0.296 OA
HETATM   13  C   UNK N   1      25.942  26.344  -7.938  0.00  0.00     0.093 C 
ENDBRANCH   5  11
ENDBRANCH   3   5
BRANCH   1  14
HETATM   14  O   UNK N   1      28.374  24.882  -3.182  0.00  0.00    -0.294 OA
BRANCH  14  15
HETATM   15  C   UNK N   1      29.448  24.037  -3.416  0.00  0.00     0.061 C 
HETATM   16  C   UNK N   1      30.740  24.831  -3.502  0.00  0.00     0.046 C 
HETATM   17  C   UNK N   1      29.557  23.070  -2.256  0.00  0.00     0.046 C 
HETATM   18  C   UNK N   1      29.257  23.220  -4.686  0.00  0.00     0.046 C 
ENDBRANCH  14  15
ENDBRANCH   1  14
TORSDOF 7
ENDMDL
MODEL 3
REMARK VINA RESULT:      -5.2     13.913     16.528
REMARK  7 active torsions:
REMARK  status: ('A' for Active; 'I' for Inactive)
REMARK    1  A    between atoms: C_2  and  O_5 
REMARK    2  A    between atoms: O_5  and  C_6 
REMARK       I    between atoms: C_6  and  N_8 
REMARK    3  A    between atoms: C_9  and  N_8 
REMARK    4  A    between atoms: C_9  and  C_13 
REMARK    5  A    between atoms: C_9  and  C_10 
REMARK    6  A    between atoms: C_14  and  C_13 
REMARK    7  A    between atoms: C_14  and  O_15 
ROOT
HETATM    1  C   UNK N   1      35.477  13.352  13.089  0.00  0.00     0.362 C 
HETATM    2  O   UNK N   1      34.817  12.459  12.579  0.00  0.00    -0.238 OA
HETATM    3  N   UNK N   1      36.427  14.006  12.370  0.00  0.00    -0.325 N 
HETATM    4  H   UNK N   1      36.999  14.650  12.846  0.00  0.00     0.165 HD
ENDROOT
BRANCH   3   5
HETATM    5  C   UNK N   1      36.656  13.820  10.949  0.00  0.00     0.165 C 
BRANCH   5   6
HETATM    6  C   UNK N   1      36.789  15.208  10.313  0.00  0.00     0.144 C 
BRANCH   6   7
HETATM    7  C   UNK N   1      35.546  16.042  10.403  0.00  0.00     0.260 C 
HETATM    8  O   UNK N   1      35.623  17.263  10.395  0.00  0.00    -0.265 OA
BRANCH   7   9
HETATM    9  O   UNK N   1      34.347  15.426  10.532  0.00  0.00    -0.326 OA
HETATM   10  C   UNK N   1      33.434  15.365   9.505  0.00  0.00     0.213 C 
ENDBRANCH   7   9
ENDBRANCH   6   7
ENDBRANCH   5   6
BRANCH   5  11
HETATM   11  C   UNK N   1      37.886  12.986  10.682  0.00  0.00     0.146 C 
HETATM   12  O   UNK N   1      38.925  13.514  10.317  0.00  0.00    -0.296 OA
HETATM   13  C   UNK N   1      37.837  11.504  10.862  0.00  0.00     0.093 C 
ENDBRANCH   5  11
ENDBRANCH   3   5
BRANCH   1  14
HETATM   14  O   UNK N   1      35.250  13.736  14.377  0.00  0.00    -0.294 OA
BRANCH  14  15
HETATM   15  C   UNK N   1      36.055  13.440  15.467  0.00  0.00     0.061 C 
HETATM   16  C   UNK N   1      37.055  14.556  15.709  0.00  0.00     0.046 C 
HETATM   17  C   UNK N   1      35.173  13.313  16.692  0.00  0.00     0.046 C 
HETATM   18  C   UNK N   1      36.788  12.118  15.285  0.00  0.00     0.046 C 
ENDBRANCH  14  15
ENDBRANCH   1  14
TORSDOF 7
ENDMDL
MODEL 4
REMARK VINA RESULT:      -5.1     12.902     14.705
REMARK  7 active torsions:
REMARK  status: ('A' for Active; 'I' for Inactive)
REMARK    1  A    between atoms: C_2  and  O_5 
REMARK    2  A    between atoms: O_5  and  C_6 
REMARK       I    between atoms: C_6  and  N_8 
REMARK    3  A    between atoms: C_9  and  N_8 
REMARK    4  A    between atoms: C_9  and  C_13 
REMARK    5  A    between atoms: C_9  and  C_10 
REMARK    6  A    between atoms: C_14  and  C_13 
REMARK    7  A    between atoms: C_14  and  O_15 
ROOT
HETATM    1  C   UNK N   1      35.304  15.973  10.646  0.00  0.00     0.362 C 
HETATM    2  O   UNK N   1      36.288  16.694  10.719  0.00  0.00    -0.238 OA
HETATM    3  N   UNK N   1      34.540  15.958   9.523  0.00  0.00    -0.325 N 
HETATM    4  H   UNK N   1      33.706  15.436   9.543  0.00  0.00     0.165 HD
ENDROOT
BRANCH   3   5
HETATM    5  C   UNK N   1      34.870  16.658   8.294  0.00  0.00     0.165 C 
BRANCH   5   6
HETATM    6  C   UNK N   1      34.339  15.823   7.125  0.00  0.00     0.144 C 
BRANCH   6   7
HETATM    7  C   UNK N   1      33.594  14.591   7.545  0.00  0.00     0.260 C 
HETATM    8  O   UNK N   1      32.382  14.632   7.712  0.00  0.00    -0.265 OA
BRANCH   7   9
HETATM    9  O   UNK N   1      34.284  13.448   7.772  0.00  0.00    -0.326 OA
HETATM   10  C   UNK N   1      33.935  12.559   8.762  0.00  0.00     0.213 C 
ENDBRANCH   7   9
ENDBRANCH   6   7
ENDBRANCH   5   6
BRANCH   5  11
HETATM   11  C   UNK N   1      34.287  18.051   8.268  0.00  0.00     0.146 C 
HETATM   12  O   UNK N   1      35.013  19.028   8.362  0.00  0.00    -0.296 OA
HETATM   13  C   UNK N   1      32.812  18.240   8.126  0.00  0.00     0.093 C 
ENDBRANCH   5  11
ENDBRANCH   3   5
BRANCH   1  14
HETATM   14  O   UNK N   1      34.974  15.142  11.675  0.00  0.00    -0.294 OA
BRANCH  14  15
HETATM   15  C   UNK N   1      35.769  14.127  12.187  0.00  0.00     0.061 C 
HETATM   16  C   UNK N   1      36.362  14.538  13.522  0.00  0.00     0.046 C 
HETATM   17  C   UNK N   1      34.901  12.905  12.406  0.00  0.00     0.046 C 
HETATM   18  C   UNK N   1      36.881  13.740  11.222  0.00  0.00     0.046 C 
ENDBRANCH  14  15
ENDBRANCH   1  14
TORSDOF 7
ENDMDL
MODEL 5
REMARK VINA RESULT:      -5.1      2.639      6.474
REMARK  7 active torsions:
REMARK  status: ('A' for Active; 'I' for Inactive)
REMARK    1  A    between atoms: C_2  and  O_5 
REMARK    2  A    between atoms: O_5  and  C_6 
REMARK       I    between atoms: C_6  and  N_8 
REMARK    3  A    between atoms: C_9  and  N_8 
REMARK    4  A    between atoms: C_9  and  C_13 
REMARK    5  A    between atoms: C_9  and  C_10 
REMARK    6  A    between atoms: C_14  and  C_13 
REMARK    7  A    between atoms: C_14  and  O_15 
ROOT
HETATM    1  C   UNK N   1      21.268  13.798   9.689  0.00  0.00     0.362 C 
HETATM    2  O   UNK N   1      20.341  13.120  10.106  0.00  0.00    -0.238 OA
HETATM    3  N   UNK N   1      22.544  13.332   9.742  0.00  0.00    -0.325 N 
HETATM    4  H   UNK N   1      23.268  13.948   9.486  0.00  0.00     0.165 HD
ENDROOT
BRANCH   3   5
HETATM    5  C   UNK N   1      22.912  11.988  10.151  0.00  0.00     0.165 C 
BRANCH   5   6
HETATM    6  C   UNK N   1      23.772  11.382   9.038  0.00  0.00     0.144 C 
BRANCH   6   7
HETATM    7  C   UNK N   1      24.198  12.368   7.991  0.00  0.00     0.260 C 
HETATM    8  O   UNK N   1      25.136  13.124   8.205  0.00  0.00    -0.265 OA
BRANCH   7   9
HETATM    9  O   UNK N   1      23.508  12.433   6.828  0.00  0.00    -0.326 OA
HETATM   10  C   UNK N   1      24.082  12.856   5.652  0.00  0.00     0.213 C 
ENDBRANCH   7   9
ENDBRANCH   6   7
ENDBRANCH   5   6
BRANCH   5  11
HETATM   11  C   UNK N   1      23.655  11.985  11.466  0.00  0.00     0.146 C 
HETATM   12  O   UNK N   1      24.873  12.069  11.490  0.00  0.00    -0.296 OA
HETATM   13  C   UNK N   1      22.899  11.876  12.750  0.00  0.00     0.093 C 
ENDBRANCH   5  11
ENDBRANCH   3   5
BRANCH   1  14
HETATM   14  O   UNK N   1      21.040  15.020   9.130  0.00  0.00    -0.294 OA
BRANCH  14  15
HETATM   15  C   UNK N   1      20.799  15.266   7.786  0.00  0.00     0.061 C 
HETATM   16  C   UNK N   1      19.674  16.272   7.623  0.00  0.00     0.046 C 
HETATM   17  C   UNK N   1      22.056  15.851   7.175  0.00  0.00     0.046 C 
HETATM   18  C   UNK N   1      20.466  13.989   7.029  0.00  0.00     0.046 C 
ENDBRANCH  14  15
ENDBRANCH   1  14
TORSDOF 7
ENDMDL
MODEL 6
REMARK VINA RESULT:      -5.0      4.746      7.223
REMARK  7 active torsions:
REMARK  status: ('A' for Active; 'I' for Inactive)
REMARK    1  A    between atoms: C_2  and  O_5 
REMARK    2  A    between atoms: O_5  and  C_6 
REMARK       I    between atoms: C_6  and  N_8 
REMARK    3  A    between atoms: C_9  and  N_8 
REMARK    4  A    between atoms: C_9  and  C_13 
REMARK    5  A    between atoms: C_9  and  C_10 
REMARK    6  A    between atoms: C_14  and  C_13 
REMARK    7  A    between atoms: C_14  and  O_15 
ROOT
HETATM    1  C   UNK N   1      24.946  18.477   4.266  0.00  0.00     0.362 C 
HETATM    2  O   UNK N   1      25.203  17.933   3.203  0.00  0.00    -0.238 OA
HETATM    3  N   UNK N   1      23.691  18.930   4.525  0.00  0.00    -0.325 N 
HETATM    4  H   UNK N   1      23.552  19.447   5.352  0.00  0.00     0.165 HD
ENDROOT
BRANCH   3   5
HETATM    5  C   UNK N   1      22.542  18.704   3.668  0.00  0.00     0.165 C 
BRANCH   5   6
HETATM    6  C   UNK N   1      21.505  17.918   4.476  0.00  0.00     0.144 C 
BRANCH   6   7
HETATM    7  C   UNK N   1      21.840  17.785   5.932  0.00  0.00     0.260 C 
HETATM    8  O   UNK N   1      21.449  18.624   6.732  0.00  0.00    -0.265 OA
BRANCH   7   9
HETATM    9  O   UNK N   1      22.610  16.748   6.338  0.00  0.00    -0.326 OA
HETATM   10  C   UNK N   1      22.649  15.549   5.665  0.00  0.00     0.213 C 
ENDBRANCH   7   9
ENDBRANCH   6   7
ENDBRANCH   5   6
BRANCH   5  11
HETATM   11  C   UNK N   1      21.957  19.999   3.158  0.00  0.00     0.146 C 
HETATM   12  O   UNK N   1      22.686  20.927   2.843  0.00  0.00    -0.296 OA
HETATM   13  C   UNK N   1      20.476  20.154   3.038  0.00  0.00     0.093 C 
ENDBRANCH   5  11
ENDBRANCH   3   5
BRANCH   1  14
HETATM   14  O   UNK N   1      25.902  18.610   5.229  0.00  0.00    -0.294 OA
BRANCH  14  15
HETATM   15  C   UNK N   1      26.978  19.485   5.191  0.00  0.00     0.061 C 
HETATM   16  C   UNK N   1      27.153  20.172   6.533  0.00  0.00     0.046 C 
HETATM   17  C   UNK N   1      28.232  18.688   4.895  0.00  0.00     0.046 C 
HETATM   18  C   UNK N   1      26.820  20.526   4.092  0.00  0.00     0.046 C 
ENDBRANCH  14  15
ENDBRANCH   1  14
TORSDOF 7
ENDMDL
MODEL 7
REMARK VINA RESULT:      -5.0     12.780     14.597
REMARK  7 active torsions:
REMARK  status: ('A' for Active; 'I' for Inactive)
REMARK    1  A    between atoms: C_2  and  O_5 
REMARK    2  A    between atoms: O_5  and  C_6 
REMARK       I    between atoms: C_6  and  N_8 
REMARK    3  A    between atoms: C_9  and  N_8 
REMARK    4  A    between atoms: C_9  and  C_13 
REMARK    5  A    between atoms: C_9  and  C_10 
REMARK    6  A    between atoms: C_14  and  C_13 
REMARK    7  A    between atoms: C_14  and  O_15 
ROOT
HETATM    1  C   UNK N   1      33.972  17.590   7.496  0.00  0.00     0.362 C 
HETATM    2  O   UNK N   1      33.455  18.544   8.058  0.00  0.00    -0.238 OA
HETATM    3  N   UNK N   1      34.379  16.507   8.207  0.00  0.00    -0.325 N 
HETATM    4  H   UNK N   1      34.877  15.805   7.728  0.00  0.00     0.165 HD
ENDROOT
BRANCH   3   5
HETATM    5  C   UNK N   1      34.133  16.313   9.625  0.00  0.00     0.165 C 
BRANCH   5   6
HETATM    6  C   UNK N   1      33.729  14.850   9.832  0.00  0.00     0.144 C 
BRANCH   6   7
HETATM    7  C   UNK N   1      34.073  13.954   8.680  0.00  0.00     0.260 C 
HETATM    8  O   UNK N   1      35.220  13.556   8.532  0.00  0.00    -0.265 OA
BRANCH   7   9
HETATM    9  O   UNK N   1      33.107  13.625   7.789  0.00  0.00    -0.326 OA
HETATM   10  C   UNK N   1      33.290  12.664   6.823  0.00  0.00     0.213 C 
ENDBRANCH   7   9
ENDBRANCH   6   7
ENDBRANCH   5   6
BRANCH   5  11
HETATM   11  C   UNK N   1      35.345  16.659  10.458  0.00  0.00     0.146 C 
HETATM   12  O   UNK N   1      35.895  17.742  10.333  0.00  0.00    -0.296 OA
HETATM   13  C   UNK N   1      35.880  15.671  11.443  0.00  0.00     0.093 C 
ENDBRANCH   5  11
ENDBRANCH   3   5
BRANCH   1  14
HETATM   14  O   UNK N   1      34.116  17.577   6.141  0.00  0.00    -0.294 OA
BRANCH  14  15
HETATM   15  C   UNK N   1      33.328  16.868   5.246  0.00  0.00     0.061 C 
HETATM   16  C   UNK N   1      34.055  15.626   4.765  0.00  0.00     0.046 C 
HETATM   17  C   UNK N   1      32.064  16.436   5.961  0.00  0.00     0.046 C 
HETATM   18  C   UNK N   1      32.919  17.723   4.055  0.00  0.00     0.046 C 
ENDBRANCH  14  15
ENDBRANCH   1  14
TORSDOF 7
ENDMDL
MODEL 8
REMARK VINA RESULT:      -5.0     10.846     12.733
REMARK  7 active torsions:
REMARK  status: ('A' for Active; 'I' for Inactive)
REMARK    1  A    between atoms: C_2  and  O_5 
REMARK    2  A    between atoms: O_5  and  C_6 
REMARK       I    between atoms: C_6  and  N_8 
REMARK    3  A    between atoms: C_9  and  N_8 
REMARK    4  A    between atoms: C_9  and  C_13 
REMARK    5  A    between atoms: C_9  and  C_10 
REMARK    6  A    between atoms: C_14  and  C_13 
REMARK    7  A    between atoms: C_14  and  O_15 
ROOT
HETATM    1  C   UNK N   1      33.596  15.284   9.766  0.00  0.00     0.362 C 
HETATM    2  O   UNK N   1      33.131  14.363   9.112  0.00  0.00    -0.238 OA
HETATM    3  N   UNK N   1      33.540  16.560   9.300  0.00  0.00    -0.325 N 
HETATM    4  H   UNK N   1      34.011  17.256   9.813  0.00  0.00     0.165 HD
ENDROOT
BRANCH   3   5
HETATM    5  C   UNK N   1      32.836  16.966   8.097  0.00  0.00     0.165 C 
BRANCH   5   6
HETATM    6  C   UNK N   1      31.703  17.908   8.517  0.00  0.00     0.144 C 
BRANCH   6   7
HETATM    7  C   UNK N   1      30.330  17.352   8.284  0.00  0.00     0.260 C 
HETATM    8  O   UNK N   1      30.006  16.962   7.170  0.00  0.00    -0.265 OA
BRANCH   7   9
HETATM    9  O   UNK N   1      29.447  17.323   9.310  0.00  0.00    -0.326 OA
HETATM   10  C   UNK N   1      28.190  17.875   9.218  0.00  0.00     0.213 C 
ENDBRANCH   7   9
ENDBRANCH   6   7
ENDBRANCH   5   6
BRANCH   5  11
HETATM   11  C   UNK N   1      33.756  17.640   7.108  0.00  0.00     0.146 C 
HETATM   12  O   UNK N   1      34.669  18.351   7.495  0.00  0.00    -0.296 OA
HETATM   13  C   UNK N   1      33.550  17.440   5.641  0.00  0.00     0.093 C 
ENDBRANCH   5  11
ENDBRANCH   3   5
BRANCH   1  14
HETATM   14  O   UNK N   1      34.146  15.058  10.992  0.00  0.00    -0.294 OA
BRANCH  14  15
HETATM   15  C   UNK N   1      35.378  14.468  11.234  0.00  0.00     0.061 C 
HETATM   16  C   UNK N   1      35.960  14.971  12.543  0.00  0.00     0.046 C 
HETATM   17  C   UNK N   1      35.177  12.971  11.343  0.00  0.00     0.046 C 
HETATM   18  C   UNK N   1      36.358  14.724  10.099  0.00  0.00     0.046 C 
ENDBRANCH  14  15
ENDBRANCH   1  14
TORSDOF 7
ENDMDL
MODEL 9
REMARK VINA RESULT:      -5.0     12.007     14.404
REMARK  7 active torsions:
REMARK  status: ('A' for Active; 'I' for Inactive)
REMARK    1  A    between atoms: C_2  and  O_5 
REMARK    2  A    between atoms: O_5  and  C_6 
REMARK       I    between atoms: C_6  and  N_8 
REMARK    3  A    between atoms: C_9  and  N_8 
REMARK    4  A    between atoms: C_9  and  C_13 
REMARK    5  A    between atoms: C_9  and  C_10 
REMARK    6  A    between atoms: C_14  and  C_13 
REMARK    7  A    between atoms: C_14  and  O_15 
ROOT
HETATM    1  C   UNK N   1      35.334  16.209   9.943  0.00  0.00     0.362 C 
HETATM    2  O   UNK N   1      35.571  17.213  10.598  0.00  0.00    -0.238 OA
HETATM    3  N   UNK N   1      34.250  16.156   9.126  0.00  0.00    -0.325 N 
HETATM    4  H   UNK N   1      34.045  15.296   8.693  0.00  0.00     0.165 HD
ENDROOT
BRANCH   3   5
HETATM    5  C   UNK N   1      33.373  17.279   8.849  0.00  0.00     0.165 C 
BRANCH   5   6
HETATM    6  C   UNK N   1      34.017  18.109   7.734  0.00  0.00     0.144 C 
BRANCH   6   7
HETATM    7  C   UNK N   1      34.150  17.379   6.430  0.00  0.00     0.260 C 
HETATM    8  O   UNK N   1      33.585  17.801   5.430  0.00  0.00    -0.265 OA
BRANCH   7   9
HETATM    9  O   UNK N   1      34.868  16.232   6.386  0.00  0.00    -0.326 OA
HETATM   10  C   UNK N   1      34.760  15.332   5.352  0.00  0.00     0.213 C 
ENDBRANCH   7   9
ENDBRANCH   6   7
ENDBRANCH   5   6
BRANCH   5  11
HETATM   11  C   UNK N   1      31.989  16.826   8.450  0.00  0.00     0.146 C 
HETATM   12  O   UNK N   1      31.782  15.663   8.141  0.00  0.00    -0.296 OA
HETATM   13  C   UNK N   1      30.860  17.804   8.430  0.00  0.00     0.093 C 
ENDBRANCH   5  11
ENDBRANCH   3   5
BRANCH   1  14
HETATM   14  O   UNK N   1      36.173  15.136   9.990  0.00  0.00    -0.294 OA
BRANCH  14  15
HETATM   15  C   UNK N   1      35.977  13.983  10.737  0.00  0.00     0.061 C 
HETATM   16  C   UNK N   1      37.308  13.401  11.176  0.00  0.00     0.046 C 
HETATM   17  C   UNK N   1      35.182  14.345  11.974  0.00  0.00     0.046 C 
HETATM   18  C   UNK N   1      35.184  12.939   9.964  0.00  0.00     0.046 C 
ENDBRANCH  14  15
ENDBRANCH   1  14
TORSDOF 7
ENDMDL
