REMARK  5 active torsions:
REMARK  status: ('A' for Active; 'I' for Inactive)
REMARK    1  A    between atoms: O_2  and  C_3 
REMARK    2  A    between atoms: C_8  and  S_9 
REMARK    3  A    between atoms: S_9  and  N_12 
REMARK    4  A    between atoms: N_17  and  S_18 
REMARK    5  A    between atoms: S_18  and  C_21 
ROOT
HETATM    1  N   UNK N   1      -1.796  -0.234  -0.649  0.00  0.00    -0.204 NA
HETATM    2  C   UNK N   1      -0.487  -0.297  -1.314  0.00  0.00     0.123 C 
HETATM    3  C   UNK N   1       0.672  -0.010  -0.352  0.00  0.00     0.123 C 
HETATM    4  C   UNK N   1      -1.839  -1.100   0.532  0.00  0.00     0.123 C 
HETATM    5  C   UNK N   1      -0.665  -0.857   1.490  0.00  0.00     0.123 C 
HETATM    6  N   UNK N   1       0.643  -0.888   0.818  0.00  0.00    -0.204 NA
ENDROOT
BRANCH   6   7
HETATM    7  S   UNK N   1       1.209  -2.539   0.443  0.00  0.00     0.243 S 
HETATM    8  O   UNK N   1       0.214  -3.175  -0.541  0.00  0.00    -0.206 OA
HETATM    9  O   UNK N   1       0.895  -3.314   1.732  0.00  0.00    -0.206 OA
BRANCH   7  10
HETATM   10  C   UNK N   1       2.943  -2.828   0.076  0.00  0.00     0.077 A 
HETATM   11  C   UNK N   1       3.856  -1.764   0.056  0.00  0.00     0.064 A 
HETATM   12  C   UNK N   1       5.224  -2.026  -0.068  0.00  0.00     0.103 A 
HETATM   13  O   UNK N   1       6.124  -1.013  -0.040  0.00  0.00    -0.346 OA
HETATM   14  C   UNK N   1       5.688  -3.344  -0.182  0.00  0.00     0.102 A 
HETATM   15  C   UNK N   1       7.468  -1.245   0.196  0.00  0.00     0.202 C 
HETATM   16  C   UNK N   1       7.947  -2.568  -0.427  0.00  0.00     0.202 C 
HETATM   17  O   UNK N   1       7.012  -3.586  -0.292  0.00  0.00    -0.346 OA
HETATM   18  C   UNK N   1       4.774  -4.403  -0.180  0.00  0.00     0.041 A 
HETATM   19  C   UNK N   1       3.408  -4.145  -0.041  0.00  0.00     0.028 A 
ENDBRANCH   7  10
ENDBRANCH   6   7
BRANCH   1  20
HETATM   20  S   UNK N   1      -2.308   1.451  -0.332  0.00  0.00     0.243 S 
HETATM   21  O   UNK N   1      -2.054   2.056  -1.720  0.00  0.00    -0.206 OA
HETATM   22  O   UNK N   1      -1.200   2.182   0.444  0.00  0.00    -0.206 OA
BRANCH  20  23
HETATM   23  C   UNK N   1      -3.988   2.009  -0.017  0.00  0.00     0.074 A 
HETATM   24  C   UNK N   1      -5.040   1.110   0.195  0.00  0.00     0.027 A 
HETATM   25  C   UNK N   1      -6.358   1.585   0.283  0.00  0.00     0.038 A 
HETATM   26  C   UNK N   1      -6.633   2.953   0.142  0.00  0.00     0.068 A 
HETATM   27  C   UNK N   1      -5.569   3.849  -0.047  0.00  0.00     0.038 A 
HETATM   28  C   UNK N   1      -4.260   3.377  -0.129  0.00  0.00     0.027 A 
BRANCH  26  29
HETATM   29  O   UNK N   1      -7.918   3.382   0.172  0.00  0.00    -0.356 OA
HETATM   30  C   UNK N   1      -8.280   4.693  -0.056  0.00  0.00     0.210 C 
ENDBRANCH  26  29
ENDBRANCH  20  23
ENDBRANCH   1  20
TORSDOF 5
