MODEL 1
REMARK VINA RESULT:      -7.8      0.000      0.000
REMARK  5 active torsions:
REMARK  status: ('A' for Active; 'I' for Inactive)
REMARK    1  A    between atoms: O_2  and  C_3 
REMARK    2  A    between atoms: C_8  and  S_9 
REMARK    3  A    between atoms: S_9  and  N_12 
REMARK    4  A    between atoms: N_17  and  S_18 
REMARK    5  A    between atoms: S_18  and  C_21 
ROOT
HETATM    1  N   UNK N   1      35.322  16.463   8.692  0.00  0.00    -0.204 NA
HETATM    2  C   UNK N   1      35.111  16.288  10.136  0.00  0.00     0.123 C 
HETATM    3  C   UNK N   1      33.871  15.443  10.448  0.00  0.00     0.123 C 
HETATM    4  C   UNK N   1      35.350  15.175   7.995  0.00  0.00     0.123 C 
HETATM    5  C   UNK N   1      34.136  14.295   8.324  0.00  0.00     0.123 C 
HETATM    6  N   UNK N   1      33.907  14.147   9.769  0.00  0.00    -0.204 NA
ENDROOT
BRANCH   6   7
HETATM    7  S   UNK N   1      35.030  13.000  10.552  0.00  0.00     0.243 S 
HETATM    8  O   UNK N   1      36.367  13.046   9.795  0.00  0.00    -0.206 OA
HETATM    9  O   UNK N   1      34.484  11.631  10.118  0.00  0.00    -0.206 OA
BRANCH   7  10
HETATM   10  C   UNK N   1      35.162  12.960  12.343  0.00  0.00     0.077 A 
HETATM   11  C   UNK N   1      34.610  11.901  13.076  0.00  0.00     0.064 A 
HETATM   12  C   UNK N   1      34.863  11.800  14.448  0.00  0.00     0.103 A 
HETATM   13  O   UNK N   1      34.377  10.756  15.163  0.00  0.00    -0.346 OA
HETATM   14  C   UNK N   1      35.657  12.756  15.096  0.00  0.00     0.102 A 
HETATM   15  C   UNK N   1      34.887  10.432  16.408  0.00  0.00     0.202 C 
HETATM   16  C   UNK N   1      35.293  11.680  17.211  0.00  0.00     0.202 C 
HETATM   17  O   UNK N   1      35.903  12.645  16.419  0.00  0.00    -0.346 OA
HETATM   18  C   UNK N   1      36.192  13.823  14.366  0.00  0.00     0.041 A 
HETATM   19  C   UNK N   1      35.953  13.917  12.993  0.00  0.00     0.028 A 
ENDBRANCH   7  10
ENDBRANCH   6   7
BRANCH   1  20
HETATM   20  S   UNK N   1      34.180  17.646   7.985  0.00  0.00     0.243 S 
HETATM   21  O   UNK N   1      34.613  17.565   6.515  0.00  0.00    -0.206 OA
HETATM   22  O   UNK N   1      34.670  19.071   8.291  0.00  0.00    -0.206 OA
BRANCH  20  23
HETATM   23  C   UNK N   1      32.401  17.442   7.830  0.00  0.00     0.074 A 
HETATM   24  C   UNK N   1      31.825  16.736   6.767  0.00  0.00     0.027 A 
HETATM   25  C   UNK N   1      30.431  16.734   6.603  0.00  0.00     0.038 A 
HETATM   26  C   UNK N   1      29.609  17.449   7.485  0.00  0.00     0.068 A 
HETATM   27  C   UNK N   1      30.194  18.134   8.562  0.00  0.00     0.038 A 
HETATM   28  C   UNK N   1      31.578  18.132   8.727  0.00  0.00     0.027 A 
BRANCH  26  29
HETATM   29  O   UNK N   1      28.271  17.481   7.273  0.00  0.00    -0.356 OA
HETATM   30  C   UNK N   1      27.639  16.699   6.329  0.00  0.00     0.210 C 
ENDBRANCH  26  29
ENDBRANCH  20  23
ENDBRANCH   1  20
TORSDOF 5
ENDMDL
MODEL 2
REMARK VINA RESULT:      -7.3      2.095      9.248
REMARK  5 active torsions:
REMARK  status: ('A' for Active; 'I' for Inactive)
REMARK    1  A    between atoms: O_2  and  C_3 
REMARK    2  A    between atoms: C_8  and  S_9 
REMARK    3  A    between atoms: S_9  and  N_12 
REMARK    4  A    between atoms: N_17  and  S_18 
REMARK    5  A    between atoms: S_18  and  C_21 
ROOT
HETATM    1  N   UNK N   1      34.473  13.817   7.973  0.00  0.00    -0.204 NA
HETATM    2  C   UNK N   1      33.105  14.356   7.975  0.00  0.00     0.123 C 
HETATM    3  C   UNK N   1      32.873  15.358   9.112  0.00  0.00     0.123 C 
HETATM    4  C   UNK N   1      35.471  14.890   7.968  0.00  0.00     0.123 C 
HETATM    5  C   UNK N   1      35.234  15.927   9.074  0.00  0.00     0.123 C 
HETATM    6  N   UNK N   1      33.857  16.441   9.096  0.00  0.00    -0.204 NA
ENDROOT
BRANCH   6   7
HETATM    7  S   UNK N   1      33.526  17.640   7.815  0.00  0.00     0.243 S 
HETATM    8  O   UNK N   1      34.793  18.488   7.615  0.00  0.00    -0.206 OA
HETATM    9  O   UNK N   1      32.598  18.646   8.513  0.00  0.00    -0.206 OA
BRANCH   7  10
HETATM   10  C   UNK N   1      32.696  17.131   6.307  0.00  0.00     0.077 A 
HETATM   11  C   UNK N   1      31.298  17.040   6.256  0.00  0.00     0.064 A 
HETATM   12  C   UNK N   1      30.661  16.804   5.034  0.00  0.00     0.103 A 
HETATM   13  O   UNK N   1      29.309  16.762   4.959  0.00  0.00    -0.346 OA
HETATM   14  C   UNK N   1      31.412  16.646   3.860  0.00  0.00     0.102 A 
HETATM   15  C   UNK N   1      28.647  16.886   3.750  0.00  0.00     0.202 C 
HETATM   16  C   UNK N   1      29.416  16.220   2.595  0.00  0.00     0.202 C 
HETATM   17  O   UNK N   1      30.787  16.427   2.684  0.00  0.00    -0.346 OA
HETATM   18  C   UNK N   1      32.808  16.719   3.916  0.00  0.00     0.041 A 
HETATM   19  C   UNK N   1      33.446  16.970   5.133  0.00  0.00     0.028 A 
ENDBRANCH   7  10
ENDBRANCH   6   7
BRANCH   1  20
HETATM   20  S   UNK N   1      34.719  12.603   9.265  0.00  0.00     0.243 S 
HETATM   21  O   UNK N   1      35.756  11.708   8.573  0.00  0.00    -0.206 OA
HETATM   22  O   UNK N   1      33.535  11.621   9.272  0.00  0.00    -0.206 OA
BRANCH  20  23
HETATM   23  C   UNK N   1      35.514  12.888  10.852  0.00  0.00     0.074 A 
HETATM   24  C   UNK N   1      36.693  12.227  11.219  0.00  0.00     0.027 A 
HETATM   25  C   UNK N   1      37.192  12.363  12.524  0.00  0.00     0.038 A 
HETATM   26  C   UNK N   1      36.510  13.142  13.470  0.00  0.00     0.068 A 
HETATM   27  C   UNK N   1      35.342  13.819  13.085  0.00  0.00     0.038 A 
HETATM   28  C   UNK N   1      34.850  13.688  11.788  0.00  0.00     0.027 A 
BRANCH  26  29
HETATM   29  O   UNK N   1      36.979  13.211  14.740  0.00  0.00    -0.356 OA
HETATM   30  C   UNK N   1      37.074  14.393  15.444  0.00  0.00     0.210 C 
ENDBRANCH  26  29
ENDBRANCH  20  23
ENDBRANCH   1  20
TORSDOF 5
ENDMDL
MODEL 3
REMARK VINA RESULT:      -7.2      1.721      2.024
REMARK  5 active torsions:
REMARK  status: ('A' for Active; 'I' for Inactive)
REMARK    1  A    between atoms: O_2  and  C_3 
REMARK    2  A    between atoms: C_8  and  S_9 
REMARK    3  A    between atoms: S_9  and  N_12 
REMARK    4  A    between atoms: N_17  and  S_18 
REMARK    5  A    between atoms: S_18  and  C_21 
ROOT
HETATM    1  N   UNK N   1      34.946  16.245   8.490  0.00  0.00    -0.204 NA
HETATM    2  C   UNK N   1      34.609  16.048   9.907  0.00  0.00     0.123 C 
HETATM    3  C   UNK N   1      33.505  15.003  10.106  0.00  0.00     0.123 C 
HETATM    4  C   UNK N   1      35.272  14.975   7.836  0.00  0.00     0.123 C 
HETATM    5  C   UNK N   1      34.198  13.901   8.056  0.00  0.00     0.123 C 
HETATM    6  N   UNK N   1      33.838  13.728   9.471  0.00  0.00    -0.204 NA
ENDROOT
BRANCH   6   7
HETATM    7  S   UNK N   1      35.046  12.800  10.402  0.00  0.00     0.243 S 
HETATM    8  O   UNK N   1      36.360  12.788   9.605  0.00  0.00    -0.206 OA
HETATM    9  O   UNK N   1      34.576  11.347  10.229  0.00  0.00    -0.206 OA
BRANCH   7  10
HETATM   10  C   UNK N   1      35.222  13.079  12.167  0.00  0.00     0.077 A 
HETATM   11  C   UNK N   1      34.670  12.180  13.091  0.00  0.00     0.064 A 
HETATM   12  C   UNK N   1      34.955  12.322  14.453  0.00  0.00     0.103 A 
HETATM   13  O   UNK N   1      34.470  11.433  15.354  0.00  0.00    -0.346 OA
HETATM   14  C   UNK N   1      35.781  13.362  14.901  0.00  0.00     0.102 A 
HETATM   15  C   UNK N   1      35.004  11.328  16.626  0.00  0.00     0.202 C 
HETATM   16  C   UNK N   1      35.451  12.691  17.183  0.00  0.00     0.202 C 
HETATM   17  O   UNK N   1      36.057  13.485  16.218  0.00  0.00    -0.346 OA
HETATM   18  C   UNK N   1      36.316  14.269  13.980  0.00  0.00     0.041 A 
HETATM   19  C   UNK N   1      36.045  14.120  12.618  0.00  0.00     0.028 A 
ENDBRANCH   7  10
ENDBRANCH   6   7
BRANCH   1  20
HETATM   20  S   UNK N   1      33.705  17.206   7.632  0.00  0.00     0.243 S 
HETATM   21  O   UNK N   1      34.587  18.350   7.113  0.00  0.00    -0.206 OA
HETATM   22  O   UNK N   1      32.877  18.000   8.656  0.00  0.00    -0.206 OA
BRANCH  20  23
HETATM   23  C   UNK N   1      32.844  16.728   6.127  0.00  0.00     0.074 A 
HETATM   24  C   UNK N   1      33.053  17.390   4.912  0.00  0.00     0.027 A 
HETATM   25  C   UNK N   1      32.248  17.084   3.803  0.00  0.00     0.038 A 
HETATM   26  C   UNK N   1      31.223  16.133   3.907  0.00  0.00     0.068 A 
HETATM   27  C   UNK N   1      31.037  15.458   5.123  0.00  0.00     0.038 A 
HETATM   28  C   UNK N   1      31.840  15.758   6.223  0.00  0.00     0.027 A 
BRANCH  26  29
HETATM   29  O   UNK N   1      30.421  15.897   2.840  0.00  0.00    -0.356 OA
HETATM   30  C   UNK N   1      29.078  16.211   2.823  0.00  0.00     0.210 C 
ENDBRANCH  26  29
ENDBRANCH  20  23
ENDBRANCH   1  20
TORSDOF 5
ENDMDL
MODEL 4
REMARK VINA RESULT:      -7.2      1.588      9.206
REMARK  5 active torsions:
REMARK  status: ('A' for Active; 'I' for Inactive)
REMARK    1  A    between atoms: O_2  and  C_3 
REMARK    2  A    between atoms: C_8  and  S_9 
REMARK    3  A    between atoms: S_9  and  N_12 
REMARK    4  A    between atoms: N_17  and  S_18 
REMARK    5  A    between atoms: S_18  and  C_21 
ROOT
HETATM    1  N   UNK N   1      36.457  13.890  10.253  0.00  0.00    -0.204 NA
HETATM    2  C   UNK N   1      35.552  13.584   9.136  0.00  0.00     0.123 C 
HETATM    3  C   UNK N   1      34.082  13.841   9.487  0.00  0.00     0.123 C 
HETATM    4  C   UNK N   1      36.245  15.249  10.757  0.00  0.00     0.123 C 
HETATM    5  C   UNK N   1      34.773  15.541  11.077  0.00  0.00     0.123 C 
HETATM    6  N   UNK N   1      33.865  15.205   9.971  0.00  0.00    -0.204 NA
ENDROOT
BRANCH   6   7
HETATM    7  S   UNK N   1      33.880  16.405   8.650  0.00  0.00     0.243 S 
HETATM    8  O   UNK N   1      35.002  16.025   7.670  0.00  0.00    -0.206 OA
HETATM    9  O   UNK N   1      34.476  17.652   9.322  0.00  0.00    -0.206 OA
BRANCH   7  10
HETATM   10  C   UNK N   1      32.337  16.917   7.888  0.00  0.00     0.077 A 
HETATM   11  C   UNK N   1      32.181  16.882   6.495  0.00  0.00     0.064 A 
HETATM   12  C   UNK N   1      30.925  17.125   5.931  0.00  0.00     0.103 A 
HETATM   13  O   UNK N   1      30.745  17.046   4.590  0.00  0.00    -0.346 OA
HETATM   14  C   UNK N   1      29.822  17.414   6.748  0.00  0.00     0.102 A 
HETATM   15  C   UNK N   1      29.483  16.928   4.034  0.00  0.00     0.202 C 
HETATM   16  C   UNK N   1      28.426  17.723   4.820  0.00  0.00     0.202 C 
HETATM   17  O   UNK N   1      28.612  17.638   6.193  0.00  0.00    -0.346 OA
HETATM   18  C   UNK N   1      29.984  17.466   8.137  0.00  0.00     0.041 A 
HETATM   19  C   UNK N   1      31.234  17.209   8.704  0.00  0.00     0.028 A 
ENDBRANCH   7  10
ENDBRANCH   6   7
BRANCH   1  20
HETATM   20  S   UNK N   1      36.407  12.630  11.522  0.00  0.00     0.243 S 
HETATM   21  O   UNK N   1      37.914  12.406  11.713  0.00  0.00    -0.206 OA
HETATM   22  O   UNK N   1      36.053  11.277  10.882  0.00  0.00    -0.206 OA
BRANCH  20  23
HETATM   23  C   UNK N   1      35.876  12.857  13.225  0.00  0.00     0.074 A 
HETATM   24  C   UNK N   1      36.603  13.640  14.129  0.00  0.00     0.027 A 
HETATM   25  C   UNK N   1      36.236  13.664  15.484  0.00  0.00     0.038 A 
HETATM   26  C   UNK N   1      35.157  12.896  15.944  0.00  0.00     0.068 A 
HETATM   27  C   UNK N   1      34.420  12.133  15.025  0.00  0.00     0.038 A 
HETATM   28  C   UNK N   1      34.781  12.113  13.679  0.00  0.00     0.027 A 
BRANCH  26  29
HETATM   29  O   UNK N   1      34.857  12.889  17.265  0.00  0.00    -0.356 OA
HETATM   30  C   UNK N   1      35.293  11.909  18.131  0.00  0.00     0.210 C 
ENDBRANCH  26  29
ENDBRANCH  20  23
ENDBRANCH   1  20
TORSDOF 5
ENDMDL
MODEL 5
REMARK VINA RESULT:      -7.1     17.474     19.733
REMARK  5 active torsions:
REMARK  status: ('A' for Active; 'I' for Inactive)
REMARK    1  A    between atoms: O_2  and  C_3 
REMARK    2  A    between atoms: C_8  and  S_9 
REMARK    3  A    between atoms: S_9  and  N_12 
REMARK    4  A    between atoms: N_17  and  S_18 
REMARK    5  A    between atoms: S_18  and  C_21 
ROOT
HETATM    1  N   UNK N   1      27.477  24.367  -6.239  0.00  0.00    -0.204 NA
HETATM    2  C   UNK N   1      28.932  24.571  -6.201  0.00  0.00     0.123 C 
HETATM    3  C   UNK N   1      29.375  25.394  -4.986  0.00  0.00     0.123 C 
HETATM    4  C   UNK N   1      26.982  23.798  -4.983  0.00  0.00     0.123 C 
HETATM    5  C   UNK N   1      27.447  24.584  -3.750  0.00  0.00     0.123 C 
HETATM    6  N   UNK N   1      28.900  24.816  -3.729  0.00  0.00    -0.204 NA
ENDROOT
BRANCH   6   7
HETATM    7  S   UNK N   1      29.840  23.378  -3.244  0.00  0.00     0.243 S 
HETATM    8  O   UNK N   1      28.998  22.568  -2.245  0.00  0.00    -0.206 OA
HETATM    9  O   UNK N   1      30.920  23.965  -2.321  0.00  0.00    -0.206 OA
BRANCH   7  10
HETATM   10  C   UNK N   1      30.696  22.408  -4.489  0.00  0.00     0.077 A 
HETATM   11  C   UNK N   1      32.062  22.608  -4.736  0.00  0.00     0.064 A 
HETATM   12  C   UNK N   1      32.748  21.737  -5.588  0.00  0.00     0.103 A 
HETATM   13  O   UNK N   1      34.078  21.887  -5.800  0.00  0.00    -0.346 OA
HETATM   14  C   UNK N   1      32.078  20.670  -6.203  0.00  0.00     0.102 A 
HETATM   15  C   UNK N   1      34.846  20.865  -6.332  0.00  0.00     0.202 C 
HETATM   16  C   UNK N   1      34.075  20.045  -7.381  0.00  0.00     0.202 C 
HETATM   17  O   UNK N   1      32.753  19.829  -7.017  0.00  0.00    -0.346 OA
HETATM   18  C   UNK N   1      30.712  20.482  -5.970  0.00  0.00     0.041 A 
HETATM   19  C   UNK N   1      30.027  21.343  -5.107  0.00  0.00     0.028 A 
ENDBRANCH   7  10
ENDBRANCH   6   7
BRANCH   1  20
HETATM   20  S   UNK N   1      26.606  25.841  -6.760  0.00  0.00     0.243 S 
HETATM   21  O   UNK N   1      25.164  25.390  -6.489  0.00  0.00    -0.206 OA
HETATM   22  O   UNK N   1      26.549  25.882  -8.296  0.00  0.00    -0.206 OA
BRANCH  20  23
HETATM   23  C   UNK N   1      26.628  27.436  -5.931  0.00  0.00     0.074 A 
HETATM   24  C   UNK N   1      27.541  28.439  -6.278  0.00  0.00     0.027 A 
HETATM   25  C   UNK N   1      27.623  29.607  -5.504  0.00  0.00     0.038 A 
HETATM   26  C   UNK N   1      26.811  29.770  -4.372  0.00  0.00     0.068 A 
HETATM   27  C   UNK N   1      25.883  28.769  -4.046  0.00  0.00     0.038 A 
HETATM   28  C   UNK N   1      25.798  27.612  -4.819  0.00  0.00     0.027 A 
BRANCH  26  29
HETATM   29  O   UNK N   1      26.949  30.879  -3.606  0.00  0.00    -0.356 OA
HETATM   30  C   UNK N   1      27.625  30.885  -2.404  0.00  0.00     0.210 C 
ENDBRANCH  26  29
ENDBRANCH  20  23
ENDBRANCH   1  20
TORSDOF 5
ENDMDL
MODEL 6
REMARK VINA RESULT:      -7.1      2.538      9.532
REMARK  5 active torsions:
REMARK  status: ('A' for Active; 'I' for Inactive)
REMARK    1  A    between atoms: O_2  and  C_3 
REMARK    2  A    between atoms: C_8  and  S_9 
REMARK    3  A    between atoms: S_9  and  N_12 
REMARK    4  A    between atoms: N_17  and  S_18 
REMARK    5  A    between atoms: S_18  and  C_21 
ROOT
HETATM    1  N   UNK N   1      36.315  12.052  12.068  0.00  0.00    -0.204 NA
HETATM    2  C   UNK N   1      35.692  12.083  10.738  0.00  0.00     0.123 C 
HETATM    3  C   UNK N   1      34.501  13.047  10.672  0.00  0.00     0.123 C 
HETATM    4  C   UNK N   1      36.676  13.398  12.522  0.00  0.00     0.123 C 
HETATM    5  C   UNK N   1      35.509  14.390  12.427  0.00  0.00     0.123 C 
HETATM    6  N   UNK N   1      34.864  14.397  11.105  0.00  0.00    -0.204 NA
ENDROOT
BRANCH   6   7
HETATM    7  S   UNK N   1      35.798  15.280   9.866  0.00  0.00     0.243 S 
HETATM    8  O   UNK N   1      36.997  14.409   9.457  0.00  0.00    -0.206 OA
HETATM    9  O   UNK N   1      36.491  16.385  10.676  0.00  0.00    -0.206 OA
BRANCH   7  10
HETATM   10  C   UNK N   1      34.942  16.091   8.512  0.00  0.00     0.077 A 
HETATM   11  C   UNK N   1      35.056  15.607   7.201  0.00  0.00     0.064 A 
HETATM   12  C   UNK N   1      34.257  16.147   6.189  0.00  0.00     0.103 A 
HETATM   13  O   UNK N   1      34.320  15.657   4.927  0.00  0.00    -0.346 OA
HETATM   14  C   UNK N   1      33.349  17.176   6.474  0.00  0.00     0.102 A 
HETATM   15  C   UNK N   1      33.321  15.909   4.002  0.00  0.00     0.202 C 
HETATM   16  C   UNK N   1      32.726  17.319   4.159  0.00  0.00     0.202 C 
HETATM   17  O   UNK N   1      32.575  17.685   5.490  0.00  0.00    -0.346 OA
HETATM   18  C   UNK N   1      33.249  17.671   7.778  0.00  0.00     0.041 A 
HETATM   19  C   UNK N   1      34.035  17.122   8.794  0.00  0.00     0.028 A 
ENDBRANCH   7  10
ENDBRANCH   6   7
BRANCH   1  20
HETATM   20  S   UNK N   1      35.337  11.127  13.247  0.00  0.00     0.243 S 
HETATM   21  O   UNK N   1      36.138   9.817  13.264  0.00  0.00    -0.206 OA
HETATM   22  O   UNK N   1      34.064  10.610  12.557  0.00  0.00    -0.206 OA
BRANCH  20  23
HETATM   23  C   UNK N   1      35.197  11.465  15.007  0.00  0.00     0.074 A 
HETATM   24  C   UNK N   1      34.714  12.687  15.491  0.00  0.00     0.027 A 
HETATM   25  C   UNK N   1      34.766  12.964  16.866  0.00  0.00     0.038 A 
HETATM   26  C   UNK N   1      35.316  12.033  17.760  0.00  0.00     0.068 A 
HETATM   27  C   UNK N   1      35.776  10.801  17.268  0.00  0.00     0.038 A 
HETATM   28  C   UNK N   1      35.719  10.525  15.903  0.00  0.00     0.027 A 
BRANCH  26  29
HETATM   29  O   UNK N   1      35.410  12.345  19.075  0.00  0.00    -0.356 OA
HETATM   30  C   UNK N   1      35.171  11.436  20.084  0.00  0.00     0.210 C 
ENDBRANCH  26  29
ENDBRANCH  20  23
ENDBRANCH   1  20
TORSDOF 5
ENDMDL
MODEL 7
REMARK VINA RESULT:      -7.1      2.080      8.740
REMARK  5 active torsions:
REMARK  status: ('A' for Active; 'I' for Inactive)
REMARK    1  A    between atoms: O_2  and  C_3 
REMARK    2  A    between atoms: C_8  and  S_9 
REMARK    3  A    between atoms: S_9  and  N_12 
REMARK    4  A    between atoms: N_17  and  S_18 
REMARK    5  A    between atoms: S_18  and  C_21 
ROOT
HETATM    1  N   UNK N   1      32.781  13.536   8.222  0.00  0.00    -0.204 NA
HETATM    2  C   UNK N   1      32.573  14.630   9.180  0.00  0.00     0.123 C 
HETATM    3  C   UNK N   1      33.878  15.352   9.536  0.00  0.00     0.123 C 
HETATM    4  C   UNK N   1      33.493  13.998   7.027  0.00  0.00     0.123 C 
HETATM    5  C   UNK N   1      34.783  14.759   7.362  0.00  0.00     0.123 C 
HETATM    6  N   UNK N   1      34.580  15.833   8.346  0.00  0.00    -0.204 NA
ENDROOT
BRANCH   6   7
HETATM    7  S   UNK N   1      33.823  17.295   7.655  0.00  0.00     0.243 S 
HETATM    8  O   UNK N   1      34.592  17.675   6.379  0.00  0.00    -0.206 OA
HETATM    9  O   UNK N   1      34.270  18.405   8.619  0.00  0.00    -0.206 OA
BRANCH   7  10
HETATM   10  C   UNK N   1      32.035  17.404   7.535  0.00  0.00     0.077 A 
HETATM   11  C   UNK N   1      31.350  16.788   6.478  0.00  0.00     0.064 A 
HETATM   12  C   UNK N   1      29.953  16.743   6.488  0.00  0.00     0.103 A 
HETATM   13  O   UNK N   1      29.277  16.108   5.499  0.00  0.00    -0.346 OA
HETATM   14  C   UNK N   1      29.231  17.317   7.544  0.00  0.00     0.102 A 
HETATM   15  C   UNK N   1      27.952  15.737   5.650  0.00  0.00     0.202 C 
HETATM   16  C   UNK N   1      27.153  16.760   6.477  0.00  0.00     0.202 C 
HETATM   17  O   UNK N   1      27.882  17.259   7.549  0.00  0.00    -0.346 OA
HETATM   18  C   UNK N   1      29.915  17.947   8.589  0.00  0.00     0.041 A 
HETATM   19  C   UNK N   1      31.311  17.980   8.589  0.00  0.00     0.028 A 
ENDBRANCH   7  10
ENDBRANCH   6   7
BRANCH   1  20
HETATM   20  S   UNK N   1      33.516  12.098   8.993  0.00  0.00     0.243 S 
HETATM   21  O   UNK N   1      34.224  11.493   7.772  0.00  0.00    -0.206 OA
HETATM   22  O   UNK N   1      32.437  11.020   9.191  0.00  0.00    -0.206 OA
BRANCH  20  23
HETATM   23  C   UNK N   1      34.852  12.104  10.196  0.00  0.00     0.074 A 
HETATM   24  C   UNK N   1      36.173  12.395   9.834  0.00  0.00     0.027 A 
HETATM   25  C   UNK N   1      37.205  12.238  10.773  0.00  0.00     0.038 A 
HETATM   26  C   UNK N   1      36.927  11.773  12.067  0.00  0.00     0.068 A 
HETATM   27  C   UNK N   1      35.596  11.506  12.426  0.00  0.00     0.038 A 
HETATM   28  C   UNK N   1      34.571  11.668  11.495  0.00  0.00     0.027 A 
BRANCH  26  29
HETATM   29  O   UNK N   1      37.945  11.573  12.938  0.00  0.00    -0.356 OA
HETATM   30  C   UNK N   1      37.760  11.455  14.299  0.00  0.00     0.210 C 
ENDBRANCH  26  29
ENDBRANCH  20  23
ENDBRANCH   1  20
TORSDOF 5
ENDMDL
MODEL 8
REMARK VINA RESULT:      -7.0      1.110      8.973
REMARK  5 active torsions:
REMARK  status: ('A' for Active; 'I' for Inactive)
REMARK    1  A    between atoms: O_2  and  C_3 
REMARK    2  A    between atoms: C_8  and  S_9 
REMARK    3  A    between atoms: S_9  and  N_12 
REMARK    4  A    between atoms: N_17  and  S_18 
REMARK    5  A    between atoms: S_18  and  C_21 
ROOT
HETATM    1  N   UNK N   1      34.441  15.092  11.209  0.00  0.00    -0.204 NA
HETATM    2  C   UNK N   1      35.409  15.986  10.559  0.00  0.00     0.123 C 
HETATM    3  C   UNK N   1      35.738  15.550   9.126  0.00  0.00     0.123 C 
HETATM    4  C   UNK N   1      33.232  14.930  10.396  0.00  0.00     0.123 C 
HETATM    5  C   UNK N   1      33.540  14.532   8.946  0.00  0.00     0.123 C 
HETATM    6  N   UNK N   1      34.534  15.408   8.307  0.00  0.00    -0.204 NA
ENDROOT
BRANCH   6   7
HETATM    7  S   UNK N   1      33.868  16.984   7.799  0.00  0.00     0.243 S 
HETATM    8  O   UNK N   1      34.717  17.509   6.629  0.00  0.00    -0.206 OA
HETATM    9  O   UNK N   1      34.303  17.926   8.932  0.00  0.00    -0.206 OA
BRANCH   7  10
HETATM   10  C   UNK N   1      32.094  17.187   7.611  0.00  0.00     0.077 A 
HETATM   11  C   UNK N   1      31.401  16.511   6.596  0.00  0.00     0.064 A 
HETATM   12  C   UNK N   1      30.004  16.550   6.566  0.00  0.00     0.103 A 
HETATM   13  O   UNK N   1      29.316  15.863   5.621  0.00  0.00    -0.346 OA
HETATM   14  C   UNK N   1      29.291  17.267   7.537  0.00  0.00     0.102 A 
HETATM   15  C   UNK N   1      27.967  15.587   5.764  0.00  0.00     0.202 C 
HETATM   16  C   UNK N   1      27.212  16.732   6.462  0.00  0.00     0.202 C 
HETATM   17  O   UNK N   1      27.941  17.290   7.504  0.00  0.00    -0.346 OA
HETATM   18  C   UNK N   1      29.985  17.955   8.538  0.00  0.00     0.041 A 
HETATM   19  C   UNK N   1      31.380  17.906   8.580  0.00  0.00     0.028 A 
ENDBRANCH   7  10
ENDBRANCH   6   7
BRANCH   1  20
HETATM   20  S   UNK N   1      35.187  13.546  11.714  0.00  0.00     0.243 S 
HETATM   21  O   UNK N   1      36.667  13.909  11.528  0.00  0.00    -0.206 OA
HETATM   22  O   UNK N   1      35.056  12.521  10.576  0.00  0.00    -0.206 OA
BRANCH  20  23
HETATM   23  C   UNK N   1      35.207  12.872  13.381  0.00  0.00     0.074 A 
HETATM   24  C   UNK N   1      34.473  11.731  13.728  0.00  0.00     0.027 A 
HETATM   25  C   UNK N   1      34.396  11.332  15.071  0.00  0.00     0.038 A 
HETATM   26  C   UNK N   1      35.034  12.077  16.073  0.00  0.00     0.068 A 
HETATM   27  C   UNK N   1      35.787  13.206  15.713  0.00  0.00     0.038 A 
HETATM   28  C   UNK N   1      35.867  13.599  14.378  0.00  0.00     0.027 A 
BRANCH  26  29
HETATM   29  O   UNK N   1      34.897  11.706  17.370  0.00  0.00    -0.356 OA
HETATM   30  C   UNK N   1      35.268  12.511  18.426  0.00  0.00     0.210 C 
ENDBRANCH  26  29
ENDBRANCH  20  23
ENDBRANCH   1  20
TORSDOF 5
ENDMDL
MODEL 9
REMARK VINA RESULT:      -7.0      2.904      4.830
REMARK  5 active torsions:
REMARK  status: ('A' for Active; 'I' for Inactive)
REMARK    1  A    between atoms: O_2  and  C_3 
REMARK    2  A    between atoms: C_8  and  S_9 
REMARK    3  A    between atoms: S_9  and  N_12 
REMARK    4  A    between atoms: N_17  and  S_18 
REMARK    5  A    between atoms: S_18  and  C_21 
ROOT
HETATM    1  N   UNK N   1      31.137  17.498   6.699  0.00  0.00    -0.204 NA
HETATM    2  C   UNK N   1      31.515  16.782   7.925  0.00  0.00     0.123 C 
HETATM    3  C   UNK N   1      31.742  15.285   7.683  0.00  0.00     0.123 C 
HETATM    4  C   UNK N   1      32.101  17.259   5.621  0.00  0.00     0.123 C 
HETATM    5  C   UNK N   1      32.373  15.766   5.388  0.00  0.00     0.123 C 
HETATM    6  N   UNK N   1      32.719  15.044   6.621  0.00  0.00    -0.204 NA
ENDROOT
BRANCH   6   7
HETATM    7  S   UNK N   1      34.396  15.330   7.164  0.00  0.00     0.243 S 
HETATM    8  O   UNK N   1      34.954  16.531   6.383  0.00  0.00    -0.206 OA
HETATM    9  O   UNK N   1      35.170  14.168   6.522  0.00  0.00    -0.206 OA
BRANCH   7  10
HETATM   10  C   UNK N   1      34.785  15.304   8.916  0.00  0.00     0.077 A 
HETATM   11  C   UNK N   1      35.057  14.094   9.571  0.00  0.00     0.064 A 
HETATM   12  C   UNK N   1      35.518  14.108  10.891  0.00  0.00     0.103 A 
HETATM   13  O   UNK N   1      35.831  12.950  11.522  0.00  0.00    -0.346 OA
HETATM   14  C   UNK N   1      35.700  15.322  11.568  0.00  0.00     0.102 A 
HETATM   15  C   UNK N   1      36.608  12.938  12.668  0.00  0.00     0.202 C 
HETATM   16  C   UNK N   1      36.334  14.155  13.569  0.00  0.00     0.202 C 
HETATM   17  O   UNK N   1      36.154  15.323  12.840  0.00  0.00    -0.346 OA
HETATM   18  C   UNK N   1      35.412  16.527  10.919  0.00  0.00     0.041 A 
HETATM   19  C   UNK N   1      34.966  16.517   9.595  0.00  0.00     0.028 A 
ENDBRANCH   7  10
ENDBRANCH   6   7
BRANCH   1  20
HETATM   20  S   UNK N   1      29.438  17.185   6.235  0.00  0.00     0.243 S 
HETATM   21  O   UNK N   1      28.836  16.954   7.628  0.00  0.00    -0.206 OA
HETATM   22  O   UNK N   1      29.314  15.753   5.690  0.00  0.00    -0.206 OA
BRANCH  20  23
HETATM   23  C   UNK N   1      28.283  18.386   5.558  0.00  0.00     0.074 A 
HETATM   24  C   UNK N   1      27.768  19.435   6.329  0.00  0.00     0.027 A 
HETATM   25  C   UNK N   1      26.755  20.254   5.806  0.00  0.00     0.038 A 
HETATM   26  C   UNK N   1      26.241  20.020   4.522  0.00  0.00     0.068 A 
HETATM   27  C   UNK N   1      26.781  18.981   3.748  0.00  0.00     0.038 A 
HETATM   28  C   UNK N   1      27.790  18.171   4.266  0.00  0.00     0.027 A 
BRANCH  26  29
HETATM   29  O   UNK N   1      25.223  20.786   4.061  0.00  0.00    -0.356 OA
HETATM   30  C   UNK N   1      24.342  20.362   3.089  0.00  0.00     0.210 C 
ENDBRANCH  26  29
ENDBRANCH  20  23
ENDBRANCH   1  20
TORSDOF 5
ENDMDL
