MODEL 1
REMARK VINA RESULT:      -7.4      0.000      0.000
REMARK  4 active torsions:
REMARK  status: ('A' for Active; 'I' for Inactive)
REMARK    1  A    between atoms: C_2  and  N_12 
REMARK    2  A    between atoms: C_3  and  C_20 
REMARK    3  A    between atoms: C_11  and  N_12 
REMARK    4  A    between atoms: C_25  and  N_26 
ROOT
HETATM    1  C   UNK N   1      32.559  17.425   8.043  0.00  0.00     0.123 A 
HETATM    2  C   UNK N   1      28.188  17.860   7.169  0.00  0.00     0.108 A 
HETATM    3  C   UNK N   1      31.752  17.153   6.933  0.00  0.00     0.037 A 
HETATM    4  C   UNK N   1      30.494  17.501   7.332  0.00  0.00     0.140 A 
HETATM    5  C   UNK N   1      28.182  18.336   8.507  0.00  0.00     0.068 A 
HETATM    6  C   UNK N   1      29.401  18.371   9.220  0.00  0.00     0.122 A 
HETATM    7  N   UNK N   1      29.355  17.451   6.614  0.00  0.00    -0.326 N 
ATOM      8  HN  UNK N   1      29.371  17.105   5.654  1.00  0.00     0.169 HD
HETATM    9  N   UNK N   1      30.519  17.945   8.582  0.00  0.00    -0.250 N 
HETATM   10  N   UNK N   1      31.762  17.907   9.040  0.00  0.00    -0.303 N 
ATOM     11  HN  UNK N   1      32.067  18.189   9.972  1.00  0.00     0.186 HD
ENDROOT
BRANCH   2  12
HETATM   12  N   UNK N   1      27.030  17.808   6.352  0.00  0.00    -0.342 N 
HETATM   13  H   UNK N   1      26.405  17.075   6.554  0.00  0.00     0.167 HD
BRANCH  12  14
HETATM   14  C   UNK N   1      26.641  18.657   5.289  0.00  0.00     0.035 A 
HETATM   15  C   UNK N   1      25.289  18.683   4.939  0.00  0.00     0.053 A 
HETATM   16  C   UNK N   1      24.840  19.506   3.908  0.00  0.00     0.036 A 
HETATM   17 Cl   UNK N   1      23.141  19.518   3.486  0.00  0.00    -0.084 Cl
HETATM   18  C   UNK N   1      25.745  20.316   3.219  0.00  0.00     0.024 A 
HETATM   19  C   UNK N   1      27.102  20.298   3.564  0.00  0.00     0.004 A 
HETATM   20  C   UNK N   1      27.551  19.469   4.599  0.00  0.00     0.029 A 
ENDBRANCH  12  14
ENDBRANCH   2  12
BRANCH   3  21
HETATM   21  C   UNK N   1      32.119  16.630   5.599  0.00  0.00    -0.019 A 
HETATM   22  C   UNK N   1      32.281  15.258   5.369  0.00  0.00     0.041 A 
HETATM   23  C   UNK N   1      32.657  14.801   4.098  0.00  0.00     0.026 A 
HETATM   24  C   UNK N   1      32.862  15.709   3.054  0.00  0.00     0.029 A 
HETATM   25  C   UNK N   1      32.696  17.075   3.275  0.00  0.00     0.003 A 
HETATM   26  C   UNK N   1      32.333  17.529   4.540  0.00  0.00     0.012 A 
BRANCH  23  27
HETATM   27  N   UNK N   1      32.842  13.424   3.870  0.00  0.00    -0.399 N 
HETATM   28  H   UNK N   1      33.548  12.930   4.346  0.00  0.00     0.156 HD
HETATM   29  H   UNK N   1      32.261  12.953   3.232  0.00  0.00     0.156 HD
ENDBRANCH  23  27
ENDBRANCH   3  21
TORSDOF 4
ENDMDL
MODEL 2
REMARK VINA RESULT:      -7.3      5.582      9.459
REMARK  4 active torsions:
REMARK  status: ('A' for Active; 'I' for Inactive)
REMARK    1  A    between atoms: C_2  and  N_12 
REMARK    2  A    between atoms: C_3  and  C_20 
REMARK    3  A    between atoms: C_11  and  N_12 
REMARK    4  A    between atoms: C_25  and  N_26 
ROOT
HETATM    1  C   UNK N   1      32.531  17.374   6.066  0.00  0.00     0.123 A 
HETATM    2  C   UNK N   1      34.057  15.267   9.712  0.00  0.00     0.108 A 
HETATM    3  C   UNK N   1      31.994  17.087   7.326  0.00  0.00     0.037 A 
HETATM    4  C   UNK N   1      32.981  16.397   7.969  0.00  0.00     0.140 A 
HETATM    5  C   UNK N   1      35.198  15.104   8.883  0.00  0.00     0.068 A 
HETATM    6  C   UNK N   1      35.165  15.628   7.572  0.00  0.00     0.122 A 
HETATM    7  N   UNK N   1      32.970  15.914   9.226  0.00  0.00    -0.326 N 
ATOM      8  HN  UNK N   1      32.143  16.035   9.812  1.00  0.00     0.169 HD
HETATM    9  N   UNK N   1      34.035  16.265   7.174  0.00  0.00    -0.250 N 
HETATM   10  N   UNK N   1      33.788  16.846   6.010  0.00  0.00    -0.303 N 
ATOM     11  HN  UNK N   1      34.424  16.892   5.213  1.00  0.00     0.186 HD
ENDROOT
BRANCH   2  12
HETATM   12  N   UNK N   1      33.991  14.806  11.051  0.00  0.00    -0.342 N 
HETATM   13  H   UNK N   1      33.195  15.091  11.556  0.00  0.00     0.167 HD
BRANCH  12  14
HETATM   14  C   UNK N   1      34.902  13.994  11.769  0.00  0.00     0.035 A 
HETATM   15  C   UNK N   1      35.464  14.521  12.933  0.00  0.00     0.053 A 
HETATM   16  C   UNK N   1      36.360  13.769  13.690  0.00  0.00     0.036 A 
HETATM   17 Cl   UNK N   1      37.054  14.453  15.145  0.00  0.00    -0.084 Cl
HETATM   18  C   UNK N   1      36.698  12.475  13.287  0.00  0.00     0.024 A 
HETATM   19  C   UNK N   1      36.138  11.938  12.122  0.00  0.00     0.004 A 
HETATM   20  C   UNK N   1      35.239  12.696  11.362  0.00  0.00     0.029 A 
ENDBRANCH  12  14
ENDBRANCH   2  12
BRANCH   3  21
HETATM   21  C   UNK N   1      30.677  17.442   7.900  0.00  0.00    -0.019 A 
HETATM   22  C   UNK N   1      29.486  16.938   7.364  0.00  0.00     0.041 A 
HETATM   23  C   UNK N   1      28.255  17.318   7.915  0.00  0.00     0.026 A 
HETATM   24  C   UNK N   1      28.210  18.191   9.007  0.00  0.00     0.029 A 
HETATM   25  C   UNK N   1      29.393  18.690   9.549  0.00  0.00     0.003 A 
HETATM   26  C   UNK N   1      30.616  18.321   8.994  0.00  0.00     0.012 A 
BRANCH  23  27
HETATM   27  N   UNK N   1      27.054  16.830   7.365  0.00  0.00    -0.399 N 
HETATM   28  H   UNK N   1      27.040  16.453   6.455  0.00  0.00     0.156 HD
HETATM   29  H   UNK N   1      26.225  16.866   7.892  0.00  0.00     0.156 HD
ENDBRANCH  23  27
ENDBRANCH   3  21
TORSDOF 4
ENDMDL
MODEL 3
REMARK VINA RESULT:      -7.2     10.981     13.861
REMARK  4 active torsions:
REMARK  status: ('A' for Active; 'I' for Inactive)
REMARK    1  A    between atoms: C_2  and  N_12 
REMARK    2  A    between atoms: C_3  and  C_20 
REMARK    3  A    between atoms: C_11  and  N_12 
REMARK    4  A    between atoms: C_25  and  N_26 
ROOT
HETATM    1  C   UNK N   1      36.973  14.743  15.786  0.00  0.00     0.123 A 
HETATM    2  C   UNK N   1      34.681  12.133  12.958  0.00  0.00     0.108 A 
HETATM    3  C   UNK N   1      36.145  13.626  15.940  0.00  0.00     0.037 A 
HETATM    4  C   UNK N   1      35.747  13.317  14.671  0.00  0.00     0.140 A 
HETATM    5  C   UNK N   1      35.231  13.036  12.010  0.00  0.00     0.068 A 
HETATM    6  C   UNK N   1      36.055  14.086  12.472  0.00  0.00     0.122 A 
HETATM    7  N   UNK N   1      34.956  12.302  14.274  0.00  0.00    -0.326 N 
ATOM      8  HN  UNK N   1      34.564  11.661  14.965  1.00  0.00     0.169 HD
HETATM    9  N   UNK N   1      36.279  14.173  13.808  0.00  0.00    -0.250 N 
HETATM   10  N   UNK N   1      37.026  15.053  14.458  0.00  0.00    -0.303 N 
ATOM     11  HN  UNK N   1      37.549  15.823  14.041  1.00  0.00     0.186 HD
ENDROOT
BRANCH   2  12
HETATM   12  N   UNK N   1      33.863  11.029  12.604  0.00  0.00    -0.342 N 
HETATM   13  H   UNK N   1      32.895  11.207  12.598  0.00  0.00     0.167 HD
BRANCH  12  14
HETATM   14  C   UNK N   1      34.237   9.709  12.258  0.00  0.00     0.035 A 
HETATM   15  C   UNK N   1      35.104   9.032  13.120  0.00  0.00     0.053 A 
HETATM   16  C   UNK N   1      35.502   7.726  12.842  0.00  0.00     0.036 A 
HETATM   17 Cl   UNK N   1      36.591   6.900  13.936  0.00  0.00    -0.084 Cl
HETATM   18  C   UNK N   1      35.030   7.084  11.695  0.00  0.00     0.024 A 
HETATM   19  C   UNK N   1      34.160   7.754  10.827  0.00  0.00     0.004 A 
HETATM   20  C   UNK N   1      33.763   9.066  11.107  0.00  0.00     0.029 A 
ENDBRANCH  12  14
ENDBRANCH   2  12
BRANCH   3  21
HETATM   21  C   UNK N   1      35.766  12.886  17.164  0.00  0.00    -0.019 A 
HETATM   22  C   UNK N   1      35.313  13.551  18.310  0.00  0.00     0.041 A 
HETATM   23  C   UNK N   1      34.990  12.820  19.462  0.00  0.00     0.026 A 
HETATM   24  C   UNK N   1      35.108  11.427  19.469  0.00  0.00     0.029 A 
HETATM   25  C   UNK N   1      35.552  10.758  18.329  0.00  0.00     0.003 A 
HETATM   26  C   UNK N   1      35.883  11.486  17.189  0.00  0.00     0.012 A 
BRANCH  23  27
HETATM   27  N   UNK N   1      34.555  13.488  20.622  0.00  0.00    -0.399 N 
HETATM   28  H   UNK N   1      34.886  13.213  21.509  0.00  0.00     0.156 HD
HETATM   29  H   UNK N   1      33.918  14.234  20.547  0.00  0.00     0.156 HD
ENDBRANCH  23  27
ENDBRANCH   3  21
TORSDOF 4
ENDMDL
MODEL 4
REMARK VINA RESULT:      -7.1      3.713      8.524
REMARK  4 active torsions:
REMARK  status: ('A' for Active; 'I' for Inactive)
REMARK    1  A    between atoms: C_2  and  N_12 
REMARK    2  A    between atoms: C_3  and  C_20 
REMARK    3  A    between atoms: C_11  and  N_12 
REMARK    4  A    between atoms: C_25  and  N_26 
ROOT
HETATM    1  C   UNK N   1      23.485  20.202   2.928  0.00  0.00     0.123 A 
HETATM    2  C   UNK N   1      26.704  18.461   5.510  0.00  0.00     0.108 A 
HETATM    3  C   UNK N   1      23.526  19.183   3.886  0.00  0.00     0.037 A 
HETATM    4  C   UNK N   1      24.830  19.144   4.289  0.00  0.00     0.140 A 
HETATM    5  C   UNK N   1      27.487  19.425   4.822  0.00  0.00     0.068 A 
HETATM    6  C   UNK N   1      26.861  20.241   3.853  0.00  0.00     0.122 A 
HETATM    7  N   UNK N   1      25.385  18.346   5.221  0.00  0.00    -0.326 N 
ATOM      8  HN  UNK N   1      24.813  17.655   5.707  1.00  0.00     0.169 HD
HETATM    9  N   UNK N   1      25.535  20.058   3.633  0.00  0.00    -0.250 N 
HETATM   10  N   UNK N   1      24.744  20.713   2.797  0.00  0.00    -0.303 N 
ATOM     11  HN  UNK N   1      25.025  21.466   2.169  1.00  0.00     0.186 HD
ENDROOT
BRANCH   2  12
HETATM   12  N   UNK N   1      27.221  17.610   6.520  0.00  0.00    -0.342 N 
HETATM   13  H   UNK N   1      26.732  16.766   6.650  0.00  0.00     0.167 HD
BRANCH  12  14
HETATM   14  C   UNK N   1      28.340  17.796   7.366  0.00  0.00     0.035 A 
HETATM   15  C   UNK N   1      29.572  17.299   6.934  0.00  0.00     0.053 A 
HETATM   16  C   UNK N   1      30.714  17.459   7.716  0.00  0.00     0.036 A 
HETATM   17 Cl   UNK N   1      32.246  16.824   7.154  0.00  0.00    -0.084 Cl
HETATM   18  C   UNK N   1      30.631  18.125   8.941  0.00  0.00     0.024 A 
HETATM   19  C   UNK N   1      29.402  18.628   9.381  0.00  0.00     0.004 A 
HETATM   20  C   UNK N   1      28.255  18.464   8.595  0.00  0.00     0.029 A 
ENDBRANCH  12  14
ENDBRANCH   2  12
BRANCH   3  21
HETATM   21  C   UNK N   1      22.438  18.324   4.405  0.00  0.00    -0.019 A 
HETATM   22  C   UNK N   1      21.535  17.687   3.544  0.00  0.00     0.041 A 
HETATM   23  C   UNK N   1      20.500  16.904   4.072  0.00  0.00     0.026 A 
HETATM   24  C   UNK N   1      20.370  16.745   5.456  0.00  0.00     0.029 A 
HETATM   25  C   UNK N   1      21.270  17.371   6.317  0.00  0.00     0.003 A 
HETATM   26  C   UNK N   1      22.292  18.158   5.792  0.00  0.00     0.012 A 
BRANCH  23  27
HETATM   27  N   UNK N   1      19.577  16.280   3.211  0.00  0.00    -0.399 N 
HETATM   28  H   UNK N   1      19.891  15.737   2.452  0.00  0.00     0.156 HD
HETATM   29  H   UNK N   1      18.612  16.387   3.369  0.00  0.00     0.156 HD
ENDBRANCH  23  27
ENDBRANCH   3  21
TORSDOF 4
ENDMDL
MODEL 5
REMARK VINA RESULT:      -7.1      6.856     10.589
REMARK  4 active torsions:
REMARK  status: ('A' for Active; 'I' for Inactive)
REMARK    1  A    between atoms: C_2  and  N_12 
REMARK    2  A    between atoms: C_3  and  C_20 
REMARK    3  A    between atoms: C_11  and  N_12 
REMARK    4  A    between atoms: C_25  and  N_26 
ROOT
HETATM    1  C   UNK N   1      35.373  13.667   6.925  0.00  0.00     0.123 A 
HETATM    2  C   UNK N   1      36.706  13.709  11.201  0.00  0.00     0.108 A 
HETATM    3  C   UNK N   1      35.079  14.469   8.033  0.00  0.00     0.037 A 
HETATM    4  C   UNK N   1      35.815  13.932   9.049  0.00  0.00     0.140 A 
HETATM    5  C   UNK N   1      37.449  12.582  10.761  0.00  0.00     0.068 A 
HETATM    6  C   UNK N   1      37.328  12.172   9.415  0.00  0.00     0.122 A 
HETATM    7  N   UNK N   1      35.901  14.358  10.324  0.00  0.00    -0.326 N 
ATOM      8  HN  UNK N   1      35.360  15.168  10.629  1.00  0.00     0.169 HD
HETATM    9  N   UNK N   1      36.502  12.885   8.609  0.00  0.00    -0.250 N 
HETATM   10  N   UNK N   1      36.250  12.699   7.322  0.00  0.00    -0.303 N 
ATOM     11  HN  UNK N   1      36.642  11.965   6.733  1.00  0.00     0.186 HD
ENDROOT
BRANCH   2  12
HETATM   12  N   UNK N   1      36.772  14.224  12.521  0.00  0.00    -0.342 N 
HETATM   13  H   UNK N   1      37.262  15.072  12.618  0.00  0.00     0.167 HD
BRANCH  12  14
HETATM   14  C   UNK N   1      36.235  13.696  13.719  0.00  0.00     0.035 A 
HETATM   15  C   UNK N   1      35.255  12.706  13.612  0.00  0.00     0.053 A 
HETATM   16  C   UNK N   1      34.694  12.138  14.754  0.00  0.00     0.036 A 
HETATM   17 Cl   UNK N   1      33.466  10.901  14.592  0.00  0.00    -0.084 Cl
HETATM   18  C   UNK N   1      35.115  12.557  16.018  0.00  0.00     0.024 A 
HETATM   19  C   UNK N   1      36.097  13.547  16.135  0.00  0.00     0.004 A 
HETATM   20  C   UNK N   1      36.658  14.118  14.987  0.00  0.00     0.029 A 
ENDBRANCH  12  14
ENDBRANCH   2  12
BRANCH   3  21
HETATM   21  C   UNK N   1      34.200  15.654   8.139  0.00  0.00    -0.019 A 
HETATM   22  C   UNK N   1      32.922  15.569   8.705  0.00  0.00     0.041 A 
HETATM   23  C   UNK N   1      32.105  16.707   8.764  0.00  0.00     0.026 A 
HETATM   24  C   UNK N   1      32.565  17.931   8.269  0.00  0.00     0.029 A 
HETATM   25  C   UNK N   1      33.838  18.024   7.711  0.00  0.00     0.003 A 
HETATM   26  C   UNK N   1      34.645  16.891   7.643  0.00  0.00     0.012 A 
BRANCH  23  27
HETATM   27  N   UNK N   1      30.811  16.619   9.311  0.00  0.00    -0.399 N 
HETATM   28  H   UNK N   1      30.414  15.741   9.515  0.00  0.00     0.156 HD
HETATM   29  H   UNK N   1      30.301  17.441   9.493  0.00  0.00     0.156 HD
ENDBRANCH  23  27
ENDBRANCH   3  21
TORSDOF 4
ENDMDL
MODEL 6
REMARK VINA RESULT:      -7.1      4.601      8.020
REMARK  4 active torsions:
REMARK  status: ('A' for Active; 'I' for Inactive)
REMARK    1  A    between atoms: C_2  and  N_12 
REMARK    2  A    between atoms: C_3  and  C_20 
REMARK    3  A    between atoms: C_11  and  N_12 
REMARK    4  A    between atoms: C_25  and  N_26 
ROOT
HETATM    1  C   UNK N   1      23.706  20.786   2.779  0.00  0.00     0.123 A 
HETATM    2  C   UNK N   1      22.095  17.158   4.854  0.00  0.00     0.108 A 
HETATM    3  C   UNK N   1      24.246  19.842   3.659  0.00  0.00     0.037 A 
HETATM    4  C   UNK N   1      23.210  18.996   3.932  0.00  0.00     0.140 A 
HETATM    5  C   UNK N   1      20.912  17.552   4.173  0.00  0.00     0.068 A 
HETATM    6  C   UNK N   1      20.949  18.708   3.364  0.00  0.00     0.122 A 
HETATM    7  N   UNK N   1      23.221  17.899   4.713  0.00  0.00    -0.326 N 
ATOM      8  HN  UNK N   1      24.076  17.627   5.200  1.00  0.00     0.169 HD
HETATM    9  N   UNK N   1      22.122  19.385   3.279  0.00  0.00    -0.250 N 
HETATM   10  N   UNK N   1      22.393  20.472   2.573  0.00  0.00    -0.303 N 
ATOM     11  HN  UNK N   1      21.738  20.983   1.981  1.00  0.00     0.186 HD
ENDROOT
BRANCH   2  12
HETATM   12  N   UNK N   1      22.179  16.001   5.670  0.00  0.00    -0.342 N 
HETATM   13  H   UNK N   1      22.812  15.313   5.360  0.00  0.00     0.167 HD
BRANCH  12  14
HETATM   14  C   UNK N   1      21.488  15.691   6.865  0.00  0.00     0.035 A 
HETATM   15  C   UNK N   1      20.711  16.697   7.446  0.00  0.00     0.053 A 
HETATM   16  C   UNK N   1      19.998  16.453   8.617  0.00  0.00     0.036 A 
HETATM   17 Cl   UNK N   1      19.034  17.731   9.327  0.00  0.00    -0.084 Cl
HETATM   18  C   UNK N   1      20.054  15.193   9.217  0.00  0.00     0.024 A 
HETATM   19  C   UNK N   1      20.828  14.179   8.642  0.00  0.00     0.004 A 
HETATM   20  C   UNK N   1      21.546  14.427   7.466  0.00  0.00     0.029 A 
ENDBRANCH  12  14
ENDBRANCH   2  12
BRANCH   3  21
HETATM   21  C   UNK N   1      25.621  19.720   4.193  0.00  0.00    -0.019 A 
HETATM   22  C   UNK N   1      26.519  18.770   3.692  0.00  0.00     0.041 A 
HETATM   23  C   UNK N   1      27.804  18.664   4.241  0.00  0.00     0.026 A 
HETATM   24  C   UNK N   1      28.198  19.511   5.282  0.00  0.00     0.029 A 
HETATM   25  C   UNK N   1      27.312  20.463   5.780  0.00  0.00     0.003 A 
HETATM   26  C   UNK N   1      26.031  20.561   5.241  0.00  0.00     0.012 A 
BRANCH  23  27
HETATM   27  N   UNK N   1      28.701  17.694   3.754  0.00  0.00    -0.399 N 
HETATM   28  H   UNK N   1      29.638  17.683   4.060  0.00  0.00     0.156 HD
HETATM   29  H   UNK N   1      28.390  17.023   3.106  0.00  0.00     0.156 HD
ENDBRANCH  23  27
ENDBRANCH   3  21
TORSDOF 4
ENDMDL
MODEL 7
REMARK VINA RESULT:      -7.1      3.142      5.395
REMARK  4 active torsions:
REMARK  status: ('A' for Active; 'I' for Inactive)
REMARK    1  A    between atoms: C_2  and  N_12 
REMARK    2  A    between atoms: C_3  and  C_20 
REMARK    3  A    between atoms: C_11  and  N_12 
REMARK    4  A    between atoms: C_25  and  N_26 
ROOT
HETATM    1  C   UNK N   1      29.373  18.306   9.294  0.00  0.00     0.123 A 
HETATM    2  C   UNK N   1      29.309  17.648   4.864  0.00  0.00     0.108 A 
HETATM    3  C   UNK N   1      30.261  17.732   8.378  0.00  0.00     0.037 A 
HETATM    4  C   UNK N   1      29.625  17.834   7.174  0.00  0.00     0.140 A 
HETATM    5  C   UNK N   1      28.037  18.264   5.002  0.00  0.00     0.068 A 
HETATM    6  C   UNK N   1      27.609  18.654   6.291  0.00  0.00     0.122 A 
HETATM    7  N   UNK N   1      30.074  17.448   5.965  0.00  0.00    -0.326 N 
ATOM      8  HN  UNK N   1      30.989  17.004   5.878  1.00  0.00     0.169 HD
HETATM    9  N   UNK N   1      28.444  18.417   7.333  0.00  0.00    -0.250 N 
HETATM   10  N   UNK N   1      28.263  18.712   8.612  0.00  0.00    -0.303 N 
ATOM     11  HN  UNK N   1      27.441  19.162   9.015  1.00  0.00     0.186 HD
ENDROOT
BRANCH   2  12
HETATM   12  N   UNK N   1      29.851  17.243   3.618  0.00  0.00    -0.342 N 
HETATM   13  H   UNK N   1      29.365  17.563   2.823  0.00  0.00     0.167 HD
BRANCH  12  14
HETATM   14  C   UNK N   1      30.989  16.445   3.349  0.00  0.00     0.035 A 
HETATM   15  C   UNK N   1      30.806  15.063   3.252  0.00  0.00     0.053 A 
HETATM   16  C   UNK N   1      31.884  14.224   2.980  0.00  0.00     0.036 A 
HETATM   17 Cl   UNK N   1      31.630  12.495   2.867  0.00  0.00    -0.084 Cl
HETATM   18  C   UNK N   1      33.159  14.765   2.797  0.00  0.00     0.024 A 
HETATM   19  C   UNK N   1      33.351  16.148   2.891  0.00  0.00     0.004 A 
HETATM   20  C   UNK N   1      32.267  16.989   3.166  0.00  0.00     0.029 A 
ENDBRANCH  12  14
ENDBRANCH   2  12
BRANCH   3  21
HETATM   21  C   UNK N   1      31.605  17.151   8.595  0.00  0.00    -0.019 A 
HETATM   22  C   UNK N   1      31.772  15.809   8.958  0.00  0.00     0.041 A 
HETATM   23  C   UNK N   1      33.059  15.301   9.184  0.00  0.00     0.026 A 
HETATM   24  C   UNK N   1      34.179  16.125   9.037  0.00  0.00     0.029 A 
HETATM   25  C   UNK N   1      34.019  17.460   8.669  0.00  0.00     0.003 A 
HETATM   26  C   UNK N   1      32.740  17.968   8.455  0.00  0.00     0.012 A 
BRANCH  23  27
HETATM   27  N   UNK N   1      33.229  13.958   9.570  0.00  0.00    -0.399 N 
HETATM   28  H   UNK N   1      33.774  13.346   9.024  0.00  0.00     0.156 HD
HETATM   29  H   UNK N   1      32.800  13.628  10.393  0.00  0.00     0.156 HD
ENDBRANCH  23  27
ENDBRANCH   3  21
TORSDOF 4
ENDMDL
MODEL 8
REMARK VINA RESULT:      -7.0      2.087      4.057
REMARK  4 active torsions:
REMARK  status: ('A' for Active; 'I' for Inactive)
REMARK    1  A    between atoms: C_2  and  N_12 
REMARK    2  A    between atoms: C_3  and  C_20 
REMARK    3  A    between atoms: C_11  and  N_12 
REMARK    4  A    between atoms: C_25  and  N_26 
ROOT
HETATM    1  C   UNK N   1      33.705  15.515   4.355  0.00  0.00     0.123 A 
HETATM    2  C   UNK N   1      29.475  16.894   4.870  0.00  0.00     0.108 A 
HETATM    3  C   UNK N   1      32.983  16.082   5.411  0.00  0.00     0.037 A 
HETATM    4  C   UNK N   1      31.732  16.282   4.902  0.00  0.00     0.140 A 
HETATM    5  C   UNK N   1      29.395  16.476   3.516  0.00  0.00     0.068 A 
HETATM    6  C   UNK N   1      30.552  15.954   2.897  0.00  0.00     0.122 A 
HETATM    7  N   UNK N   1      30.653  16.785   5.531  0.00  0.00    -0.326 N 
ATOM      8  HN  UNK N   1      30.723  17.085   6.504  1.00  0.00     0.169 HD
HETATM    9  N   UNK N   1      31.686  15.879   3.639  0.00  0.00    -0.250 N 
HETATM   10  N   UNK N   1      32.872  15.411   3.279  0.00  0.00    -0.303 N 
ATOM     11  HN  UNK N   1      33.118  15.038   2.361  1.00  0.00     0.186 HD
ENDROOT
BRANCH   2  12
HETATM   12  N   UNK N   1      28.370  17.407   5.598  0.00  0.00    -0.342 N 
HETATM   13  H   UNK N   1      27.960  16.781   6.237  0.00  0.00     0.167 HD
BRANCH  12  14
HETATM   14  C   UNK N   1      27.772  18.688   5.539  0.00  0.00     0.035 A 
HETATM   15  C   UNK N   1      27.165  19.068   4.339  0.00  0.00     0.053 A 
HETATM   16  C   UNK N   1      26.550  20.312   4.220  0.00  0.00     0.036 A 
HETATM   17 Cl   UNK N   1      25.799  20.765   2.704  0.00  0.00    -0.084 Cl
HETATM   18  C   UNK N   1      26.534  21.188   5.307  0.00  0.00     0.024 A 
HETATM   19  C   UNK N   1      27.138  20.816   6.513  0.00  0.00     0.004 A 
HETATM   20  C   UNK N   1      27.758  19.566   6.631  0.00  0.00     0.029 A 
ENDBRANCH  12  14
ENDBRANCH   2  12
BRANCH   3  21
HETATM   21  C   UNK N   1      33.411  16.395   6.792  0.00  0.00    -0.019 A 
HETATM   22  C   UNK N   1      33.109  15.545   7.863  0.00  0.00     0.041 A 
HETATM   23  C   UNK N   1      33.506  15.888   9.163  0.00  0.00     0.026 A 
HETATM   24  C   UNK N   1      34.212  17.073   9.395  0.00  0.00     0.029 A 
HETATM   25  C   UNK N   1      34.521  17.920   8.332  0.00  0.00     0.003 A 
HETATM   26  C   UNK N   1      34.118  17.583   7.043  0.00  0.00     0.012 A 
BRANCH  23  27
HETATM   27  N   UNK N   1      33.184  15.046  10.244  0.00  0.00    -0.399 N 
HETATM   28  H   UNK N   1      33.851  14.416  10.602  0.00  0.00     0.156 HD
HETATM   29  H   UNK N   1      32.287  15.088  10.646  0.00  0.00     0.156 HD
ENDBRANCH  23  27
ENDBRANCH   3  21
TORSDOF 4
ENDMDL
MODEL 9
REMARK VINA RESULT:      -6.9      8.509     10.398
REMARK  4 active torsions:
REMARK  status: ('A' for Active; 'I' for Inactive)
REMARK    1  A    between atoms: C_2  and  N_12 
REMARK    2  A    between atoms: C_3  and  C_20 
REMARK    3  A    between atoms: C_11  and  N_12 
REMARK    4  A    between atoms: C_25  and  N_26 
ROOT
HETATM    1  C   UNK N   1      20.022  17.132   0.436  0.00  0.00     0.123 A 
HETATM    2  C   UNK N   1      21.641  17.306   4.609  0.00  0.00     0.108 A 
HETATM    3  C   UNK N   1      20.620  16.201   1.293  0.00  0.00     0.037 A 
HETATM    4  C   UNK N   1      20.898  16.909   2.427  0.00  0.00     0.140 A 
HETATM    5  C   UNK N   1      21.241  18.663   4.483  0.00  0.00     0.068 A 
HETATM    6  C   UNK N   1      20.658  19.088   3.269  0.00  0.00     0.122 A 
HETATM    7  N   UNK N   1      21.457  16.460   3.567  0.00  0.00    -0.326 N 
ATOM      8  HN  UNK N   1      21.743  15.483   3.645  1.00  0.00     0.169 HD
HETATM    9  N   UNK N   1      20.510  18.169   2.282  0.00  0.00    -0.250 N 
HETATM   10  N   UNK N   1      19.977  18.334   1.081  0.00  0.00    -0.303 N 
ATOM     11  HN  UNK N   1      19.599  19.204   0.705  1.00  0.00     0.186 HD
ENDROOT
BRANCH   2  12
HETATM   12  N   UNK N   1      22.211  16.765   5.790  0.00  0.00    -0.342 N 
HETATM   13  H   UNK N   1      23.193  16.809   5.843  0.00  0.00     0.167 HD
BRANCH  12  14
HETATM   14  C   UNK N   1      21.572  16.170   6.904  0.00  0.00     0.035 A 
HETATM   15  C   UNK N   1      20.481  16.840   7.462  0.00  0.00     0.053 A 
HETATM   16  C   UNK N   1      19.803  16.302   8.554  0.00  0.00     0.036 A 
HETATM   17 Cl   UNK N   1      18.440  17.163   9.237  0.00  0.00    -0.084 Cl
HETATM   18  C   UNK N   1      20.212  15.081   9.096  0.00  0.00     0.024 A 
HETATM   19  C   UNK N   1      21.304  14.403   8.543  0.00  0.00     0.004 A 
HETATM   20  C   UNK N   1      21.985  14.945   7.446  0.00  0.00     0.029 A 
ENDBRANCH  12  14
ENDBRANCH   2  12
BRANCH   3  21
HETATM   21  C   UNK N   1      20.895  14.762   1.087  0.00  0.00    -0.019 A 
HETATM   22  C   UNK N   1      22.194  14.290   0.862  0.00  0.00     0.041 A 
HETATM   23  C   UNK N   1      22.414  12.923   0.642  0.00  0.00     0.026 A 
HETATM   24  C   UNK N   1      21.342  12.025   0.657  0.00  0.00     0.029 A 
HETATM   25  C   UNK N   1      20.048  12.488   0.887  0.00  0.00     0.003 A 
HETATM   26  C   UNK N   1      19.829  13.848   1.095  0.00  0.00     0.012 A 
BRANCH  23  27
HETATM   27  N   UNK N   1      23.716  12.449   0.394  0.00  0.00    -0.399 N 
HETATM   28  H   UNK N   1      24.196  12.714  -0.425  0.00  0.00     0.156 HD
HETATM   29  H   UNK N   1      24.150  11.850   1.043  0.00  0.00     0.156 HD
ENDBRANCH  23  27
ENDBRANCH   3  21
TORSDOF 4
ENDMDL
