REMARK  4 active torsions:
REMARK  status: ('A' for Active; 'I' for Inactive)
REMARK    1  A    between atoms: C_2  and  N_12 
REMARK    2  A    between atoms: C_3  and  C_20 
REMARK    3  A    between atoms: C_11  and  N_12 
REMARK    4  A    between atoms: C_25  and  N_26 
ROOT
HETATM    1  C   UNK N   1      -3.110  -1.498  -0.079  0.00  0.00     0.123 A 
HETATM    2  C   UNK N   1       1.334  -0.940  -0.024  0.00  0.00     0.108 A 
HETATM    3  C   UNK N   1      -2.265  -0.384  -0.027  0.00  0.00     0.037 A 
HETATM    4  C   UNK N   1      -1.005  -0.910  -0.022  0.00  0.00     0.140 A 
HETATM    5  C   UNK N   1       1.302  -2.359  -0.062  0.00  0.00     0.068 A 
HETATM    6  C   UNK N   1       0.048  -3.009  -0.081  0.00  0.00     0.122 A 
HETATM    7  N   UNK N   1       0.168  -0.249  -0.004  0.00  0.00    -0.326 N 
ATOM      8  HN  UNK N   1       0.179   0.771   0.026  1.00  0.00     0.169 HD
HETATM    9  N   UNK N   1      -1.066  -2.235  -0.063  0.00  0.00    -0.250 N 
HETATM   10  N   UNK N   1      -2.333  -2.620  -0.095  0.00  0.00    -0.303 N 
ATOM     11  HN  UNK N   1      -2.668  -3.583  -0.127  1.00  0.00     0.186 HD
ENDROOT
BRANCH   2  12
HETATM   12  N   UNK N   1       2.534  -0.184  -0.030  0.00  0.00    -0.342 N 
HETATM   13  H   UNK N   1       2.416   0.793  -0.048  0.00  0.00     0.167 HD
BRANCH  12  14
HETATM   14  C   UNK N   1       3.877  -0.630  -0.013  0.00  0.00     0.035 A 
HETATM   15  C   UNK N   1       4.884   0.336  -0.078  0.00  0.00     0.053 A 
HETATM   16  C   UNK N   1       6.226  -0.037  -0.055  0.00  0.00     0.036 A 
HETATM   17 Cl   UNK N   1       7.469   1.193  -0.141  0.00  0.00    -0.084 Cl
HETATM   18  C   UNK N   1       6.572  -1.387   0.038  0.00  0.00     0.024 A 
HETATM   19  C   UNK N   1       5.570  -2.362   0.105  0.00  0.00     0.004 A 
HETATM   20  C   UNK N   1       4.222  -1.985   0.080  0.00  0.00     0.029 A 
ENDBRANCH  12  14
ENDBRANCH   2  12
BRANCH   3  21
HETATM   21  C   UNK N   1      -2.596   1.058  -0.004  0.00  0.00    -0.019 A 
HETATM   22  C   UNK N   1      -3.913   1.509  -0.154  0.00  0.00     0.041 A 
HETATM   23  C   UNK N   1      -4.186   2.884  -0.156  0.00  0.00     0.026 A 
HETATM   24  C   UNK N   1      -3.149   3.809   0.002  0.00  0.00     0.029 A 
HETATM   25  C   UNK N   1      -1.837   3.366   0.159  0.00  0.00     0.003 A 
HETATM   26  C   UNK N   1      -1.565   2.000   0.150  0.00  0.00     0.012 A 
BRANCH  23  27
HETATM   27  N   UNK N   1      -5.506   3.341  -0.329  0.00  0.00    -0.399 N 
HETATM   28  H   UNK N   1      -5.690   4.301  -0.451  0.00  0.00     0.156 HD
HETATM   29  H   UNK N   1      -6.250   2.697  -0.329  0.00  0.00     0.156 HD
ENDBRANCH  23  27
ENDBRANCH   3  21
TORSDOF 4
