MODEL 1
REMARK VINA RESULT:      -9.1      0.000      0.000
REMARK  1 active torsions:
REMARK  status: ('A' for Active; 'I' for Inactive)
REMARK    1  A    between atoms: C_22  and  C_23 
REMARK       I    between atoms: C_23  and  N_25 
ROOT
HETATM    1  O   UNK N   1      23.226  14.034   3.682  0.00  0.00    -0.264 OA
HETATM    2  C   UNK N   1      24.285  14.515   3.310  0.00  0.00     0.267 C 
HETATM    3  C   UNK N   1      24.943  13.984   2.043  0.00  0.00     0.041 C 
HETATM    4  C   UNK N   1      24.036  14.228   0.849  0.00  0.00     0.025 C 
HETATM    5  C   UNK N   1      25.191  12.493   2.169  0.00  0.00     0.025 C 
HETATM    6  C   UNK N   1      26.287  14.651   1.787  0.00  0.00     0.022 C 
HETATM    7  C   UNK N   1      26.193  16.123   2.119  0.00  0.00     0.041 C 
HETATM    8  C   UNK N   1      25.949  16.276   3.633  0.00  0.00     0.078 C 
HETATM    9  O   UNK N   1      24.851  15.522   4.043  0.00  0.00    -0.309 OA
HETATM   10  C   UNK N   1      27.182  15.948   4.504  0.00  0.00    -0.008 C 
HETATM   11  C   UNK N   1      27.356  14.451   4.754  0.00  0.00     0.019 C 
HETATM   12  C   UNK N   1      26.911  16.734   5.804  0.00  0.00     0.001 C 
HETATM   13  C   UNK N   1      26.454  18.079   5.235  0.00  0.00     0.009 C 
HETATM   14  C   UNK N   1      25.684  17.751   3.947  0.00  0.00     0.040 C 
HETATM   15  C   UNK N   1      28.146  16.800   6.779  0.00  0.00    -0.001 C 
HETATM   16  C   UNK N   1      29.480  16.467   6.060  0.00  0.00     0.023 C 
HETATM   17  C   UNK N   1      29.515  17.103   4.683  0.00  0.00     0.010 C 
HETATM   18  C   UNK N   1      28.448  16.497   3.781  0.00  0.00     0.013 C 
HETATM   19  C   UNK N   1      30.725  16.870   6.791  0.00  0.00    -0.047 A 
HETATM   20  C   UNK N   1      31.956  16.453   6.271  0.00  0.00     0.009 A 
HETATM   21  C   UNK N   1      33.147  16.827   6.880  0.00  0.00     0.017 A 
HETATM   22  C   UNK N   1      33.131  17.633   8.021  0.00  0.00     0.032 A 
HETATM   23  C   UNK N   1      31.899  18.052   8.556  0.00  0.00     0.024 A 
HETATM   24  C   UNK N   1      30.691  17.674   7.947  0.00  0.00    -0.051 A 
HETATM   25  C   UNK N   1      29.390  18.164   8.525  0.00  0.00     0.039 C 
HETATM   26  C   UNK N   1      28.232  18.141   7.519  0.00  0.00     0.010 C 
ENDROOT
BRANCH  22  27
HETATM   27  C   UNK N   1      34.413  18.048   8.628  0.00  0.00     0.249 C 
HETATM   28  O   UNK N   1      34.969  19.067   8.252  0.00  0.00    -0.268 OA
HETATM   29  N   UNK N   1      34.970  17.314   9.613  0.00  0.00    -0.366 N 
HETATM   30  H   UNK N   1      34.493  16.536   9.980  0.00  0.00     0.159 HD
HETATM   31  H   UNK N   1      35.857  17.558   9.966  0.00  0.00     0.159 HD
ENDBRANCH  22  27
TORSDOF 1
ENDMDL
MODEL 2
REMARK VINA RESULT:      -8.8      1.691      3.099
REMARK  1 active torsions:
REMARK  status: ('A' for Active; 'I' for Inactive)
REMARK    1  A    between atoms: C_22  and  C_23 
REMARK       I    between atoms: C_23  and  N_25 
ROOT
HETATM    1  O   UNK N   1      24.809  15.037   0.802  0.00  0.00    -0.264 OA
HETATM    2  C   UNK N   1      25.347  14.645   1.826  0.00  0.00     0.267 C 
HETATM    3  C   UNK N   1      24.486  14.163   2.986  0.00  0.00     0.041 C 
HETATM    4  C   UNK N   1      23.674  12.952   2.558  0.00  0.00     0.025 C 
HETATM    5  C   UNK N   1      23.533  15.260   3.419  0.00  0.00     0.025 C 
HETATM    6  C   UNK N   1      25.331  13.788   4.195  0.00  0.00     0.022 C 
HETATM    7  C   UNK N   1      26.581  13.072   3.736  0.00  0.00     0.041 C 
HETATM    8  C   UNK N   1      27.449  14.056   2.926  0.00  0.00     0.078 C 
HETATM    9  O   UNK N   1      26.714  14.645   1.900  0.00  0.00    -0.309 OA
HETATM   10  C   UNK N   1      28.137  15.139   3.787  0.00  0.00    -0.008 C 
HETATM   11  C   UNK N   1      27.221  16.319   4.107  0.00  0.00     0.019 C 
HETATM   12  C   UNK N   1      29.349  15.551   2.923  0.00  0.00     0.001 C 
HETATM   13  C   UNK N   1      29.870  14.180   2.489  0.00  0.00     0.009 C 
HETATM   14  C   UNK N   1      28.628  13.293   2.318  0.00  0.00     0.040 C 
HETATM   15  C   UNK N   1      30.390  16.460   3.680  0.00  0.00    -0.001 C 
HETATM   16  C   UNK N   1      30.227  16.381   5.221  0.00  0.00     0.023 C 
HETATM   17  C   UNK N   1      29.949  14.955   5.654  0.00  0.00     0.010 C 
HETATM   18  C   UNK N   1      28.606  14.479   5.117  0.00  0.00     0.013 C 
HETATM   19  C   UNK N   1      31.389  16.893   6.018  0.00  0.00    -0.047 A 
HETATM   20  C   UNK N   1      31.237  16.998   7.406  0.00  0.00     0.009 A 
HETATM   21  C   UNK N   1      32.289  17.428   8.204  0.00  0.00     0.017 A 
HETATM   22  C   UNK N   1      33.519  17.756   7.631  0.00  0.00     0.032 A 
HETATM   23  C   UNK N   1      33.681  17.660   6.237  0.00  0.00     0.024 A 
HETATM   24  C   UNK N   1      32.620  17.230   5.423  0.00  0.00    -0.051 A 
HETATM   25  C   UNK N   1      32.833  17.108   3.938  0.00  0.00     0.039 C 
HETATM   26  C   UNK N   1      31.835  16.163   3.256  0.00  0.00     0.010 C 
ENDROOT
BRANCH  22  27
HETATM   27  C   UNK N   1      34.634  18.174   8.506  0.00  0.00     0.249 C 
HETATM   28  O   UNK N   1      35.292  19.165   8.231  0.00  0.00    -0.268 OA
HETATM   29  N   UNK N   1      34.924  17.476   9.623  0.00  0.00    -0.366 N 
HETATM   30  H   UNK N   1      34.352  16.724   9.898  0.00  0.00     0.159 HD
HETATM   31  H   UNK N   1      35.710  17.719  10.165  0.00  0.00     0.159 HD
ENDBRANCH  22  27
TORSDOF 1
ENDMDL
MODEL 3
REMARK VINA RESULT:      -8.7      4.119      8.282
REMARK  1 active torsions:
REMARK  status: ('A' for Active; 'I' for Inactive)
REMARK    1  A    between atoms: C_22  and  C_23 
REMARK       I    between atoms: C_23  and  N_25 
ROOT
HETATM    1  O   UNK N   1      32.189  15.356   8.386  0.00  0.00    -0.264 OA
HETATM    2  C   UNK N   1      31.842  15.810   7.307  0.00  0.00     0.267 C 
HETATM    3  C   UNK N   1      32.782  16.736   6.547  0.00  0.00     0.041 C 
HETATM    4  C   UNK N   1      34.061  15.996   6.194  0.00  0.00     0.025 C 
HETATM    5  C   UNK N   1      33.135  17.938   7.402  0.00  0.00     0.025 C 
HETATM    6  C   UNK N   1      32.144  17.257   5.267  0.00  0.00     0.022 C 
HETATM    7  C   UNK N   1      31.358  16.147   4.606  0.00  0.00     0.041 C 
HETATM    8  C   UNK N   1      30.177  15.763   5.518  0.00  0.00     0.078 C 
HETATM    9  O   UNK N   1      30.614  15.468   6.808  0.00  0.00    -0.309 OA
HETATM   10  C   UNK N   1      29.048  16.817   5.560  0.00  0.00    -0.008 C 
HETATM   11  C   UNK N   1      29.335  17.962   6.530  0.00  0.00     0.019 C 
HETATM   12  C   UNK N   1      27.813  15.989   5.975  0.00  0.00     0.001 C 
HETATM   13  C   UNK N   1      27.969  14.768   5.066  0.00  0.00     0.009 C 
HETATM   14  C   UNK N   1      29.480  14.530   4.936  0.00  0.00     0.040 C 
HETATM   15  C   UNK N   1      26.449  16.765   5.834  0.00  0.00    -0.001 C 
HETATM   16  C   UNK N   1      26.571  18.002   4.906  0.00  0.00     0.023 C 
HETATM   17  C   UNK N   1      27.434  17.680   3.701  0.00  0.00     0.010 C 
HETATM   18  C   UNK N   1      28.868  17.395   4.125  0.00  0.00     0.013 C 
HETATM   19  C   UNK N   1      25.273  18.568   4.412  0.00  0.00    -0.047 A 
HETATM   20  C   UNK N   1      25.310  19.776   3.706  0.00  0.00     0.009 A 
HETATM   21  C   UNK N   1      24.146  20.331   3.189  0.00  0.00     0.017 A 
HETATM   22  C   UNK N   1      22.921  19.684   3.361  0.00  0.00     0.032 A 
HETATM   23  C   UNK N   1      22.872  18.473   4.075  0.00  0.00     0.024 A 
HETATM   24  C   UNK N   1      24.043  17.908   4.605  0.00  0.00    -0.051 A 
HETATM   25  C   UNK N   1      23.963  16.595   5.337  0.00  0.00     0.039 C 
HETATM   26  C   UNK N   1      25.302  15.848   5.392  0.00  0.00     0.010 C 
ENDROOT
BRANCH  22  27
HETATM   27  C   UNK N   1      21.703  20.276   2.769  0.00  0.00     0.249 C 
HETATM   28  O   UNK N   1      21.771  20.900   1.722  0.00  0.00    -0.268 OA
HETATM   29  N   UNK N   1      20.506  20.119   3.370  0.00  0.00    -0.366 N 
HETATM   30  H   UNK N   1      20.425  19.552   4.171  0.00  0.00     0.159 HD
HETATM   31  H   UNK N   1      19.711  20.573   3.009  0.00  0.00     0.159 HD
ENDBRANCH  22  27
TORSDOF 1
ENDMDL
MODEL 4
REMARK VINA RESULT:      -8.4      4.407      9.079
REMARK  1 active torsions:
REMARK  status: ('A' for Active; 'I' for Inactive)
REMARK    1  A    between atoms: C_22  and  C_23 
REMARK       I    between atoms: C_23  and  N_25 
ROOT
HETATM    1  O   UNK N   1      35.651  11.641   9.677  0.00  0.00    -0.264 OA
HETATM    2  C   UNK N   1      35.431  12.839   9.763  0.00  0.00     0.267 C 
HETATM    3  C   UNK N   1      35.712  13.559  11.076  0.00  0.00     0.041 C 
HETATM    4  C   UNK N   1      37.193  13.473  11.405  0.00  0.00     0.025 C 
HETATM    5  C   UNK N   1      34.926  12.916  12.202  0.00  0.00     0.025 C 
HETATM    6  C   UNK N   1      35.304  15.023  11.012  0.00  0.00     0.022 C 
HETATM    7  C   UNK N   1      35.670  15.592   9.659  0.00  0.00     0.041 C 
HETATM    8  C   UNK N   1      34.823  14.890   8.580  0.00  0.00     0.078 C 
HETATM    9  O   UNK N   1      34.940  13.504   8.673  0.00  0.00    -0.309 OA
HETATM   10  C   UNK N   1      33.335  15.306   8.582  0.00  0.00    -0.008 C 
HETATM   11  C   UNK N   1      32.506  14.555   9.622  0.00  0.00     0.019 C 
HETATM   12  C   UNK N   1      32.886  14.999   7.137  0.00  0.00     0.001 C 
HETATM   13  C   UNK N   1      34.056  15.582   6.344  0.00  0.00     0.009 C 
HETATM   14  C   UNK N   1      35.308  15.338   7.199  0.00  0.00     0.040 C 
HETATM   15  C   UNK N   1      31.468  15.581   6.774  0.00  0.00    -0.001 C 
HETATM   16  C   UNK N   1      31.023  16.698   7.754  0.00  0.00     0.023 C 
HETATM   17  C   UNK N   1      32.192  17.601   8.098  0.00  0.00     0.010 C 
HETATM   18  C   UNK N   1      33.257  16.834   8.871  0.00  0.00     0.013 C 
HETATM   19  C   UNK N   1      29.892  17.560   7.279  0.00  0.00    -0.047 A 
HETATM   20  C   UNK N   1      29.341  18.476   8.183  0.00  0.00     0.009 A 
HETATM   21  C   UNK N   1      28.318  19.330   7.791  0.00  0.00     0.017 A 
HETATM   22  C   UNK N   1      27.828  19.290   6.484  0.00  0.00     0.032 A 
HETATM   23  C   UNK N   1      28.371  18.368   5.570  0.00  0.00     0.024 A 
HETATM   24  C   UNK N   1      29.402  17.499   5.959  0.00  0.00    -0.051 A 
HETATM   25  C   UNK N   1      29.983  16.545   4.951  0.00  0.00     0.039 C 
HETATM   26  C   UNK N   1      31.391  16.056   5.317  0.00  0.00     0.010 C 
ENDROOT
BRANCH  22  27
HETATM   27  C   UNK N   1      26.766  20.235   6.082  0.00  0.00     0.249 C 
HETATM   28  O   UNK N   1      26.977  21.438   6.094  0.00  0.00    -0.268 OA
HETATM   29  N   UNK N   1      25.561  19.778   5.685  0.00  0.00    -0.366 N 
HETATM   30  H   UNK N   1      25.404  18.810   5.595  0.00  0.00     0.159 HD
HETATM   31  H   UNK N   1      24.836  20.413   5.484  0.00  0.00     0.159 HD
ENDBRANCH  22  27
TORSDOF 1
ENDMDL
MODEL 5
REMARK VINA RESULT:      -8.3     10.261     13.597
REMARK  1 active torsions:
REMARK  status: ('A' for Active; 'I' for Inactive)
REMARK    1  A    between atoms: C_22  and  C_23 
REMARK       I    between atoms: C_23  and  N_25 
ROOT
HETATM    1  O   UNK N   1      33.597  12.767   9.439  0.00  0.00    -0.264 OA
HETATM    2  C   UNK N   1      34.454  12.194  10.093  0.00  0.00     0.267 C 
HETATM    3  C   UNK N   1      35.042  10.888   9.576  0.00  0.00     0.041 C 
HETATM    4  C   UNK N   1      35.749  11.129   8.253  0.00  0.00     0.025 C 
HETATM    5  C   UNK N   1      33.940   9.868   9.362  0.00  0.00     0.025 C 
HETATM    6  C   UNK N   1      36.034  10.289  10.563  0.00  0.00     0.022 C 
HETATM    7  C   UNK N   1      36.870  11.392  11.172  0.00  0.00     0.041 C 
HETATM    8  C   UNK N   1      35.955  12.299  12.020  0.00  0.00     0.078 C 
HETATM    9  O   UNK N   1      34.865  12.747  11.276  0.00  0.00    -0.309 OA
HETATM   10  C   UNK N   1      35.477  11.650  13.339  0.00  0.00    -0.008 C 
HETATM   11  C   UNK N   1      34.274  10.729  13.150  0.00  0.00     0.019 C 
HETATM   12  C   UNK N   1      35.153  12.869  14.228  0.00  0.00     0.001 C 
HETATM   13  C   UNK N   1      36.377  13.749  13.966  0.00  0.00     0.009 C 
HETATM   14  C   UNK N   1      36.761  13.509  12.498  0.00  0.00     0.040 C 
HETATM   15  C   UNK N   1      34.895  12.505  15.739  0.00  0.00    -0.001 C 
HETATM   16  C   UNK N   1      35.452  11.104  16.108  0.00  0.00     0.023 C 
HETATM   17  C   UNK N   1      36.800  10.877  15.450  0.00  0.00     0.010 C 
HETATM   18  C   UNK N   1      36.660  10.831  13.935  0.00  0.00     0.013 C 
HETATM   19  C   UNK N   1      35.597  10.835  17.576  0.00  0.00    -0.047 A 
HETATM   20  C   UNK N   1      35.940   9.537  17.974  0.00  0.00     0.009 A 
HETATM   21  C   UNK N   1      36.128   9.233  19.316  0.00  0.00     0.017 A 
HETATM   22  C   UNK N   1      35.985  10.225  20.289  0.00  0.00     0.032 A 
HETATM   23  C   UNK N   1      35.635  11.531  19.900  0.00  0.00     0.024 A 
HETATM   24  C   UNK N   1      35.438  11.844  18.545  0.00  0.00    -0.051 A 
HETATM   25  C   UNK N   1      35.095  13.257  18.157  0.00  0.00     0.039 C 
HETATM   26  C   UNK N   1      35.423  13.583  16.694  0.00  0.00     0.010 C 
ENDROOT
BRANCH  22  27
HETATM   27  C   UNK N   1      36.227   9.885  21.706  0.00  0.00     0.249 C 
HETATM   28  O   UNK N   1      35.477   9.119  22.291  0.00  0.00    -0.268 OA
HETATM   29  N   UNK N   1      37.286  10.403  22.361  0.00  0.00    -0.366 N 
HETATM   30  H   UNK N   1      37.943  10.957  21.879  0.00  0.00     0.159 HD
HETATM   31  H   UNK N   1      37.405  10.228  23.322  0.00  0.00     0.159 HD
ENDBRANCH  22  27
TORSDOF 1
ENDMDL
MODEL 6
REMARK VINA RESULT:      -8.1      2.251      3.792
REMARK  1 active torsions:
REMARK  status: ('A' for Active; 'I' for Inactive)
REMARK    1  A    between atoms: C_22  and  C_23 
REMARK       I    between atoms: C_23  and  N_25 
ROOT
HETATM    1  O   UNK N   1      21.559  17.546   2.984  0.00  0.00    -0.264 OA
HETATM    2  C   UNK N   1      22.269  17.003   3.815  0.00  0.00     0.267 C 
HETATM    3  C   UNK N   1      21.782  16.883   5.253  0.00  0.00     0.041 C 
HETATM    4  C   UNK N   1      20.519  16.040   5.302  0.00  0.00     0.025 C 
HETATM    5  C   UNK N   1      21.471  18.257   5.815  0.00  0.00     0.025 C 
HETATM    6  C   UNK N   1      22.833  16.249   6.152  0.00  0.00     0.022 C 
HETATM    7  C   UNK N   1      23.518  15.123   5.412  0.00  0.00     0.041 C 
HETATM    8  C   UNK N   1      24.305  15.714   4.226  0.00  0.00     0.078 C 
HETATM    9  O   UNK N   1      23.487  16.512   3.429  0.00  0.00    -0.309 OA
HETATM   10  C   UNK N   1      25.576  16.490   4.640  0.00  0.00    -0.008 C 
HETATM   11  C   UNK N   1      25.284  17.926   5.073  0.00  0.00     0.019 C 
HETATM   12  C   UNK N   1      26.454  16.423   3.373  0.00  0.00     0.001 C 
HETATM   13  C   UNK N   1      26.296  14.950   2.993  0.00  0.00     0.009 C 
HETATM   14  C   UNK N   1      24.860  14.567   3.377  0.00  0.00     0.040 C 
HETATM   15  C   UNK N   1      27.936  16.907   3.598  0.00  0.00    -0.001 C 
HETATM   16  C   UNK N   1      28.328  16.918   5.099  0.00  0.00     0.023 C 
HETATM   17  C   UNK N   1      27.772  15.695   5.803  0.00  0.00     0.010 C 
HETATM   18  C   UNK N   1      26.249  15.727   5.819  0.00  0.00     0.013 C 
HETATM   19  C   UNK N   1      29.799  16.990   5.381  0.00  0.00    -0.047 A 
HETATM   20  C   UNK N   1      30.205  17.166   6.709  0.00  0.00     0.009 A 
HETATM   21  C   UNK N   1      31.553  17.201   7.040  0.00  0.00     0.017 A 
HETATM   22  C   UNK N   1      32.525  17.053   6.048  0.00  0.00     0.032 A 
HETATM   23  C   UNK N   1      32.128  16.882   4.709  0.00  0.00     0.024 A 
HETATM   24  C   UNK N   1      30.766  16.850   4.367  0.00  0.00    -0.051 A 
HETATM   25  C   UNK N   1      30.372  16.636   2.930  0.00  0.00     0.039 C 
HETATM   26  C   UNK N   1      28.942  16.103   2.766  0.00  0.00     0.010 C 
ENDROOT
BRANCH  22  27
HETATM   27  C   UNK N   1      33.953  17.055   6.431  0.00  0.00     0.249 C 
HETATM   28  O   UNK N   1      34.488  18.090   6.796  0.00  0.00    -0.268 OA
HETATM   29  N   UNK N   1      34.671  15.915   6.396  0.00  0.00    -0.366 N 
HETATM   30  H   UNK N   1      34.231  15.060   6.181  0.00  0.00     0.159 HD
HETATM   31  H   UNK N   1      35.636  15.935   6.586  0.00  0.00     0.159 HD
ENDBRANCH  22  27
TORSDOF 1
ENDMDL
MODEL 7
REMARK VINA RESULT:      -8.0     11.807     13.704
REMARK  1 active torsions:
REMARK  status: ('A' for Active; 'I' for Inactive)
REMARK    1  A    between atoms: C_22  and  C_23 
REMARK       I    between atoms: C_23  and  N_25 
ROOT
HETATM    1  O   UNK N   1      26.724  28.152  -6.635  0.00  0.00    -0.264 OA
HETATM    2  C   UNK N   1      26.950  27.340  -5.751  0.00  0.00     0.267 C 
HETATM    3  C   UNK N   1      26.953  27.798  -4.298  0.00  0.00     0.041 C 
HETATM    4  C   UNK N   1      25.579  28.322  -3.918  0.00  0.00     0.025 C 
HETATM    5  C   UNK N   1      27.969  28.908  -4.103  0.00  0.00     0.025 C 
HETATM    6  C   UNK N   1      27.328  26.665  -3.354  0.00  0.00     0.022 C 
HETATM    7  C   UNK N   1      26.675  25.383  -3.818  0.00  0.00     0.041 C 
HETATM    8  C   UNK N   1      27.274  24.985  -5.182  0.00  0.00     0.078 C 
HETATM    9  O   UNK N   1      27.189  26.037  -6.092  0.00  0.00    -0.309 OA
HETATM   10  C   UNK N   1      28.725  24.460  -5.101  0.00  0.00    -0.008 C 
HETATM   11  C   UNK N   1      29.764  25.578  -5.048  0.00  0.00     0.019 C 
HETATM   12  C   UNK N   1      28.854  23.595  -6.373  0.00  0.00     0.001 C 
HETATM   13  C   UNK N   1      27.536  22.820  -6.327  0.00  0.00     0.009 C 
HETATM   14  C   UNK N   1      26.500  23.786  -5.734  0.00  0.00     0.040 C 
HETATM   15  C   UNK N   1      30.157  22.710  -6.412  0.00  0.00    -0.001 C 
HETATM   16  C   UNK N   1      30.795  22.543  -5.008  0.00  0.00     0.023 C 
HETATM   17  C   UNK N   1      29.722  22.337  -3.956  0.00  0.00     0.010 C 
HETATM   18  C   UNK N   1      28.854  23.581  -3.821  0.00  0.00     0.013 C 
HETATM   19  C   UNK N   1      31.791  21.429  -4.881  0.00  0.00    -0.047 A 
HETATM   20  C   UNK N   1      32.518  21.331  -3.688  0.00  0.00     0.009 A 
HETATM   21  C   UNK N   1      33.427  20.299  -3.495  0.00  0.00     0.017 A 
HETATM   22  C   UNK N   1      33.623  19.338  -4.488  0.00  0.00     0.032 A 
HETATM   23  C   UNK N   1      32.902  19.431  -5.693  0.00  0.00     0.024 A 
HETATM   24  C   UNK N   1      31.985  20.474  -5.898  0.00  0.00    -0.051 A 
HETATM   25  C   UNK N   1      31.206  20.529  -7.185  0.00  0.00     0.039 C 
HETATM   26  C   UNK N   1      29.914  21.350  -7.079  0.00  0.00     0.010 C 
ENDROOT
BRANCH  22  27
HETATM   27  C   UNK N   1      34.567  18.228  -4.242  0.00  0.00     0.249 C 
HETATM   28  O   UNK N   1      34.187  17.210  -3.687  0.00  0.00    -0.268 OA
HETATM   29  N   UNK N   1      35.852  18.324  -4.642  0.00  0.00    -0.366 N 
HETATM   30  H   UNK N   1      36.151  19.106  -5.161  0.00  0.00     0.159 HD
HETATM   31  H   UNK N   1      36.492  17.612  -4.415  0.00  0.00     0.159 HD
ENDBRANCH  22  27
TORSDOF 1
ENDMDL
MODEL 8
REMARK VINA RESULT:      -7.9     12.941     15.354
REMARK  1 active torsions:
REMARK  status: ('A' for Active; 'I' for Inactive)
REMARK    1  A    between atoms: C_22  and  C_23 
REMARK       I    between atoms: C_23  and  N_25 
ROOT
HETATM    1  O   UNK N   1      26.261  27.340  -2.469  0.00  0.00    -0.264 OA
HETATM    2  C   UNK N   1      26.769  27.201  -3.570  0.00  0.00     0.267 C 
HETATM    3  C   UNK N   1      26.266  28.040  -4.738  0.00  0.00     0.041 C 
HETATM    4  C   UNK N   1      26.502  29.514  -4.453  0.00  0.00     0.025 C 
HETATM    5  C   UNK N   1      24.780  27.815  -4.940  0.00  0.00     0.025 C 
HETATM    6  C   UNK N   1      26.965  27.670  -6.038  0.00  0.00     0.022 C 
HETATM    7  C   UNK N   1      28.431  27.417  -5.769  0.00  0.00     0.041 C 
HETATM    8  C   UNK N   1      28.564  26.171  -4.871  0.00  0.00     0.078 C 
HETATM    9  O   UNK N   1      27.782  26.293  -3.724  0.00  0.00    -0.309 OA
HETATM   10  C   UNK N   1      28.255  24.841  -5.594  0.00  0.00    -0.008 C 
HETATM   11  C   UNK N   1      26.760  24.538  -5.675  0.00  0.00     0.019 C 
HETATM   12  C   UNK N   1      29.022  23.800  -4.752  0.00  0.00     0.001 C 
HETATM   13  C   UNK N   1      30.362  24.515  -4.564  0.00  0.00     0.009 C 
HETATM   14  C   UNK N   1      30.029  26.010  -4.458  0.00  0.00     0.040 C 
HETATM   15  C   UNK N   1      29.106  22.376  -5.420  0.00  0.00    -0.001 C 
HETATM   16  C   UNK N   1      28.810  22.424  -6.943  0.00  0.00     0.023 C 
HETATM   17  C   UNK N   1      29.460  23.641  -7.573  0.00  0.00     0.010 C 
HETATM   18  C   UNK N   1      28.839  24.923  -7.036  0.00  0.00     0.013 C 
HETATM   19  C   UNK N   1      29.234  21.214  -7.720  0.00  0.00    -0.047 A 
HETATM   20  C   UNK N   1      28.850  21.129  -9.064  0.00  0.00     0.009 A 
HETATM   21  C   UNK N   1      29.244  20.053  -9.848  0.00  0.00     0.017 A 
HETATM   22  C   UNK N   1      30.038  19.040  -9.305  0.00  0.00     0.032 A 
HETATM   23  C   UNK N   1      30.424  19.112  -7.954  0.00  0.00     0.024 A 
HETATM   24  C   UNK N   1      30.026  20.195  -7.154  0.00  0.00    -0.051 A 
HETATM   25  C   UNK N   1      30.480  20.260  -5.720  0.00  0.00     0.039 C 
HETATM   26  C   UNK N   1      30.441  21.677  -5.134  0.00  0.00     0.010 C 
ENDROOT
BRANCH  22  27
HETATM   27  C   UNK N   1      30.476  17.925 -10.170  0.00  0.00     0.249 C 
HETATM   28  O   UNK N   1      30.233  17.944 -11.367  0.00  0.00    -0.268 OA
HETATM   29  N   UNK N   1      31.159  16.886  -9.650  0.00  0.00    -0.366 N 
HETATM   30  H   UNK N   1      31.431  16.896  -8.704  0.00  0.00     0.159 HD
HETATM   31  H   UNK N   1      31.389  16.114 -10.217  0.00  0.00     0.159 HD
ENDBRANCH  22  27
TORSDOF 1
ENDMDL
MODEL 9
REMARK VINA RESULT:      -7.8     12.072     15.041
REMARK  1 active torsions:
REMARK  status: ('A' for Active; 'I' for Inactive)
REMARK    1  A    between atoms: C_22  and  C_23 
REMARK       I    between atoms: C_23  and  N_25 
ROOT
HETATM    1  O   UNK N   1      37.312  22.311  -4.548  0.00  0.00    -0.264 OA
HETATM    2  C   UNK N   1      36.414  21.521  -4.792  0.00  0.00     0.267 C 
HETATM    3  C   UNK N   1      36.713  20.282  -5.626  0.00  0.00     0.041 C 
HETATM    4  C   UNK N   1      37.730  19.410  -4.910  0.00  0.00     0.025 C 
HETATM    5  C   UNK N   1      37.280  20.685  -6.974  0.00  0.00     0.025 C 
HETATM    6  C   UNK N   1      35.457  19.463  -5.885  0.00  0.00     0.022 C 
HETATM    7  C   UNK N   1      34.604  19.437  -4.637  0.00  0.00     0.041 C 
HETATM    8  C   UNK N   1      34.101  20.866  -4.348  0.00  0.00     0.078 C 
HETATM    9  O   UNK N   1      35.161  21.770  -4.302  0.00  0.00    -0.309 OA
HETATM   10  C   UNK N   1      33.014  21.359  -5.329  0.00  0.00    -0.008 C 
HETATM   11  C   UNK N   1      33.590  21.900  -6.637  0.00  0.00     0.019 C 
HETATM   12  C   UNK N   1      32.277  22.444  -4.516  0.00  0.00     0.001 C 
HETATM   13  C   UNK N   1      32.121  21.736  -3.169  0.00  0.00     0.009 C 
HETATM   14  C   UNK N   1      33.381  20.875  -2.997  0.00  0.00     0.040 C 
HETATM   15  C   UNK N   1      30.936  22.936  -5.179  0.00  0.00    -0.001 C 
HETATM   16  C   UNK N   1      30.408  21.940  -6.245  0.00  0.00     0.023 C 
HETATM   17  C   UNK N   1      30.587  20.510  -5.772  0.00  0.00     0.010 C 
HETATM   18  C   UNK N   1      32.065  20.165  -5.644  0.00  0.00     0.013 C 
HETATM   19  C   UNK N   1      28.975  22.123  -6.645  0.00  0.00    -0.047 A 
HETATM   20  C   UNK N   1      28.490  21.362  -7.716  0.00  0.00     0.009 A 
HETATM   21  C   UNK N   1      27.161  21.458  -8.109  0.00  0.00     0.017 A 
HETATM   22  C   UNK N   1      26.287  22.312  -7.434  0.00  0.00     0.032 A 
HETATM   23  C   UNK N   1      26.766  23.085  -6.361  0.00  0.00     0.024 A 
HETATM   24  C   UNK N   1      28.109  22.998  -5.960  0.00  0.00    -0.051 A 
HETATM   25  C   UNK N   1      28.584  23.815  -4.789  0.00  0.00     0.039 C 
HETATM   26  C   UNK N   1      29.858  23.260  -4.137  0.00  0.00     0.010 C 
ENDROOT
BRANCH  22  27
HETATM   27  C   UNK N   1      24.869  22.366  -7.847  0.00  0.00     0.249 C 
HETATM   28  O   UNK N   1      24.492  23.219  -8.635  0.00  0.00    -0.268 OA
HETATM   29  N   UNK N   1      23.984  21.467  -7.370  0.00  0.00    -0.366 N 
HETATM   30  H   UNK N   1      24.291  20.727  -6.798  0.00  0.00     0.159 HD
HETATM   31  H   UNK N   1      23.029  21.550  -7.595  0.00  0.00     0.159 HD
ENDBRANCH  22  27
TORSDOF 1
ENDMDL
