REMARK  1 active torsions:
REMARK  status: ('A' for Active; 'I' for Inactive)
REMARK    1  A    between atoms: C_22  and  C_23 
REMARK       I    between atoms: C_23  and  N_25 
ROOT
HETATM    1  O   UNK N   1       5.658   1.072  -1.243  0.00  0.00    -0.264 OA
HETATM    2  C   UNK N   1       4.896   0.481  -0.494  0.00  0.00     0.267 C 
HETATM    3  C   UNK N   1       5.270  -0.906   0.012  0.00  0.00     0.041 C 
HETATM    4  C   UNK N   1       6.544  -0.829   0.836  0.00  0.00     0.025 C 
HETATM    5  C   UNK N   1       5.503  -1.843  -1.158  0.00  0.00     0.025 C 
HETATM    6  C   UNK N   1       4.165  -1.509   0.867  0.00  0.00     0.022 C 
HETATM    7  C   UNK N   1       3.567  -0.437   1.750  0.00  0.00     0.041 C 
HETATM    8  C   UNK N   1       2.864   0.606   0.859  0.00  0.00     0.078 C 
HETATM    9  O   UNK N   1       3.725   1.086  -0.126  0.00  0.00    -0.309 OA
HETATM   10  C   UNK N   1       1.547   0.104   0.225  0.00  0.00    -0.008 C 
HETATM   11  C   UNK N   1       1.770  -0.724  -1.039  0.00  0.00     0.019 C 
HETATM   12  C   UNK N   1       0.775   1.411  -0.055  0.00  0.00     0.001 C 
HETATM   13  C   UNK N   1       0.996   2.161   1.260  0.00  0.00     0.009 C 
HETATM   14  C   UNK N   1       2.406   1.777   1.732  0.00  0.00     0.040 C 
HETATM   15  C   UNK N   1      -0.731   1.187  -0.459  0.00  0.00    -0.001 C 
HETATM   16  C   UNK N   1      -1.242  -0.223  -0.061  0.00  0.00     0.023 C 
HETATM   17  C   UNK N   1      -0.716  -0.613   1.307  0.00  0.00     0.010 C 
HETATM   18  C   UNK N   1       0.799  -0.764   1.280  0.00  0.00     0.013 C 
HETATM   19  C   UNK N   1      -2.732  -0.390  -0.053  0.00  0.00    -0.047 A 
HETATM   20  C   UNK N   1      -3.247  -1.678   0.139  0.00  0.00     0.009 A 
HETATM   21  C   UNK N   1      -4.618  -1.892   0.196  0.00  0.00     0.017 A 
HETATM   22  C   UNK N   1      -5.504  -0.820   0.069  0.00  0.00     0.032 A 
HETATM   23  C   UNK N   1      -4.997   0.477  -0.131  0.00  0.00     0.024 A 
HETATM   24  C   UNK N   1      -3.612   0.701  -0.194  0.00  0.00    -0.051 A 
HETATM   25  C   UNK N   1      -3.099   2.104  -0.378  0.00  0.00     0.039 C 
HETATM   26  C   UNK N   1      -1.649   2.287   0.089  0.00  0.00     0.010 C 
ENDROOT
BRANCH  22  27
HETATM   27  C   UNK N   1      -6.957  -1.069   0.171  0.00  0.00     0.249 C 
HETATM   28  O   UNK N   1      -7.375  -2.203   0.343  0.00  0.00    -0.268 OA
HETATM   29  N   UNK N   1      -7.832  -0.046   0.091  0.00  0.00    -0.366 N 
HETATM   30  H   UNK N   1      -7.505   0.881   0.033  0.00  0.00     0.159 HD
HETATM   31  H   UNK N   1      -8.800  -0.225   0.091  0.00  0.00     0.159 HD
ENDBRANCH  22  27
TORSDOF 1
