MODEL 1
REMARK VINA RESULT:      -7.1      0.000      0.000
REMARK  6 active torsions:
REMARK  status: ('A' for Active; 'I' for Inactive)
REMARK    1  A    between atoms: C_1  and  O_25 
REMARK    2  A    between atoms: C_2  and  O_27 
REMARK    3  A    between atoms: C_8  and  C_10 
REMARK    4  A    between atoms: C_10  and  C_11 
REMARK    5  A    between atoms: N_14  and  C_17 
REMARK    6  A    between atoms: C_17  and  C_18 
ROOT
HETATM    1  C   UNK N   1      21.713  18.901   3.586  0.00  0.00     0.102 A 
HETATM    2  C   UNK N   1      21.955  20.141   2.945  0.00  0.00     0.102 A 
HETATM    3  C   UNK N   1      23.280  20.615   2.822  0.00  0.00     0.047 A 
HETATM    4  C   UNK N   1      24.316  19.854   3.345  0.00  0.00    -0.041 A 
HETATM    5  C   UNK N   1      24.085  18.659   3.950  0.00  0.00     0.019 A 
HETATM    6  C   UNK N   1      22.796  18.148   4.091  0.00  0.00     0.055 A 
HETATM    7  C   UNK N   1      25.324  18.135   4.442  0.00  0.00     0.164 C 
HETATM    8  C   UNK N   1      26.425  19.137   4.247  0.00  0.00     0.065 C 
HETATM    9  C   UNK N   1      25.760  20.217   3.347  0.00  0.00     0.052 C 
HETATM   10  O   UNK N   1      25.439  17.087   5.058  0.00  0.00    -0.292 OA
ENDROOT
BRANCH   8  11
HETATM   11  C   UNK N   1      26.748  19.683   5.640  0.00  0.00     0.017 C 
BRANCH  11  12
HETATM   12  C   UNK N   1      28.118  19.369   6.241  0.00  0.00    -0.010 C 
HETATM   13  C   UNK N   1      29.057  18.542   5.353  0.00  0.00     0.035 C 
HETATM   14  C   UNK N   1      29.079  17.053   5.737  0.00  0.00     0.273 C 
HETATM   15  N   UNK N   1      29.311  16.863   7.172  0.00  0.00     0.092 N 
HETATM   16  C   UNK N   1      28.198  17.476   7.917  0.00  0.00     0.273 C 
HETATM   17  C   UNK N   1      28.124  18.992   7.717  0.00  0.00     0.035 C 
BRANCH  15  18
HETATM   18  C   UNK N   1      30.647  17.396   7.497  0.00  0.00     0.311 C 
BRANCH  18  19
HETATM   19  C   UNK N   1      31.781  16.621   6.909  0.00  0.00    -0.030 A 
HETATM   20  C   UNK N   1      31.878  15.240   7.099  0.00  0.00     0.009 A 
HETATM   21  C   UNK N   1      32.929  14.528   6.509  0.00  0.00     0.001 A 
HETATM   22  C   UNK N   1      33.878  15.197   5.727  0.00  0.00     0.000 A 
HETATM   23  C   UNK N   1      33.774  16.576   5.530  0.00  0.00     0.001 A 
HETATM   24  C   UNK N   1      32.722  17.283   6.112  0.00  0.00     0.009 A 
ENDBRANCH  18  19
ENDBRANCH  15  18
ENDBRANCH  11  12
ENDBRANCH   8  11
BRANCH   1  25
HETATM   25  O   UNK N   1      20.436  18.466   3.719  0.00  0.00    -0.353 OA
HETATM   26  C   UNK N   1      19.874  17.518   2.894  0.00  0.00     0.210 C 
ENDBRANCH   1  25
BRANCH   2  27
HETATM   27  O   UNK N   1      20.912  20.862   2.472  0.00  0.00    -0.353 OA
HETATM   28  C   UNK N   1      20.628  20.989   1.131  0.00  0.00     0.210 C 
ENDBRANCH   2  27
TORSDOF 6
ENDMDL
MODEL 2
REMARK VINA RESULT:      -7.0      5.675      9.220
REMARK  6 active torsions:
REMARK  status: ('A' for Active; 'I' for Inactive)
REMARK    1  A    between atoms: C_1  and  O_25 
REMARK    2  A    between atoms: C_2  and  O_27 
REMARK    3  A    between atoms: C_8  and  C_10 
REMARK    4  A    between atoms: C_10  and  C_11 
REMARK    5  A    between atoms: N_14  and  C_17 
REMARK    6  A    between atoms: C_17  and  C_18 
ROOT
HETATM    1  C   UNK N   1      29.868  16.840   6.145  0.00  0.00     0.102 A 
HETATM    2  C   UNK N   1      29.567  17.267   7.461  0.00  0.00     0.102 A 
HETATM    3  C   UNK N   1      30.615  17.648   8.327  0.00  0.00     0.047 A 
HETATM    4  C   UNK N   1      31.923  17.583   7.867  0.00  0.00    -0.041 A 
HETATM    5  C   UNK N   1      32.211  17.184   6.600  0.00  0.00     0.019 A 
HETATM    6  C   UNK N   1      31.211  16.804   5.708  0.00  0.00     0.055 A 
HETATM    7  C   UNK N   1      33.633  17.157   6.430  0.00  0.00     0.164 C 
HETATM    8  C   UNK N   1      34.318  17.442   7.735  0.00  0.00     0.065 C 
HETATM    9  C   UNK N   1      33.148  17.899   8.651  0.00  0.00     0.052 C 
HETATM   10  O   UNK N   1      34.203  16.813   5.406  0.00  0.00    -0.292 OA
ENDROOT
BRANCH   8  11
HETATM   11  C   UNK N   1      34.911  16.108   8.199  0.00  0.00     0.017 C 
BRANCH  11  12
HETATM   12  C   UNK N   1      34.734  15.708   9.663  0.00  0.00    -0.010 C 
HETATM   13  C   UNK N   1      35.952  15.943  10.566  0.00  0.00     0.035 C 
HETATM   14  C   UNK N   1      36.764  14.661  10.812  0.00  0.00     0.273 C 
HETATM   15  N   UNK N   1      35.913  13.553  11.253  0.00  0.00     0.092 N 
HETATM   16  C   UNK N   1      34.947  13.242  10.184  0.00  0.00     0.273 C 
HETATM   17  C   UNK N   1      33.988  14.404   9.909  0.00  0.00     0.035 C 
BRANCH  15  18
HETATM   18  C   UNK N   1      35.313  13.919  12.549  0.00  0.00     0.311 C 
BRANCH  18  19
HETATM   19  C   UNK N   1      35.702  13.029  13.684  0.00  0.00    -0.030 A 
HETATM   20  C   UNK N   1      36.831  12.210  13.596  0.00  0.00     0.009 A 
HETATM   21  C   UNK N   1      37.198  11.411  14.685  0.00  0.00     0.001 A 
HETATM   22  C   UNK N   1      36.438  11.435  15.861  0.00  0.00     0.000 A 
HETATM   23  C   UNK N   1      35.316  12.261  15.951  0.00  0.00     0.001 A 
HETATM   24  C   UNK N   1      34.955  13.063  14.868  0.00  0.00     0.009 A 
ENDBRANCH  18  19
ENDBRANCH  15  18
ENDBRANCH  11  12
ENDBRANCH   8  11
BRANCH   1  25
HETATM   25  O   UNK N   1      28.856  16.456   5.329  0.00  0.00    -0.353 OA
HETATM   26  C   UNK N   1      28.566  15.137   5.059  0.00  0.00     0.210 C 
ENDBRANCH   1  25
BRANCH   2  27
HETATM   27  O   UNK N   1      28.278  17.290   7.876  0.00  0.00    -0.353 OA
HETATM   28  C   UNK N   1      27.910  17.533   9.180  0.00  0.00     0.210 C 
ENDBRANCH   2  27
TORSDOF 6
ENDMDL
MODEL 3
REMARK VINA RESULT:      -6.8     11.366     13.381
REMARK  6 active torsions:
REMARK  status: ('A' for Active; 'I' for Inactive)
REMARK    1  A    between atoms: C_1  and  O_25 
REMARK    2  A    between atoms: C_2  and  O_27 
REMARK    3  A    between atoms: C_8  and  C_10 
REMARK    4  A    between atoms: C_10  and  C_11 
REMARK    5  A    between atoms: N_14  and  C_17 
REMARK    6  A    between atoms: C_17  and  C_18 
ROOT
HETATM    1  C   UNK N   1      26.961  29.672  -4.476  0.00  0.00     0.102 A 
HETATM    2  C   UNK N   1      28.030  29.818  -5.393  0.00  0.00     0.102 A 
HETATM    3  C   UNK N   1      28.153  28.910  -6.469  0.00  0.00     0.047 A 
HETATM    4  C   UNK N   1      27.225  27.887  -6.593  0.00  0.00    -0.041 A 
HETATM    5  C   UNK N   1      26.192  27.754  -5.719  0.00  0.00     0.019 A 
HETATM    6  C   UNK N   1      26.026  28.627  -4.646  0.00  0.00     0.055 A 
HETATM    7  C   UNK N   1      25.440  26.583  -6.058  0.00  0.00     0.164 C 
HETATM    8  C   UNK N   1      26.118  25.832  -7.166  0.00  0.00     0.065 C 
HETATM    9  C   UNK N   1      27.226  26.819  -7.631  0.00  0.00     0.052 C 
HETATM   10  O   UNK N   1      24.466  26.181  -5.440  0.00  0.00    -0.292 OA
ENDROOT
BRANCH   8  11
HETATM   11  C   UNK N   1      26.715  24.578  -6.519  0.00  0.00     0.017 C 
BRANCH  11  12
HETATM   12  C   UNK N   1      28.166  24.631  -6.042  0.00  0.00    -0.010 C 
HETATM   13  C   UNK N   1      29.082  23.526  -6.583  0.00  0.00     0.035 C 
HETATM   14  C   UNK N   1      29.296  22.385  -5.575  0.00  0.00     0.273 C 
HETATM   15  N   UNK N   1      29.700  22.888  -4.259  0.00  0.00     0.092 N 
HETATM   16  C   UNK N   1      28.617  23.731  -3.721  0.00  0.00     0.273 C 
HETATM   17  C   UNK N   1      28.370  24.979  -4.573  0.00  0.00     0.035 C 
BRANCH  15  18
HETATM   18  C   UNK N   1      31.002  23.564  -4.403  0.00  0.00     0.311 C 
BRANCH  18  19
HETATM   19  C   UNK N   1      32.184  22.690  -4.135  0.00  0.00    -0.030 A 
HETATM   20  C   UNK N   1      32.198  21.822  -3.041  0.00  0.00     0.009 A 
HETATM   21  C   UNK N   1      33.301  20.985  -2.830  0.00  0.00     0.001 A 
HETATM   22  C   UNK N   1      34.385  21.017  -3.715  0.00  0.00     0.000 A 
HETATM   23  C   UNK N   1      34.365  21.877  -4.814  0.00  0.00     0.001 A 
HETATM   24  C   UNK N   1      33.262  22.705  -5.028  0.00  0.00     0.009 A 
ENDBRANCH  18  19
ENDBRANCH  15  18
ENDBRANCH  11  12
ENDBRANCH   8  11
BRANCH   1  25
HETATM   25  O   UNK N   1      26.864  30.535  -3.434  0.00  0.00    -0.353 OA
HETATM   26  C   UNK N   1      27.520  30.348  -2.239  0.00  0.00     0.210 C 
ENDBRANCH   1  25
BRANCH   2  27
HETATM   27  O   UNK N   1      28.928  30.816  -5.218  0.00  0.00    -0.353 OA
HETATM   28  C   UNK N   1      30.239  30.596  -4.861  0.00  0.00     0.210 C 
ENDBRANCH   2  27
TORSDOF 6
ENDMDL
MODEL 4
REMARK VINA RESULT:      -6.8     10.554     12.369
REMARK  6 active torsions:
REMARK  status: ('A' for Active; 'I' for Inactive)
REMARK    1  A    between atoms: C_1  and  O_25 
REMARK    2  A    between atoms: C_2  and  O_27 
REMARK    3  A    between atoms: C_8  and  C_10 
REMARK    4  A    between atoms: C_10  and  C_11 
REMARK    5  A    between atoms: N_14  and  C_17 
REMARK    6  A    between atoms: C_17  and  C_18 
ROOT
HETATM    1  C   UNK N   1      25.852  24.876  -8.805  0.00  0.00     0.102 A 
HETATM    2  C   UNK N   1      25.557  23.550  -8.403  0.00  0.00     0.102 A 
HETATM    3  C   UNK N   1      25.554  23.223  -7.029  0.00  0.00     0.047 A 
HETATM    4  C   UNK N   1      25.853  24.212  -6.103  0.00  0.00    -0.041 A 
HETATM    5  C   UNK N   1      26.126  25.486  -6.488  0.00  0.00     0.019 A 
HETATM    6  C   UNK N   1      26.135  25.859  -7.831  0.00  0.00     0.055 A 
HETATM    7  C   UNK N   1      26.456  26.265  -5.331  0.00  0.00     0.164 C 
HETATM    8  C   UNK N   1      26.523  25.387  -4.116  0.00  0.00     0.065 C 
HETATM    9  C   UNK N   1      25.942  24.038  -4.627  0.00  0.00     0.052 C 
HETATM   10  O   UNK N   1      26.775  27.443  -5.356  0.00  0.00    -0.292 OA
ENDROOT
BRANCH   8  11
HETATM   11  C   UNK N   1      28.009  25.265  -3.767  0.00  0.00     0.017 C 
BRANCH  11  12
HETATM   12  C   UNK N   1      28.669  23.891  -3.881  0.00  0.00    -0.010 C 
HETATM   13  C   UNK N   1      28.758  23.089  -2.575  0.00  0.00     0.035 C 
HETATM   14  C   UNK N   1      30.148  23.171  -1.922  0.00  0.00     0.273 C 
HETATM   15  N   UNK N   1      31.217  22.861  -2.875  0.00  0.00     0.092 N 
HETATM   16  C   UNK N   1      31.197  23.864  -3.954  0.00  0.00     0.273 C 
HETATM   17  C   UNK N   1      29.903  23.819  -4.770  0.00  0.00     0.035 C 
BRANCH  15  18
HETATM   18  C   UNK N   1      31.049  21.465  -3.319  0.00  0.00     0.311 C 
BRANCH  18  19
HETATM   19  C   UNK N   1      32.249  20.882  -3.993  0.00  0.00    -0.030 A 
HETATM   20  C   UNK N   1      33.491  20.865  -3.353  0.00  0.00     0.009 A 
HETATM   21  C   UNK N   1      34.593  20.281  -3.987  0.00  0.00     0.001 A 
HETATM   22  C   UNK N   1      34.451  19.714  -5.259  0.00  0.00     0.000 A 
HETATM   23  C   UNK N   1      33.207  19.723  -5.894  0.00  0.00     0.001 A 
HETATM   24  C   UNK N   1      32.107  20.298  -5.257  0.00  0.00     0.009 A 
ENDBRANCH  18  19
ENDBRANCH  15  18
ENDBRANCH  11  12
ENDBRANCH   8  11
BRANCH   1  25
HETATM   25  O   UNK N   1      25.874  25.174 -10.127  0.00  0.00    -0.353 OA
HETATM   26  C   UNK N   1      24.865  25.865 -10.760  0.00  0.00     0.210 C 
ENDBRANCH   1  25
BRANCH   2  27
HETATM   27  O   UNK N   1      25.296  22.611  -9.342  0.00  0.00    -0.353 OA
HETATM   28  C   UNK N   1      25.770  21.321  -9.272  0.00  0.00     0.210 C 
ENDBRANCH   2  27
TORSDOF 6
ENDMDL
MODEL 5
REMARK VINA RESULT:      -6.7      6.035     12.054
REMARK  6 active torsions:
REMARK  status: ('A' for Active; 'I' for Inactive)
REMARK    1  A    between atoms: C_1  and  O_25 
REMARK    2  A    between atoms: C_2  and  O_27 
REMARK    3  A    between atoms: C_8  and  C_10 
REMARK    4  A    between atoms: C_10  and  C_11 
REMARK    5  A    between atoms: N_14  and  C_17 
REMARK    6  A    between atoms: C_17  and  C_18 
ROOT
HETATM    1  C   UNK N   1      35.910  13.770  12.754  0.00  0.00     0.102 A 
HETATM    2  C   UNK N   1      35.376  12.698  11.998  0.00  0.00     0.102 A 
HETATM    3  C   UNK N   1      34.930  12.931  10.678  0.00  0.00     0.047 A 
HETATM    4  C   UNK N   1      35.018  14.213  10.156  0.00  0.00    -0.041 A 
HETATM    5  C   UNK N   1      35.541  15.239  10.877  0.00  0.00     0.019 A 
HETATM    6  C   UNK N   1      35.998  15.059  12.181  0.00  0.00     0.055 A 
HETATM    7  C   UNK N   1      35.446  16.446  10.111  0.00  0.00     0.164 C 
HETATM    8  C   UNK N   1      34.685  16.197   8.842  0.00  0.00     0.065 C 
HETATM    9  C   UNK N   1      34.557  14.648   8.809  0.00  0.00     0.052 C 
HETATM   10  O   UNK N   1      35.808  17.546  10.501  0.00  0.00    -0.292 OA
ENDROOT
BRANCH   8  11
HETATM   11  C   UNK N   1      33.323  16.872   9.029  0.00  0.00     0.017 C 
BRANCH  11  12
HETATM   12  C   UNK N   1      32.635  17.467   7.801  0.00  0.00    -0.010 C 
HETATM   13  C   UNK N   1      31.147  17.128   7.646  0.00  0.00     0.035 C 
HETATM   14  C   UNK N   1      30.898  15.992   6.641  0.00  0.00     0.273 C 
HETATM   15  N   UNK N   1      31.580  16.233   5.366  0.00  0.00     0.092 N 
HETATM   16  C   UNK N   1      33.033  16.275   5.606  0.00  0.00     0.273 C 
HETATM   17  C   UNK N   1      33.443  17.441   6.510  0.00  0.00     0.035 C 
BRANCH  15  18
HETATM   18  C   UNK N   1      31.013  17.453   4.763  0.00  0.00     0.311 C 
BRANCH  18  19
HETATM   19  C   UNK N   1      29.575  17.338   4.372  0.00  0.00    -0.030 A 
HETATM   20  C   UNK N   1      28.639  18.284   4.798  0.00  0.00     0.009 A 
HETATM   21  C   UNK N   1      27.305  18.176   4.390  0.00  0.00     0.001 A 
HETATM   22  C   UNK N   1      26.909  17.125   3.554  0.00  0.00     0.000 A 
HETATM   23  C   UNK N   1      27.847  16.186   3.121  0.00  0.00     0.001 A 
HETATM   24  C   UNK N   1      29.179  16.298   3.522  0.00  0.00     0.009 A 
ENDBRANCH  18  19
ENDBRANCH  15  18
ENDBRANCH  11  12
ENDBRANCH   8  11
BRANCH   1  25
HETATM   25  O   UNK N   1      36.314  13.542  14.028  0.00  0.00    -0.353 OA
HETATM   26  C   UNK N   1      36.760  14.538  14.866  0.00  0.00     0.210 C 
ENDBRANCH   1  25
BRANCH   2  27
HETATM   27  O   UNK N   1      35.285  11.469  12.557  0.00  0.00    -0.353 OA
HETATM   28  C   UNK N   1      34.232  11.077  13.353  0.00  0.00     0.210 C 
ENDBRANCH   2  27
TORSDOF 6
ENDMDL
MODEL 6
REMARK VINA RESULT:      -6.7     11.312     13.378
REMARK  6 active torsions:
REMARK  status: ('A' for Active; 'I' for Inactive)
REMARK    1  A    between atoms: C_1  and  O_25 
REMARK    2  A    between atoms: C_2  and  O_27 
REMARK    3  A    between atoms: C_8  and  C_10 
REMARK    4  A    between atoms: C_10  and  C_11 
REMARK    5  A    between atoms: N_14  and  C_17 
REMARK    6  A    between atoms: C_17  and  C_18 
ROOT
HETATM    1  C   UNK N   1      27.826  27.319  -8.837  0.00  0.00     0.102 A 
HETATM    2  C   UNK N   1      26.899  26.271  -9.056  0.00  0.00     0.102 A 
HETATM    3  C   UNK N   1      25.988  25.922  -8.034  0.00  0.00     0.047 A 
HETATM    4  C   UNK N   1      26.032  26.613  -6.832  0.00  0.00    -0.041 A 
HETATM    5  C   UNK N   1      26.914  27.627  -6.626  0.00  0.00     0.019 A 
HETATM    6  C   UNK N   1      27.828  28.010  -7.605  0.00  0.00     0.055 A 
HETATM    7  C   UNK N   1      26.772  28.107  -5.284  0.00  0.00     0.164 C 
HETATM    8  C   UNK N   1      25.804  27.247  -4.524  0.00  0.00     0.065 C 
HETATM    9  C   UNK N   1      25.184  26.353  -5.635  0.00  0.00     0.052 C 
HETATM   10  O   UNK N   1      27.446  28.998  -4.790  0.00  0.00    -0.292 OA
ENDROOT
BRANCH   8  11
HETATM   11  C   UNK N   1      26.649  26.427  -3.545  0.00  0.00     0.017 C 
BRANCH  11  12
HETATM   12  C   UNK N   1      27.412  25.219  -4.085  0.00  0.00    -0.010 C 
HETATM   13  C   UNK N   1      27.184  23.901  -3.333  0.00  0.00     0.035 C 
HETATM   14  C   UNK N   1      28.320  23.574  -2.349  0.00  0.00     0.273 C 
HETATM   15  N   UNK N   1      29.637  23.665  -2.987  0.00  0.00     0.092 N 
HETATM   16  C   UNK N   1      29.851  25.052  -3.436  0.00  0.00     0.273 C 
HETATM   17  C   UNK N   1      28.851  25.479  -4.513  0.00  0.00     0.035 C 
BRANCH  15  18
HETATM   18  C   UNK N   1      29.705  22.647  -4.051  0.00  0.00     0.311 C 
BRANCH  18  19
HETATM   19  C   UNK N   1      30.904  21.758  -3.980  0.00  0.00    -0.030 A 
HETATM   20  C   UNK N   1      31.096  20.740  -4.917  0.00  0.00     0.009 A 
HETATM   21  C   UNK N   1      32.245  19.943  -4.854  0.00  0.00     0.001 A 
HETATM   22  C   UNK N   1      33.200  20.168  -3.855  0.00  0.00     0.000 A 
HETATM   23  C   UNK N   1      33.012  21.192  -2.926  0.00  0.00     0.001 A 
HETATM   24  C   UNK N   1      31.870  21.992  -2.995  0.00  0.00     0.009 A 
ENDBRANCH  18  19
ENDBRANCH  15  18
ENDBRANCH  11  12
ENDBRANCH   8  11
BRANCH   1  25
HETATM   25  O   UNK N   1      28.711  27.631  -9.816  0.00  0.00    -0.353 OA
HETATM   26  C   UNK N   1      30.075  27.608  -9.632  0.00  0.00     0.210 C 
ENDBRANCH   1  25
BRANCH   2  27
HETATM   27  O   UNK N   1      26.909  25.607 -10.235  0.00  0.00    -0.353 OA
HETATM   28  C   UNK N   1      25.842  24.867 -10.694  0.00  0.00     0.210 C 
ENDBRANCH   2  27
TORSDOF 6
ENDMDL
MODEL 7
REMARK VINA RESULT:      -6.6      7.264     12.836
REMARK  6 active torsions:
REMARK  status: ('A' for Active; 'I' for Inactive)
REMARK    1  A    between atoms: C_1  and  O_25 
REMARK    2  A    between atoms: C_2  and  O_27 
REMARK    3  A    between atoms: C_8  and  C_10 
REMARK    4  A    between atoms: C_10  and  C_11 
REMARK    5  A    between atoms: N_14  and  C_17 
REMARK    6  A    between atoms: C_17  and  C_18 
ROOT
HETATM    1  C   UNK N   1      35.829  13.516  13.319  0.00  0.00     0.102 A 
HETATM    2  C   UNK N   1      34.940  12.461  12.998  0.00  0.00     0.102 A 
HETATM    3  C   UNK N   1      34.930  11.933  11.688  0.00  0.00     0.047 A 
HETATM    4  C   UNK N   1      35.789  12.472  10.741  0.00  0.00    -0.041 A 
HETATM    5  C   UNK N   1      36.650  13.476  11.052  0.00  0.00     0.019 A 
HETATM    6  C   UNK N   1      36.700  14.026  12.331  0.00  0.00     0.055 A 
HETATM    7  C   UNK N   1      37.360  13.868   9.871  0.00  0.00     0.164 C 
HETATM    8  C   UNK N   1      36.821  13.138   8.675  0.00  0.00     0.065 C 
HETATM    9  C   UNK N   1      35.881  12.074   9.309  0.00  0.00     0.052 C 
HETATM   10  O   UNK N   1      38.186  14.766   9.824  0.00  0.00    -0.292 OA
ENDROOT
BRANCH   8  11
HETATM   11  C   UNK N   1      36.035  14.177   7.869  0.00  0.00     0.017 C 
BRANCH  11  12
HETATM   12  C   UNK N   1      34.612  14.512   8.314  0.00  0.00    -0.010 C 
HETATM   13  C   UNK N   1      33.509  14.209   7.290  0.00  0.00     0.035 C 
HETATM   14  C   UNK N   1      33.051  15.461   6.524  0.00  0.00     0.273 C 
HETATM   15  N   UNK N   1      32.723  16.566   7.429  0.00  0.00     0.092 N 
HETATM   16  C   UNK N   1      33.937  16.946   8.173  0.00  0.00     0.273 C 
HETATM   17  C   UNK N   1      34.445  15.819   9.077  0.00  0.00     0.035 C 
BRANCH  15  18
HETATM   18  C   UNK N   1      31.583  16.152   8.267  0.00  0.00     0.311 C 
BRANCH  18  19
HETATM   19  C   UNK N   1      30.393  17.052   8.180  0.00  0.00    -0.030 A 
HETATM   20  C   UNK N   1      29.886  17.680   9.320  0.00  0.00     0.009 A 
HETATM   21  C   UNK N   1      28.794  18.548   9.209  0.00  0.00     0.001 A 
HETATM   22  C   UNK N   1      28.213  18.789   7.958  0.00  0.00     0.000 A 
HETATM   23  C   UNK N   1      28.727  18.169   6.818  0.00  0.00     0.001 A 
HETATM   24  C   UNK N   1      29.821  17.310   6.928  0.00  0.00     0.009 A 
ENDBRANCH  18  19
ENDBRANCH  15  18
ENDBRANCH  11  12
ENDBRANCH   8  11
BRANCH   1  25
HETATM   25  O   UNK N   1      35.815  14.030  14.574  0.00  0.00    -0.353 OA
HETATM   26  C   UNK N   1      36.928  14.070  15.383  0.00  0.00     0.210 C 
ENDBRANCH   1  25
BRANCH   2  27
HETATM   27  O   UNK N   1      34.101  11.984  13.947  0.00  0.00    -0.353 OA
HETATM   28  C   UNK N   1      33.810  10.646  14.093  0.00  0.00     0.210 C 
ENDBRANCH   2  27
TORSDOF 6
ENDMDL
MODEL 8
REMARK VINA RESULT:      -6.5      9.367     13.675
REMARK  6 active torsions:
REMARK  status: ('A' for Active; 'I' for Inactive)
REMARK    1  A    between atoms: C_1  and  O_25 
REMARK    2  A    between atoms: C_2  and  O_27 
REMARK    3  A    between atoms: C_8  and  C_10 
REMARK    4  A    between atoms: C_10  and  C_11 
REMARK    5  A    between atoms: N_14  and  C_17 
REMARK    6  A    between atoms: C_17  and  C_18 
ROOT
HETATM    1  C   UNK N   1      34.837  16.074   7.851  0.00  0.00     0.102 A 
HETATM    2  C   UNK N   1      35.337  15.033   7.031  0.00  0.00     0.102 A 
HETATM    3  C   UNK N   1      35.628  13.774   7.603  0.00  0.00     0.047 A 
HETATM    4  C   UNK N   1      35.425  13.592   8.963  0.00  0.00    -0.041 A 
HETATM    5  C   UNK N   1      34.935  14.588   9.748  0.00  0.00     0.019 A 
HETATM    6  C   UNK N   1      34.629  15.844   9.229  0.00  0.00     0.055 A 
HETATM    7  C   UNK N   1      34.892  14.135  11.106  0.00  0.00     0.164 C 
HETATM    8  C   UNK N   1      35.523  12.778  11.222  0.00  0.00     0.065 C 
HETATM    9  C   UNK N   1      35.719  12.355   9.738  0.00  0.00     0.052 C 
HETATM   10  O   UNK N   1      34.523  14.813  12.052  0.00  0.00    -0.292 OA
ENDROOT
BRANCH   8  11
HETATM   11  C   UNK N   1      36.865  12.999  11.927  0.00  0.00     0.017 C 
BRANCH  11  12
HETATM   12  C   UNK N   1      37.026  12.478  13.355  0.00  0.00    -0.010 C 
HETATM   13  C   UNK N   1      36.643  11.007  13.571  0.00  0.00     0.035 C 
HETATM   14  C   UNK N   1      35.241  10.842  14.180  0.00  0.00     0.273 C 
HETATM   15  N   UNK N   1      35.062  11.675  15.372  0.00  0.00     0.092 N 
HETATM   16  C   UNK N   1      35.192  13.091  14.985  0.00  0.00     0.273 C 
HETATM   17  C   UNK N   1      36.590  13.429  14.462  0.00  0.00     0.035 C 
BRANCH  15  18
HETATM   18  C   UNK N   1      36.017  11.221  16.399  0.00  0.00     0.311 C 
BRANCH  18  19
HETATM   19  C   UNK N   1      35.381  10.697  17.646  0.00  0.00    -0.030 A 
HETATM   20  C   UNK N   1      34.651   9.506  17.631  0.00  0.00     0.009 A 
HETATM   21  C   UNK N   1      34.094   9.015  18.817  0.00  0.00     0.001 A 
HETATM   22  C   UNK N   1      34.270   9.714  20.017  0.00  0.00     0.000 A 
HETATM   23  C   UNK N   1      35.008  10.899  20.033  0.00  0.00     0.001 A 
HETATM   24  C   UNK N   1      35.570  11.384  18.851  0.00  0.00     0.009 A 
ENDBRANCH  18  19
ENDBRANCH  15  18
ENDBRANCH  11  12
ENDBRANCH   8  11
BRANCH   1  25
HETATM   25  O   UNK N   1      34.583  17.285   7.297  0.00  0.00    -0.353 OA
HETATM   26  C   UNK N   1      33.839  18.258   7.924  0.00  0.00     0.210 C 
ENDBRANCH   1  25
BRANCH   2  27
HETATM   27  O   UNK N   1      35.544  15.263   5.713  0.00  0.00    -0.353 OA
HETATM   28  C   UNK N   1      35.876  14.272   4.817  0.00  0.00     0.210 C 
ENDBRANCH   2  27
TORSDOF 6
ENDMDL
MODEL 9
REMARK VINA RESULT:      -6.5      9.164     14.575
REMARK  6 active torsions:
REMARK  status: ('A' for Active; 'I' for Inactive)
REMARK    1  A    between atoms: C_1  and  O_25 
REMARK    2  A    between atoms: C_2  and  O_27 
REMARK    3  A    between atoms: C_8  and  C_10 
REMARK    4  A    between atoms: C_10  and  C_11 
REMARK    5  A    between atoms: N_14  and  C_17 
REMARK    6  A    between atoms: C_17  and  C_18 
ROOT
HETATM    1  C   UNK N   1      35.468  12.029  16.950  0.00  0.00     0.102 A 
HETATM    2  C   UNK N   1      35.577  10.705  16.459  0.00  0.00     0.102 A 
HETATM    3  C   UNK N   1      35.982  10.489  15.123  0.00  0.00     0.047 A 
HETATM    4  C   UNK N   1      36.254  11.586  14.319  0.00  0.00    -0.041 A 
HETATM    5  C   UNK N   1      36.161  12.856  14.793  0.00  0.00     0.019 A 
HETATM    6  C   UNK N   1      35.770  13.119  16.105  0.00  0.00     0.055 A 
HETATM    7  C   UNK N   1      36.437  13.775  13.730  0.00  0.00     0.164 C 
HETATM    8  C   UNK N   1      36.599  13.036  12.433  0.00  0.00     0.065 C 
HETATM    9  C   UNK N   1      36.646  11.548  12.882  0.00  0.00     0.052 C 
HETATM   10  O   UNK N   1      36.405  14.991  13.838  0.00  0.00    -0.292 OA
ENDROOT
BRANCH   8  11
HETATM   11  C   UNK N   1      35.340  13.340  11.616  0.00  0.00     0.017 C 
BRANCH  11  12
HETATM   12  C   UNK N   1      35.507  13.735  10.150  0.00  0.00    -0.010 C 
HETATM   13  C   UNK N   1      36.110  15.124   9.902  0.00  0.00     0.035 C 
HETATM   14  C   UNK N   1      35.045  16.182   9.568  0.00  0.00     0.273 C 
HETATM   15  N   UNK N   1      34.147  15.734   8.500  0.00  0.00     0.092 N 
HETATM   16  C   UNK N   1      33.423  14.536   8.960  0.00  0.00     0.273 C 
HETATM   17  C   UNK N   1      34.359  13.353   9.225  0.00  0.00     0.035 C 
BRANCH  15  18
HETATM   18  C   UNK N   1      34.945  15.546   7.274  0.00  0.00     0.311 C 
BRANCH  18  19
HETATM   19  C   UNK N   1      34.273  16.009   6.022  0.00  0.00    -0.030 A 
HETATM   20  C   UNK N   1      34.201  15.179   4.901  0.00  0.00     0.009 A 
HETATM   21  C   UNK N   1      33.534  15.618   3.751  0.00  0.00     0.001 A 
HETATM   22  C   UNK N   1      32.938  16.884   3.727  0.00  0.00     0.000 A 
HETATM   23  C   UNK N   1      33.001  17.709   4.852  0.00  0.00     0.001 A 
HETATM   24  C   UNK N   1      33.659  17.267   6.000  0.00  0.00     0.009 A 
ENDBRANCH  18  19
ENDBRANCH  15  18
ENDBRANCH  11  12
ENDBRANCH   8  11
BRANCH   1  25
HETATM   25  O   UNK N   1      35.057  12.226  18.227  0.00  0.00    -0.353 OA
HETATM   26  C   UNK N   1      35.154  13.439  18.870  0.00  0.00     0.210 C 
ENDBRANCH   1  25
BRANCH   2  27
HETATM   27  O   UNK N   1      35.276   9.665  17.272  0.00  0.00    -0.353 OA
HETATM   28  C   UNK N   1      36.231   8.916  17.923  0.00  0.00     0.210 C 
ENDBRANCH   2  27
TORSDOF 6
ENDMDL
