REMARK  6 active torsions:
REMARK  status: ('A' for Active; 'I' for Inactive)
REMARK    1  A    between atoms: C_1  and  O_25 
REMARK    2  A    between atoms: C_2  and  O_27 
REMARK    3  A    between atoms: C_8  and  C_10 
REMARK    4  A    between atoms: C_10  and  C_11 
REMARK    5  A    between atoms: N_14  and  C_17 
REMARK    6  A    between atoms: C_17  and  C_18 
ROOT
HETATM    1  C   UNK N   1       4.768   1.837   0.154  0.00  0.00     0.102 A 
HETATM    2  C   UNK N   1       4.573   0.473  -0.174  0.00  0.00     0.102 A 
HETATM    3  C   UNK N   1       3.280   0.016  -0.512  0.00  0.00     0.047 A 
HETATM    4  C   UNK N   1       2.226   0.918  -0.504  0.00  0.00    -0.041 A 
HETATM    5  C   UNK N   1       2.415   2.229  -0.200  0.00  0.00     0.019 A 
HETATM    6  C   UNK N   1       3.672   2.728   0.135  0.00  0.00     0.055 A 
HETATM    7  C   UNK N   1       1.149   2.900  -0.211  0.00  0.00     0.164 C 
HETATM    8  C   UNK N   1       0.039   1.911  -0.417  0.00  0.00     0.065 C 
HETATM    9  C   UNK N   1       0.798   0.605  -0.787  0.00  0.00     0.052 C 
HETATM   10  O   UNK N   1       0.988   4.082   0.050  0.00  0.00    -0.292 OA
ENDROOT
BRANCH   8  11
HETATM   11  C   UNK N   1      -0.670   1.788   0.935  0.00  0.00     0.017 C 
BRANCH  11  12
HETATM   12  C   UNK N   1      -1.551   0.564   1.181  0.00  0.00    -0.010 C 
HETATM   13  C   UNK N   1      -0.815  -0.699   1.648  0.00  0.00     0.035 C 
HETATM   14  C   UNK N   1      -0.571  -1.700   0.507  0.00  0.00     0.273 C 
HETATM   15  N   UNK N   1      -1.798  -1.981  -0.244  0.00  0.00     0.092 N 
HETATM   16  C   UNK N   1      -2.267  -0.732  -0.870  0.00  0.00     0.273 C 
HETATM   17  C   UNK N   1      -2.659   0.328   0.163  0.00  0.00     0.035 C 
BRANCH  15  18
HETATM   18  C   UNK N   1      -2.762  -2.620   0.670  0.00  0.00     0.311 C 
BRANCH  18  19
HETATM   19  C   UNK N   1      -4.173  -2.621   0.177  0.00  0.00    -0.030 A 
HETATM   20  C   UNK N   1      -4.660  -3.678  -0.596  0.00  0.00     0.009 A 
HETATM   21  C   UNK N   1      -5.995  -3.676  -1.016  0.00  0.00     0.001 A 
HETATM   22  C   UNK N   1      -6.841  -2.619  -0.660  0.00  0.00     0.000 A 
HETATM   23  C   UNK N   1      -6.356  -1.568   0.121  0.00  0.00     0.001 A 
HETATM   24  C   UNK N   1      -5.027  -1.575   0.546  0.00  0.00     0.009 A 
ENDBRANCH  18  19
ENDBRANCH  15  18
ENDBRANCH  11  12
ENDBRANCH   8  11
BRANCH   1  25
HETATM   25  O   UNK N   1       6.009   2.261   0.499  0.00  0.00    -0.353 OA
HETATM   26  C   UNK N   1       6.282   3.553   0.887  0.00  0.00     0.210 C 
ENDBRANCH   1  25
BRANCH   2  27
HETATM   27  O   UNK N   1       5.626  -0.377  -0.144  0.00  0.00    -0.353 OA
HETATM   28  C   UNK N   1       5.518  -1.722  -0.418  0.00  0.00     0.210 C 
ENDBRANCH   2  27
TORSDOF 6
