REMARK  2 active torsions:
REMARK  status: ('A' for Active; 'I' for Inactive)
REMARK    1  A    between atoms: C_6  and  O_7 
REMARK    2  A    between atoms: C_17  and  O_18 
ROOT
HETATM    1  C   UNK N   1      -3.039   1.326   0.048  0.00  0.00     0.023 C 
HETATM    2  C   UNK N   1      -2.623   2.415  -0.964  0.00  0.00     0.010 C 
HETATM    3  C   UNK N   1      -1.188   2.961  -0.669  0.00  0.00     0.013 C 
HETATM    4  C   UNK N   1      -0.281   1.933   0.055  0.00  0.00    -0.011 C 
HETATM    5  C   UNK N   1      -0.437   2.090   1.577  0.00  0.00     0.018 C 
HETATM    6  C   UNK N   1       1.197   1.952  -0.333  0.00  0.00     0.155 C 
HETATM    7  C   UNK N   1       1.702   0.581   0.160  0.00  0.00     0.148 C 
HETATM    8  O   UNK N   1       1.955   0.610   1.535  0.00  0.00    -0.393 OA
HETATM    9  C   UNK N   1       0.522  -0.375  -0.081  0.00  0.00     0.040 C 
HETATM   10  C   UNK N   1      -0.653   0.538  -0.439  0.00  0.00     0.003 C 
HETATM   11  C   UNK N   1      -2.061   0.102   0.018  0.00  0.00    -0.001 C 
HETATM   12  C   UNK N   1      -2.560  -1.002  -0.907  0.00  0.00     0.010 C 
HETATM   13  C   UNK N   1      -3.916  -1.512  -0.441  0.00  0.00     0.039 C 
HETATM   14  C   UNK N   1      -4.906  -0.402  -0.253  0.00  0.00    -0.049 A 
HETATM   15  C   UNK N   1      -6.267  -0.721  -0.268  0.00  0.00     0.044 A 
HETATM   16  C   UNK N   1      -7.229   0.274  -0.092  0.00  0.00     0.066 A 
HETATM   17  C   UNK N   1      -6.836   1.601   0.093  0.00  0.00     0.037 A 
HETATM   18  C   UNK N   1      -5.479   1.931   0.119  0.00  0.00     0.011 A 
HETATM   19  C   UNK N   1      -4.500   0.939  -0.046  0.00  0.00    -0.047 A 
HETATM   20  H   UNK N   1       2.060   0.468   2.489  0.00  0.00     0.210 HD
ENDROOT
BRANCH   6  21
HETATM   21  O   UNK N   1       1.909   3.026   0.210  0.00  0.00    -0.392 OA
HETATM   22  H   UNK N   1       2.801   2.971   0.587  0.00  0.00     0.210 HD
ENDBRANCH   6  21
BRANCH  16  23
HETATM   23  O   UNK N   1      -8.533  -0.045  -0.099  0.00  0.00    -0.361 OA
HETATM   24  H   UNK N   1      -9.181   0.632  -0.104  0.00  0.00     0.217 HD
ENDBRANCH  16  23
TORSDOF 2
