MODEL 1
REMARK VINA RESULT:      -7.3      0.000      0.000
REMARK  2 active torsions:
REMARK  status: ('A' for Active; 'I' for Inactive)
REMARK    1  A    between atoms: C_6  and  O_7 
REMARK    2  A    between atoms: C_17  and  O_18 
ROOT
HETATM    1  C   UNK N   1      28.996  21.996  -6.358  0.00  0.00     0.023 C 
HETATM    2  C   UNK N   1      29.671  22.184  -7.733  0.00  0.00     0.010 C 
HETATM    3  C   UNK N   1      28.640  22.082  -8.904  0.00  0.00     0.013 C 
HETATM    4  C   UNK N   1      27.200  22.477  -8.484  0.00  0.00    -0.011 C 
HETATM    5  C   UNK N   1      26.450  21.232  -7.980  0.00  0.00     0.018 C 
HETATM    6  C   UNK N   1      26.371  23.207  -9.540  0.00  0.00     0.155 C 
HETATM    7  C   UNK N   1      25.245  23.855  -8.709  0.00  0.00     0.148 C 
HETATM    8  O   UNK N   1      24.245  22.923  -8.416  0.00  0.00    -0.393 OA
HETATM    9  C   UNK N   1      25.921  24.251  -7.386  0.00  0.00     0.040 C 
HETATM   10  C   UNK N   1      27.296  23.579  -7.433  0.00  0.00     0.003 C 
HETATM   11  C   UNK N   1      27.892  23.079  -6.101  0.00  0.00    -0.001 C 
HETATM   12  C   UNK N   1      28.437  24.273  -5.325  0.00  0.00     0.010 C 
HETATM   13  C   UNK N   1      28.966  23.828  -3.969  0.00  0.00     0.039 C 
HETATM   14  C   UNK N   1      29.944  22.698  -4.084  0.00  0.00    -0.049 A 
HETATM   15  C   UNK N   1      30.830  22.481  -3.025  0.00  0.00     0.044 A 
HETATM   16  C   UNK N   1      31.757  21.439  -3.080  0.00  0.00     0.066 A 
HETATM   17  C   UNK N   1      31.809  20.609  -4.201  0.00  0.00     0.037 A 
HETATM   18  C   UNK N   1      30.923  20.810  -5.262  0.00  0.00     0.011 A 
HETATM   19  C   UNK N   1      29.979  21.847  -5.216  0.00  0.00    -0.047 A 
HETATM   20  H   UNK N   1      23.547  22.355  -8.054  0.00  0.00     0.210 HD
ENDROOT
BRANCH   6  21
HETATM   21  O   UNK N   1      25.891  22.373 -10.556  0.00  0.00    -0.392 OA
HETATM   22  H   UNK N   1      25.237  21.667 -10.437  0.00  0.00     0.210 HD
ENDBRANCH   6  21
BRANCH  16  23
HETATM   23  O   UNK N   1      32.597  21.234  -2.053  0.00  0.00    -0.361 OA
HETATM   24  H   UNK N   1      33.164  21.923  -1.767  0.00  0.00     0.217 HD
ENDBRANCH  16  23
TORSDOF 2
ENDMDL
MODEL 2
REMARK VINA RESULT:      -7.3     21.686     25.671
REMARK  2 active torsions:
REMARK  status: ('A' for Active; 'I' for Inactive)
REMARK    1  A    between atoms: C_6  and  O_7 
REMARK    2  A    between atoms: C_17  and  O_18 
ROOT
HETATM    1  C   UNK N   1      35.594  11.274  16.049  0.00  0.00     0.023 C 
HETATM    2  C   UNK N   1      36.881  10.628  15.491  0.00  0.00     0.010 C 
HETATM    3  C   UNK N   1      36.866  10.564  13.929  0.00  0.00     0.013 C 
HETATM    4  C   UNK N   1      35.995  11.671  13.281  0.00  0.00    -0.011 C 
HETATM    5  C   UNK N   1      34.553  11.162  13.117  0.00  0.00     0.018 C 
HETATM    6  C   UNK N   1      36.510  12.244  11.962  0.00  0.00     0.155 C 
HETATM    7  C   UNK N   1      35.739  13.573  11.837  0.00  0.00     0.148 C 
HETATM    8  O   UNK N   1      34.444  13.353  11.356  0.00  0.00    -0.393 OA
HETATM    9  C   UNK N   1      35.622  14.090  13.280  0.00  0.00     0.040 C 
HETATM   10  C   UNK N   1      36.087  12.921  14.152  0.00  0.00     0.003 C 
HETATM   11  C   UNK N   1      35.407  12.739  15.525  0.00  0.00    -0.001 C 
HETATM   12  C   UNK N   1      35.976  13.767  16.497  0.00  0.00     0.010 C 
HETATM   13  C   UNK N   1      35.274  13.670  17.843  0.00  0.00     0.039 C 
HETATM   14  C   UNK N   1      35.279  12.272  18.387  0.00  0.00    -0.049 A 
HETATM   15  C   UNK N   1      35.088  12.097  19.760  0.00  0.00     0.044 A 
HETATM   16  C   UNK N   1      35.078  10.817  20.316  0.00  0.00     0.066 A 
HETATM   17  C   UNK N   1      35.268   9.700  19.500  0.00  0.00     0.037 A 
HETATM   18  C   UNK N   1      35.451   9.862  18.125  0.00  0.00     0.011 A 
HETATM   19  C   UNK N   1      35.453  11.143  17.551  0.00  0.00    -0.047 A 
HETATM   20  H   UNK N   1      33.499  13.324  11.139  0.00  0.00     0.210 HD
ENDROOT
BRANCH   6  21
HETATM   21  O   UNK N   1      36.321  11.396  10.866  0.00  0.00    -0.392 OA
HETATM   22  H   UNK N   1      36.636  10.480  10.809  0.00  0.00     0.210 HD
ENDBRANCH   6  21
BRANCH  16  23
HETATM   23  O   UNK N   1      34.884  10.660  21.635  0.00  0.00    -0.361 OA
HETATM   24  H   UNK N   1      35.618  10.641  22.217  0.00  0.00     0.217 HD
ENDBRANCH  16  23
TORSDOF 2
ENDMDL
MODEL 3
REMARK VINA RESULT:      -6.9     12.009     14.997
REMARK  2 active torsions:
REMARK  status: ('A' for Active; 'I' for Inactive)
REMARK    1  A    between atoms: C_6  and  O_7 
REMARK    2  A    between atoms: C_17  and  O_18 
ROOT
HETATM    1  C   UNK N   1      30.190  16.736   5.320  0.00  0.00     0.023 C 
HETATM    2  C   UNK N   1      30.695  15.278   5.333  0.00  0.00     0.010 C 
HETATM    3  C   UNK N   1      32.251  15.206   5.473  0.00  0.00     0.013 C 
HETATM    4  C   UNK N   1      32.855  16.433   6.203  0.00  0.00    -0.011 C 
HETATM    5  C   UNK N   1      33.197  17.526   5.177  0.00  0.00     0.018 C 
HETATM    6  C   UNK N   1      34.058  16.153   7.103  0.00  0.00     0.155 C 
HETATM    7  C   UNK N   1      34.112  17.401   8.007  0.00  0.00     0.148 C 
HETATM    8  O   UNK N   1      34.725  18.469   7.343  0.00  0.00    -0.393 OA
HETATM    9  C   UNK N   1      32.639  17.776   8.238  0.00  0.00     0.040 C 
HETATM   10  C   UNK N   1      31.855  16.900   7.257  0.00  0.00     0.003 C 
HETATM   11  C   UNK N   1      30.573  17.495   6.637  0.00  0.00    -0.001 C 
HETATM   12  C   UNK N   1      29.454  17.441   7.671  0.00  0.00     0.010 C 
HETATM   13  C   UNK N   1      28.192  18.089   7.121  0.00  0.00     0.039 C 
HETATM   14  C   UNK N   1      27.798  17.525   5.789  0.00  0.00    -0.049 A 
HETATM   15  C   UNK N   1      26.472  17.677   5.373  0.00  0.00     0.044 A 
HETATM   16  C   UNK N   1      26.055  17.175   4.140  0.00  0.00     0.066 A 
HETATM   17  C   UNK N   1      26.962  16.508   3.314  0.00  0.00     0.037 A 
HETATM   18  C   UNK N   1      28.291  16.357   3.715  0.00  0.00     0.011 A 
HETATM   19  C   UNK N   1      28.728  16.866   4.948  0.00  0.00    -0.047 A 
HETATM   20  H   UNK N   1      35.026  19.308   6.960  0.00  0.00     0.210 HD
ENDROOT
BRANCH   6  21
HETATM   21  O   UNK N   1      35.247  15.931   6.403  0.00  0.00    -0.392 OA
HETATM   22  H   UNK N   1      35.412  16.196   5.484  0.00  0.00     0.210 HD
ENDBRANCH   6  21
BRANCH  16  23
HETATM   23  O   UNK N   1      24.781  17.336   3.747  0.00  0.00    -0.361 OA
HETATM   24  H   UNK N   1      24.082  17.005   4.276  0.00  0.00     0.217 HD
ENDBRANCH  16  23
TORSDOF 2
ENDMDL
MODEL 4
REMARK VINA RESULT:      -6.8     12.362     16.056
REMARK  2 active torsions:
REMARK  status: ('A' for Active; 'I' for Inactive)
REMARK    1  A    between atoms: C_6  and  O_7 
REMARK    2  A    between atoms: C_17  and  O_18 
ROOT
HETATM    1  C   UNK N   1      34.584  15.207   7.243  0.00  0.00     0.023 C 
HETATM    2  C   UNK N   1      35.684  14.840   6.224  0.00  0.00     0.010 C 
HETATM    3  C   UNK N   1      35.085  14.509   4.819  0.00  0.00     0.013 C 
HETATM    4  C   UNK N   1      33.732  15.218   4.550  0.00  0.00    -0.011 C 
HETATM    5  C   UNK N   1      32.577  14.325   5.032  0.00  0.00     0.018 C 
HETATM    6  C   UNK N   1      33.488  15.674   3.112  0.00  0.00     0.155 C 
HETATM    7  C   UNK N   1      32.355  16.710   3.265  0.00  0.00     0.148 C 
HETATM    8  O   UNK N   1      31.115  16.075   3.386  0.00  0.00    -0.393 OA
HETATM    9  C   UNK N   1      32.654  17.415   4.598  0.00  0.00     0.040 C 
HETATM   10  C   UNK N   1      33.761  16.577   5.244  0.00  0.00     0.003 C 
HETATM   11  C   UNK N   1      33.762  16.459   6.782  0.00  0.00    -0.001 C 
HETATM   12  C   UNK N   1      34.312  17.751   7.376  0.00  0.00     0.010 C 
HETATM   13  C   UNK N   1      34.256  17.702   8.896  0.00  0.00     0.039 C 
HETATM   14  C   UNK N   1      34.908  16.469   9.448  0.00  0.00    -0.049 A 
HETATM   15  C   UNK N   1      35.330  16.486  10.781  0.00  0.00     0.044 A 
HETATM   16  C   UNK N   1      35.937  15.364  11.345  0.00  0.00     0.066 A 
HETATM   17  C   UNK N   1      36.134  14.215  10.576  0.00  0.00     0.037 A 
HETATM   18  C   UNK N   1      35.708  14.183   9.246  0.00  0.00     0.011 A 
HETATM   19  C   UNK N   1      35.086  15.301   8.668  0.00  0.00    -0.047 A 
HETATM   20  H   UNK N   1      30.220  15.760   3.589  0.00  0.00     0.210 HD
ENDROOT
BRANCH   6  21
HETATM   21  O   UNK N   1      33.163  14.632   2.238  0.00  0.00    -0.392 OA
HETATM   22  H   UNK N   1      33.672  14.385   1.450  0.00  0.00     0.210 HD
ENDBRANCH   6  21
BRANCH  16  23
HETATM   23  O   UNK N   1      36.331  15.388  12.628  0.00  0.00    -0.361 OA
HETATM   24  H   UNK N   1      36.048  14.716  13.217  0.00  0.00     0.217 HD
ENDBRANCH  16  23
TORSDOF 2
ENDMDL
MODEL 5
REMARK VINA RESULT:      -6.7     16.226     17.681
REMARK  2 active torsions:
REMARK  status: ('A' for Active; 'I' for Inactive)
REMARK    1  A    between atoms: C_6  and  O_7 
REMARK    2  A    between atoms: C_17  and  O_18 
ROOT
HETATM    1  C   UNK N   1      21.777  14.321   8.150  0.00  0.00     0.023 C 
HETATM    2  C   UNK N   1      20.740  13.739   7.165  0.00  0.00     0.010 C 
HETATM    3  C   UNK N   1      20.340  14.776   6.066  0.00  0.00     0.013 C 
HETATM    4  C   UNK N   1      21.451  15.818   5.777  0.00  0.00    -0.011 C 
HETATM    5  C   UNK N   1      21.273  17.032   6.704  0.00  0.00     0.018 C 
HETATM    6  C   UNK N   1      21.583  16.273   4.324  0.00  0.00     0.155 C 
HETATM    7  C   UNK N   1      22.996  16.889   4.282  0.00  0.00     0.148 C 
HETATM    8  O   UNK N   1      22.987  18.189   4.797  0.00  0.00    -0.393 OA
HETATM    9  C   UNK N   1      23.829  16.012   5.231  0.00  0.00     0.040 C 
HETATM   10  C   UNK N   1      22.804  15.133   5.950  0.00  0.00     0.003 C 
HETATM   11  C   UNK N   1      23.093  14.752   7.418  0.00  0.00    -0.001 C 
HETATM   12  C   UNK N   1      24.145  13.649   7.443  0.00  0.00     0.010 C 
HETATM   13  C   UNK N   1      24.514  13.300   8.878  0.00  0.00     0.039 C 
HETATM   14  C   UNK N   1      23.308  12.991   9.714  0.00  0.00    -0.049 A 
HETATM   15  C   UNK N   1      23.488  12.242  10.880  0.00  0.00     0.044 A 
HETATM   16  C   UNK N   1      22.400  11.931  11.697  0.00  0.00     0.066 A 
HETATM   17  C   UNK N   1      21.119  12.362  11.347  0.00  0.00     0.037 A 
HETATM   18  C   UNK N   1      20.928  13.119  10.189  0.00  0.00     0.011 A 
HETATM   19  C   UNK N   1      22.014  13.448   9.364  0.00  0.00    -0.047 A 
HETATM   20  H   UNK N   1      23.135  19.045   5.229  0.00  0.00     0.210 HD
ENDROOT
BRANCH   6  21
HETATM   21  O   UNK N   1      20.585  17.164   3.919  0.00  0.00    -0.392 OA
HETATM   22  H   UNK N   1      20.154  17.162   3.050  0.00  0.00     0.210 HD
ENDBRANCH   6  21
BRANCH  16  23
HETATM   23  O   UNK N   1      22.586  11.219  12.819  0.00  0.00    -0.361 OA
HETATM   24  H   UNK N   1      23.369  10.716  12.931  0.00  0.00     0.217 HD
ENDBRANCH  16  23
TORSDOF 2
ENDMDL
MODEL 6
REMARK VINA RESULT:      -6.7     12.214     15.584
REMARK  2 active torsions:
REMARK  status: ('A' for Active; 'I' for Inactive)
REMARK    1  A    between atoms: C_6  and  O_7 
REMARK    2  A    between atoms: C_17  and  O_18 
ROOT
HETATM    1  C   UNK N   1      29.759  16.641   6.694  0.00  0.00     0.023 C 
HETATM    2  C   UNK N   1      29.734  17.801   7.713  0.00  0.00     0.010 C 
HETATM    3  C   UNK N   1      30.970  17.757   8.670  0.00  0.00     0.013 C 
HETATM    4  C   UNK N   1      32.206  17.067   8.039  0.00  0.00    -0.011 C 
HETATM    5  C   UNK N   1      32.168  15.560   8.345  0.00  0.00     0.018 C 
HETATM    6  C   UNK N   1      33.566  17.652   8.417  0.00  0.00     0.155 C 
HETATM    7  C   UNK N   1      34.497  17.102   7.317  0.00  0.00     0.148 C 
HETATM    8  O   UNK N   1      34.870  15.783   7.595  0.00  0.00    -0.393 OA
HETATM    9  C   UNK N   1      33.629  17.087   6.048  0.00  0.00     0.040 C 
HETATM   10  C   UNK N   1      32.209  17.369   6.543  0.00  0.00     0.003 C 
HETATM   11  C   UNK N   1      31.044  16.685   5.797  0.00  0.00    -0.001 C 
HETATM   12  C   UNK N   1      30.796  17.423   4.487  0.00  0.00     0.010 C 
HETATM   13  C   UNK N   1      29.703  16.730   3.686  0.00  0.00     0.039 C 
HETATM   14  C   UNK N   1      28.457  16.518   4.492  0.00  0.00    -0.049 A 
HETATM   15  C   UNK N   1      27.254  16.317   3.808  0.00  0.00     0.044 A 
HETATM   16  C   UNK N   1      26.067  16.109   4.511  0.00  0.00     0.066 A 
HETATM   17  C   UNK N   1      26.073  16.108   5.907  0.00  0.00     0.037 A 
HETATM   18  C   UNK N   1      27.270  16.299   6.602  0.00  0.00     0.011 A 
HETATM   19  C   UNK N   1      28.473  16.498   5.908  0.00  0.00    -0.047 A 
HETATM   20  H   UNK N   1      35.109  14.843   7.615  0.00  0.00     0.210 HD
ENDROOT
BRANCH   6  21
HETATM   21  O   UNK N   1      33.986  17.317   9.708  0.00  0.00    -0.392 OA
HETATM   22  H   UNK N   1      34.554  16.563   9.932  0.00  0.00     0.210 HD
ENDBRANCH   6  21
BRANCH  16  23
HETATM   23  O   UNK N   1      24.919  15.908   3.844  0.00  0.00    -0.361 OA
HETATM   24  H   UNK N   1      24.596  15.038   3.720  0.00  0.00     0.217 HD
ENDBRANCH  16  23
TORSDOF 2
ENDMDL
MODEL 7
REMARK VINA RESULT:      -6.7     23.318     27.779
REMARK  2 active torsions:
REMARK  status: ('A' for Active; 'I' for Inactive)
REMARK    1  A    between atoms: C_6  and  O_7 
REMARK    2  A    between atoms: C_17  and  O_18 
ROOT
HETATM    1  C   UNK N   1      36.154  10.756  16.597  0.00  0.00     0.023 C 
HETATM    2  C   UNK N   1      35.164   9.589  16.396  0.00  0.00     0.010 C 
HETATM    3  C   UNK N   1      35.104   8.658  17.651  0.00  0.00     0.013 C 
HETATM    4  C   UNK N   1      35.464   9.388  18.970  0.00  0.00    -0.011 C 
HETATM    5  C   UNK N   1      36.979   9.289  19.217  0.00  0.00     0.018 C 
HETATM    6  C   UNK N   1      34.693   8.947  20.213  0.00  0.00     0.155 C 
HETATM    7  C   UNK N   1      34.912  10.120  21.190  0.00  0.00     0.148 C 
HETATM    8  O   UNK N   1      36.164  10.026  21.806  0.00  0.00    -0.393 OA
HETATM    9  C   UNK N   1      34.919  11.371  20.297  0.00  0.00     0.040 C 
HETATM   10  C   UNK N   1      34.973  10.829  18.867  0.00  0.00     0.003 C 
HETATM   11  C   UNK N   1      35.756  11.650  17.821  0.00  0.00    -0.001 C 
HETATM   12  C   UNK N   1      34.910  12.846  17.399  0.00  0.00     0.010 C 
HETATM   13  C   UNK N   1      35.681  13.724  16.424  0.00  0.00     0.039 C 
HETATM   14  C   UNK N   1      36.225  12.943  15.265  0.00  0.00    -0.049 A 
HETATM   15  C   UNK N   1      36.553  13.636  14.097  0.00  0.00     0.044 A 
HETATM   16  C   UNK N   1      37.067  12.958  12.992  0.00  0.00     0.066 A 
HETATM   17  C   UNK N   1      37.251  11.575  13.045  0.00  0.00     0.037 A 
HETATM   18  C   UNK N   1      36.936  10.872  14.210  0.00  0.00     0.011 A 
HETATM   19  C   UNK N   1      36.428  11.543  15.333  0.00  0.00    -0.047 A 
HETATM   20  H   UNK N   1      37.038  10.137  22.213  0.00  0.00     0.210 HD
ENDROOT
BRANCH   6  21
HETATM   21  O   UNK N   1      35.112   7.717  20.730  0.00  0.00    -0.392 OA
HETATM   22  H   UNK N   1      35.713   7.100  20.284  0.00  0.00     0.210 HD
ENDBRANCH   6  21
BRANCH  16  23
HETATM   23  O   UNK N   1      37.387  13.635  11.878  0.00  0.00    -0.361 OA
HETATM   24  H   UNK N   1      36.711  13.945  11.307  0.00  0.00     0.217 HD
ENDBRANCH  16  23
TORSDOF 2
ENDMDL
MODEL 8
REMARK VINA RESULT:      -6.5      2.250      6.564
REMARK  2 active torsions:
REMARK  status: ('A' for Active; 'I' for Inactive)
REMARK    1  A    between atoms: C_6  and  O_7 
REMARK    2  A    between atoms: C_17  and  O_18 
ROOT
HETATM    1  C   UNK N   1      29.374  23.445  -4.665  0.00  0.00     0.023 C 
HETATM    2  C   UNK N   1      30.643  24.319  -4.756  0.00  0.00     0.010 C 
HETATM    3  C   UNK N   1      31.904  23.567  -4.217  0.00  0.00     0.013 C 
HETATM    4  C   UNK N   1      31.794  22.025  -4.342  0.00  0.00    -0.011 C 
HETATM    5  C   UNK N   1      31.153  21.450  -3.068  0.00  0.00     0.018 C 
HETATM    6  C   UNK N   1      33.091  21.285  -4.666  0.00  0.00     0.155 C 
HETATM    7  C   UNK N   1      32.591  19.919  -5.177  0.00  0.00     0.148 C 
HETATM    8  O   UNK N   1      32.257  19.081  -4.108  0.00  0.00    -0.393 OA
HETATM    9  C   UNK N   1      31.298  20.242  -5.943  0.00  0.00     0.040 C 
HETATM   10  C   UNK N   1      30.999  21.704  -5.604  0.00  0.00     0.003 C 
HETATM   11  C   UNK N   1      29.518  22.124  -5.496  0.00  0.00    -0.001 C 
HETATM   12  C   UNK N   1      28.943  22.270  -6.899  0.00  0.00     0.010 C 
HETATM   13  C   UNK N   1      27.460  22.609  -6.833  0.00  0.00     0.039 C 
HETATM   14  C   UNK N   1      27.188  23.791  -5.953  0.00  0.00    -0.049 A 
HETATM   15  C   UNK N   1      25.988  24.486  -6.134  0.00  0.00     0.044 A 
HETATM   16  C   UNK N   1      25.683  25.591  -5.337  0.00  0.00     0.066 A 
HETATM   17  C   UNK N   1      26.582  26.014  -4.357  0.00  0.00     0.037 A 
HETATM   18  C   UNK N   1      27.780  25.323  -4.161  0.00  0.00     0.011 A 
HETATM   19  C   UNK N   1      28.095  24.204  -4.947  0.00  0.00    -0.047 A 
HETATM   20  H   UNK N   1      31.889  18.451  -3.469  0.00  0.00     0.210 HD
ENDROOT
BRANCH   6  21
HETATM   21  O   UNK N   1      33.966  21.177  -3.580  0.00  0.00    -0.392 OA
HETATM   22  H   UNK N   1      34.671  20.517  -3.494  0.00  0.00     0.210 HD
ENDBRANCH   6  21
BRANCH  16  23
HETATM   23  O   UNK N   1      24.524  26.245  -5.513  0.00  0.00    -0.361 OA
HETATM   24  H   UNK N   1      23.845  25.863  -6.034  0.00  0.00     0.217 HD
ENDBRANCH  16  23
TORSDOF 2
ENDMDL
MODEL 9
REMARK VINA RESULT:      -6.5     16.019     17.196
REMARK  2 active torsions:
REMARK  status: ('A' for Active; 'I' for Inactive)
REMARK    1  A    between atoms: C_6  and  O_7 
REMARK    2  A    between atoms: C_17  and  O_18 
ROOT
HETATM    1  C   UNK N   1      21.967  13.388   7.356  0.00  0.00     0.023 C 
HETATM    2  C   UNK N   1      21.248  12.192   6.696  0.00  0.00     0.010 C 
HETATM    3  C   UNK N   1      20.206  12.662   5.629  0.00  0.00     0.013 C 
HETATM    4  C   UNK N   1      20.555  14.034   4.997  0.00  0.00    -0.011 C 
HETATM    5  C   UNK N   1      19.916  15.160   5.826  0.00  0.00     0.018 C 
HETATM    6  C   UNK N   1      20.208  14.199   3.518  0.00  0.00     0.155 C 
HETATM    7  C   UNK N   1      21.070  15.405   3.093  0.00  0.00     0.148 C 
HETATM    8  O   UNK N   1      20.466  16.606   3.476  0.00  0.00    -0.393 OA
HETATM    9  C   UNK N   1      22.370  15.254   3.900  0.00  0.00     0.040 C 
HETATM   10  C   UNK N   1      22.074  14.147   4.914  0.00  0.00     0.003 C 
HETATM   11  C   UNK N   1      22.739  14.254   6.303  0.00  0.00    -0.001 C 
HETATM   12  C   UNK N   1      24.200  13.837   6.184  0.00  0.00     0.010 C 
HETATM   13  C   UNK N   1      24.910  14.003   7.520  0.00  0.00     0.039 C 
HETATM   14  C   UNK N   1      24.185  13.315   8.637  0.00  0.00    -0.049 A 
HETATM   15  C   UNK N   1      24.903  12.996   9.793  0.00  0.00     0.044 A 
HETATM   16  C   UNK N   1      24.274  12.361  10.864  0.00  0.00     0.066 A 
HETATM   17  C   UNK N   1      22.919  12.032  10.784  0.00  0.00     0.037 A 
HETATM   18  C   UNK N   1      22.189  12.354   9.638  0.00  0.00     0.011 A 
HETATM   19  C   UNK N   1      22.806  13.002   8.557  0.00  0.00    -0.047 A 
HETATM   20  H   UNK N   1      20.211  17.491   3.782  0.00  0.00     0.210 HD
ENDROOT
BRANCH   6  21
HETATM   21  O   UNK N   1      18.844  14.387   3.276  0.00  0.00    -0.392 OA
HETATM   22  H   UNK N   1      18.431  15.232   3.038  0.00  0.00     0.210 HD
ENDBRANCH   6  21
BRANCH  16  23
HETATM   23  O   UNK N   1      24.971  12.068  11.973  0.00  0.00    -0.361 OA
HETATM   24  H   UNK N   1      24.601  11.503  12.623  0.00  0.00     0.217 HD
ENDBRANCH  16  23
TORSDOF 2
ENDMDL
