REMARK  2 active torsions:
REMARK  status: ('A' for Active; 'I' for Inactive)
REMARK    1  A    between atoms: C_12  and  C_13 
REMARK    2  A    between atoms: C_20  and  O_21 
ROOT
HETATM    1  C   UNK N   1       1.197   2.112   2.316  0.00  0.00     0.012 C 
HETATM    2  C   UNK N   1       1.385   1.227   1.096  0.00  0.00     0.012 C 
HETATM    3  C   UNK N   1       2.890   0.948   0.962  0.00  0.00     0.018 C 
HETATM    4  C   UNK N   1       3.372   0.048  -0.192  0.00  0.00     0.056 C 
HETATM    5  C   UNK N   1       4.884  -0.049  -0.064  0.00  0.00     0.018 C 
HETATM    6  C   UNK N   1       2.731  -1.326  -0.172  0.00  0.00     0.152 C 
HETATM    7  O   UNK N   1       3.399  -2.324   0.063  0.00  0.00    -0.293 OA
HETATM    8  C   UNK N   1       1.296  -1.460  -0.483  0.00  0.00     0.047 C 
HETATM    9  C   UNK N   1       0.590  -2.550  -0.186  0.00  0.00    -0.016 C 
HETATM   10  C   UNK N   1      -0.849  -2.688  -0.602  0.00  0.00     0.034 C 
HETATM   11  C   UNK N   1      -1.326  -4.045  -0.105  0.00  0.00     0.017 C 
HETATM   12  C   UNK N   1      -1.783  -1.566  -0.077  0.00  0.00     0.138 C 
HETATM   13  O   UNK N   1      -1.321  -0.316  -0.481  0.00  0.00    -0.315 OA
HETATM   14  C   UNK N   1      -1.485   0.826   0.249  0.00  0.00     0.265 C 
HETATM   15  O   UNK N   1      -2.198   0.826   1.243  0.00  0.00    -0.265 OA
HETATM   16  C   UNK N   1      -0.749   2.091  -0.151  0.00  0.00     0.110 C 
HETATM   17  C   UNK N   1      -1.114   3.256   0.771  0.00  0.00     0.023 C 
HETATM   18  C   UNK N   1       0.783   1.861  -0.189  0.00  0.00     0.135 C 
ENDROOT
BRANCH  12  19
HETATM   19  C   UNK N   1      -3.190  -1.804  -0.645  0.00  0.00     0.029 C 
HETATM   20  C   UNK N   1      -4.222  -0.825  -0.115  0.00  0.00     0.007 C 
ENDBRANCH  12  19
BRANCH  18  21
HETATM   21  O   UNK N   1       1.440   3.061  -0.487  0.00  0.00    -0.394 OA
HETATM   22  H   UNK N   1       2.387   3.082  -0.695  0.00  0.00     0.210 HD
ENDBRANCH  18  21
TORSDOF 2
