MODEL 1
REMARK VINA RESULT:      -6.3      0.000      0.000
REMARK  2 active torsions:
REMARK  status: ('A' for Active; 'I' for Inactive)
REMARK    1  A    between atoms: C_12  and  C_13 
REMARK    2  A    between atoms: C_20  and  O_21 
ROOT
HETATM    1  C   UNK N   1      37.343  12.875  10.337  0.00  0.00     0.012 C 
HETATM    2  C   UNK N   1      36.024  12.252  10.761  0.00  0.00     0.012 C 
HETATM    3  C   UNK N   1      35.724  11.108   9.780  0.00  0.00     0.018 C 
HETATM    4  C   UNK N   1      34.442  10.279   9.988  0.00  0.00     0.056 C 
HETATM    5  C   UNK N   1      34.419   9.233   8.884  0.00  0.00     0.018 C 
HETATM    6  C   UNK N   1      34.376   9.632  11.357  0.00  0.00     0.152 C 
HETATM    7  O   UNK N   1      34.442   8.416  11.479  0.00  0.00    -0.293 OA
HETATM    8  C   UNK N   1      34.186  10.479  12.549  0.00  0.00     0.047 C 
HETATM    9  C   UNK N   1      34.430  10.051  13.787  0.00  0.00    -0.016 C 
HETATM   10  C   UNK N   1      34.136  10.912  14.985  0.00  0.00     0.034 C 
HETATM   11  C   UNK N   1      34.530  10.108  16.216  0.00  0.00     0.017 C 
HETATM   12  C   UNK N   1      34.861  12.284  14.987  0.00  0.00     0.138 C 
HETATM   13  O   UNK N   1      34.550  13.003  13.835  0.00  0.00    -0.315 OA
HETATM   14  C   UNK N   1      35.408  13.876  13.231  0.00  0.00     0.265 C 
HETATM   15  O   UNK N   1      36.458  14.187  13.776  0.00  0.00    -0.265 OA
HETATM   16  C   UNK N   1      35.077  14.432  11.858  0.00  0.00     0.110 C 
HETATM   17  C   UNK N   1      36.146  15.423  11.393  0.00  0.00     0.023 C 
HETATM   18  C   UNK N   1      34.874  13.295  10.825  0.00  0.00     0.135 C 
ENDROOT
BRANCH  12  19
HETATM   19  C   UNK N   1      34.403  13.070  16.225  0.00  0.00     0.029 C 
HETATM   20  C   UNK N   1      35.551  13.487  17.126  0.00  0.00     0.007 C 
ENDBRANCH  12  19
BRANCH  18  21
HETATM   21  O   UNK N   1      34.645  13.838   9.555  0.00  0.00    -0.394 OA
HETATM   22  H   UNK N   1      35.072  14.661   9.271  0.00  0.00     0.210 HD
ENDBRANCH  18  21
TORSDOF 2
ENDMDL
MODEL 2
REMARK VINA RESULT:      -6.3     13.774     15.971
REMARK  2 active torsions:
REMARK  status: ('A' for Active; 'I' for Inactive)
REMARK    1  A    between atoms: C_12  and  C_13 
REMARK    2  A    between atoms: C_20  and  O_21 
ROOT
HETATM    1  C   UNK N   1      21.416  17.407   5.887  0.00  0.00     0.012 C 
HETATM    2  C   UNK N   1      22.174  17.925   4.677  0.00  0.00     0.012 C 
HETATM    3  C   UNK N   1      21.302  19.007   4.021  0.00  0.00     0.018 C 
HETATM    4  C   UNK N   1      21.840  19.727   2.769  0.00  0.00     0.056 C 
HETATM    5  C   UNK N   1      20.776  20.732   2.356  0.00  0.00     0.018 C 
HETATM    6  C   UNK N   1      23.173  20.408   3.011  0.00  0.00     0.152 C 
HETATM    7  O   UNK N   1      23.263  21.629   2.994  0.00  0.00    -0.293 OA
HETATM    8  C   UNK N   1      24.378  19.586   3.225  0.00  0.00     0.047 C 
HETATM    9  C   UNK N   1      25.502  20.072   3.750  0.00  0.00    -0.016 C 
HETATM   10  C   UNK N   1      26.741  19.227   3.867  0.00  0.00     0.034 C 
HETATM   11  C   UNK N   1      27.815  20.101   4.498  0.00  0.00     0.017 C 
HETATM   12  C   UNK N   1      26.558  17.925   4.690  0.00  0.00     0.138 C 
HETATM   13  O   UNK N   1      25.537  17.145   4.152  0.00  0.00    -0.315 OA
HETATM   14  C   UNK N   1      24.730  16.333   4.895  0.00  0.00     0.265 C 
HETATM   15  O   UNK N   1      24.976  16.132   6.076  0.00  0.00    -0.265 OA
HETATM   16  C   UNK N   1      23.501  15.706   4.264  0.00  0.00     0.110 C 
HETATM   17  C   UNK N   1      22.772  14.799   5.257  0.00  0.00     0.023 C 
HETATM   18  C   UNK N   1      22.552  16.788   3.688  0.00  0.00     0.135 C 
ENDROOT
BRANCH  12  19
HETATM   19  C   UNK N   1      27.878  17.141   4.654  0.00  0.00     0.029 C 
HETATM   20  C   UNK N   1      28.121  16.440   3.329  0.00  0.00     0.007 C 
ENDBRANCH  12  19
BRANCH  18  21
HETATM   21  O   UNK N   1      21.394  16.187   3.180  0.00  0.00    -0.394 OA
HETATM   22  H   UNK N   1      20.510  16.490   3.441  0.00  0.00     0.210 HD
ENDBRANCH  18  21
TORSDOF 2
ENDMDL
MODEL 3
REMARK VINA RESULT:      -6.3     19.110     21.843
REMARK  2 active torsions:
REMARK  status: ('A' for Active; 'I' for Inactive)
REMARK    1  A    between atoms: C_12  and  C_13 
REMARK    2  A    between atoms: C_20  and  O_21 
ROOT
HETATM    1  C   UNK N   1      28.687  23.147  -2.054  0.00  0.00     0.012 C 
HETATM    2  C   UNK N   1      29.658  22.869  -3.188  0.00  0.00     0.012 C 
HETATM    3  C   UNK N   1      30.905  22.215  -2.571  0.00  0.00     0.018 C 
HETATM    4  C   UNK N   1      32.058  21.803  -3.506  0.00  0.00     0.056 C 
HETATM    5  C   UNK N   1      33.132  21.187  -2.623  0.00  0.00     0.018 C 
HETATM    6  C   UNK N   1      31.620  20.838  -4.590  0.00  0.00     0.152 C 
HETATM    7  O   UNK N   1      32.023  19.683  -4.599  0.00  0.00    -0.293 OA
HETATM    8  C   UNK N   1      30.733  21.314  -5.668  0.00  0.00     0.047 C 
HETATM    9  C   UNK N   1      30.053  20.490  -6.463  0.00  0.00    -0.016 C 
HETATM   10  C   UNK N   1      29.231  21.009  -7.610  0.00  0.00     0.034 C 
HETATM   11  C   UNK N   1      28.609  19.800  -8.293  0.00  0.00     0.017 C 
HETATM   12  C   UNK N   1      28.129  22.024  -7.208  0.00  0.00     0.138 C 
HETATM   13  O   UNK N   1      28.685  23.108  -6.532  0.00  0.00    -0.315 OA
HETATM   14  C   UNK N   1      28.036  23.807  -5.555  0.00  0.00     0.265 C 
HETATM   15  O   UNK N   1      26.851  23.602  -5.333  0.00  0.00    -0.265 OA
HETATM   16  C   UNK N   1      28.798  24.814  -4.715  0.00  0.00     0.110 C 
HETATM   17  C   UNK N   1      27.871  25.513  -3.718  0.00  0.00     0.023 C 
HETATM   18  C   UNK N   1      30.001  24.152  -3.996  0.00  0.00     0.135 C 
ENDROOT
BRANCH  12  19
HETATM   19  C   UNK N   1      27.435  22.515  -8.487  0.00  0.00     0.029 C 
HETATM   20  C   UNK N   1      25.928  22.334  -8.456  0.00  0.00     0.007 C 
ENDBRANCH  12  19
BRANCH  18  21
HETATM   21  O   UNK N   1      30.639  25.085  -3.171  0.00  0.00    -0.394 OA
HETATM   22  H   UNK N   1      31.454  25.532  -3.447  0.00  0.00     0.210 HD
ENDBRANCH  18  21
TORSDOF 2
ENDMDL
MODEL 4
REMARK VINA RESULT:      -6.3      6.714      9.944
REMARK  2 active torsions:
REMARK  status: ('A' for Active; 'I' for Inactive)
REMARK    1  A    between atoms: C_12  and  C_13 
REMARK    2  A    between atoms: C_20  and  O_21 
ROOT
HETATM    1  C   UNK N   1      33.871  18.217   7.966  0.00  0.00     0.012 C 
HETATM    2  C   UNK N   1      32.550  17.484   7.814  0.00  0.00     0.012 C 
HETATM    3  C   UNK N   1      31.525  18.199   8.708  0.00  0.00     0.018 C 
HETATM    4  C   UNK N   1      30.077  17.674   8.734  0.00  0.00     0.056 C 
HETATM    5  C   UNK N   1      29.307  18.573   9.688  0.00  0.00     0.018 C 
HETATM    6  C   UNK N   1      29.435  17.654   7.361  0.00  0.00     0.152 C 
HETATM    7  O   UNK N   1      28.503  18.402   7.095  0.00  0.00    -0.293 OA
HETATM    8  C   UNK N   1      29.913  16.690   6.352  0.00  0.00     0.047 C 
HETATM    9  C   UNK N   1      29.641  16.807   5.054  0.00  0.00    -0.016 C 
HETATM   10  C   UNK N   1      30.066  15.755   4.067  0.00  0.00     0.034 C 
HETATM   11  C   UNK N   1      29.587  16.212   2.697  0.00  0.00     0.017 C 
HETATM   12  C   UNK N   1      31.593  15.478   4.036  0.00  0.00     0.138 C 
HETATM   13  O   UNK N   1      32.049  15.114   5.300  0.00  0.00    -0.315 OA
HETATM   14  C   UNK N   1      33.301  15.397   5.766  0.00  0.00     0.265 C 
HETATM   15  O   UNK N   1      34.148  15.861   5.016  0.00  0.00    -0.265 OA
HETATM   16  C   UNK N   1      33.631  15.172   7.229  0.00  0.00     0.110 C 
HETATM   17  C   UNK N   1      35.095  15.508   7.522  0.00  0.00     0.023 C 
HETATM   18  C   UNK N   1      32.675  15.971   8.150  0.00  0.00     0.135 C 
ENDROOT
BRANCH  12  19
HETATM   19  C   UNK N   1      31.857  14.337   3.043  0.00  0.00     0.029 C 
HETATM   20  C   UNK N   1      31.390  12.984   3.550  0.00  0.00     0.007 C 
ENDBRANCH  12  19
BRANCH  18  21
HETATM   21  O   UNK N   1      33.049  15.805   9.489  0.00  0.00    -0.394 OA
HETATM   22  H   UNK N   1      33.185  14.924   9.871  0.00  0.00     0.210 HD
ENDBRANCH  18  21
TORSDOF 2
ENDMDL
MODEL 5
REMARK VINA RESULT:      -6.2     19.448     22.298
REMARK  2 active torsions:
REMARK  status: ('A' for Active; 'I' for Inactive)
REMARK    1  A    between atoms: C_12  and  C_13 
REMARK    2  A    between atoms: C_20  and  O_21 
ROOT
HETATM    1  C   UNK N   1      31.242  24.737  -3.832  0.00  0.00     0.012 C 
HETATM    2  C   UNK N   1      29.884  24.122  -4.122  0.00  0.00     0.012 C 
HETATM    3  C   UNK N   1      28.828  25.211  -3.876  0.00  0.00     0.018 C 
HETATM    4  C   UNK N   1      27.346  24.866  -4.117  0.00  0.00     0.056 C 
HETATM    5  C   UNK N   1      26.552  26.124  -3.802  0.00  0.00     0.018 C 
HETATM    6  C   UNK N   1      27.076  24.386  -5.529  0.00  0.00     0.152 C 
HETATM    7  O   UNK N   1      26.404  25.058  -6.300  0.00  0.00    -0.293 OA
HETATM    8  C   UNK N   1      27.594  23.074  -5.960  0.00  0.00     0.047 C 
HETATM    9  C   UNK N   1      27.684  22.716  -7.240  0.00  0.00    -0.016 C 
HETATM   10  C   UNK N   1      28.129  21.335  -7.637  0.00  0.00     0.034 C 
HETATM   11  C   UNK N   1      28.106  21.282  -9.157  0.00  0.00     0.017 C 
HETATM   12  C   UNK N   1      29.531  20.932  -7.107  0.00  0.00     0.138 C 
HETATM   13  O   UNK N   1      29.577  21.033  -5.719  0.00  0.00    -0.315 OA
HETATM   14  C   UNK N   1      30.703  21.358  -5.019  0.00  0.00     0.265 C 
HETATM   15  O   UNK N   1      31.784  21.426  -5.586  0.00  0.00    -0.265 OA
HETATM   16  C   UNK N   1      30.607  21.674  -3.538  0.00  0.00     0.110 C 
HETATM   17  C   UNK N   1      31.987  21.963  -2.946  0.00  0.00     0.023 C 
HETATM   18  C   UNK N   1      29.625  22.844  -3.276  0.00  0.00     0.135 C 
ENDROOT
BRANCH  12  19
HETATM   19  C   UNK N   1      29.807  19.482  -7.529  0.00  0.00     0.029 C 
HETATM   20  C   UNK N   1      31.109  19.319  -8.293  0.00  0.00     0.007 C 
ENDBRANCH  12  19
BRANCH  18  21
HETATM   21  O   UNK N   1      29.613  23.162  -1.913  0.00  0.00    -0.394 OA
HETATM   22  H   UNK N   1      29.314  24.029  -1.598  0.00  0.00     0.210 HD
ENDBRANCH  18  21
TORSDOF 2
ENDMDL
MODEL 6
REMARK VINA RESULT:      -6.1     12.645     13.850
REMARK  2 active torsions:
REMARK  status: ('A' for Active; 'I' for Inactive)
REMARK    1  A    between atoms: C_12  and  C_13 
REMARK    2  A    between atoms: C_20  and  O_21 
ROOT
HETATM    1  C   UNK N   1      23.082  13.667   4.638  0.00  0.00     0.012 C 
HETATM    2  C   UNK N   1      22.884  14.434   5.934  0.00  0.00     0.012 C 
HETATM    3  C   UNK N   1      22.146  15.736   5.585  0.00  0.00     0.018 C 
HETATM    4  C   UNK N   1      21.793  16.710   6.726  0.00  0.00     0.056 C 
HETATM    5  C   UNK N   1      21.073  17.886   6.085  0.00  0.00     0.018 C 
HETATM    6  C   UNK N   1      20.941  16.067   7.803  0.00  0.00     0.152 C 
HETATM    7  O   UNK N   1      19.781  16.418   7.976  0.00  0.00    -0.293 OA
HETATM    8  C   UNK N   1      21.534  15.039   8.678  0.00  0.00     0.047 C 
HETATM    9  C   UNK N   1      20.802  14.210   9.420  0.00  0.00    -0.016 C 
HETATM   10  C   UNK N   1      21.443  13.237  10.371  0.00  0.00     0.034 C 
HETATM   11  C   UNK N   1      20.317  12.467  11.045  0.00  0.00     0.017 C 
HETATM   12  C   UNK N   1      22.445  12.253   9.710  0.00  0.00     0.138 C 
HETATM   13  O   UNK N   1      23.448  12.951   9.044  0.00  0.00    -0.315 OA
HETATM   14  C   UNK N   1      24.072  12.494   7.918  0.00  0.00     0.265 C 
HETATM   15  O   UNK N   1      23.877  11.352   7.526  0.00  0.00    -0.265 OA
HETATM   16  C   UNK N   1      24.980  13.418   7.129  0.00  0.00     0.110 C 
HETATM   17  C   UNK N   1      25.609  12.690   5.940  0.00  0.00     0.023 C 
HETATM   18  C   UNK N   1      24.226  14.693   6.674  0.00  0.00     0.135 C 
ENDROOT
BRANCH  12  19
HETATM   19  C   UNK N   1      23.066  11.383  10.813  0.00  0.00     0.029 C 
HETATM   20  C   UNK N   1      24.193  12.077  11.557  0.00  0.00     0.007 C 
ENDBRANCH  12  19
BRANCH  18  21
HETATM   21  O   UNK N   1      25.065  15.490   5.887  0.00  0.00    -0.394 OA
HETATM   22  H   UNK N   1      25.036  16.458   5.936  0.00  0.00     0.210 HD
ENDBRANCH  18  21
TORSDOF 2
ENDMDL
MODEL 7
REMARK VINA RESULT:      -6.1      7.162      9.290
REMARK  2 active torsions:
REMARK  status: ('A' for Active; 'I' for Inactive)
REMARK    1  A    between atoms: C_12  and  C_13 
REMARK    2  A    between atoms: C_20  and  O_21 
ROOT
HETATM    1  C   UNK N   1      34.004  14.992   7.455  0.00  0.00     0.012 C 
HETATM    2  C   UNK N   1      33.203  15.660   6.351  0.00  0.00     0.012 C 
HETATM    3  C   UNK N   1      33.732  15.120   5.013  0.00  0.00     0.018 C 
HETATM    4  C   UNK N   1      33.079  15.616   3.709  0.00  0.00     0.056 C 
HETATM    5  C   UNK N   1      33.797  14.912   2.569  0.00  0.00     0.018 C 
HETATM    6  C   UNK N   1      31.586  15.352   3.662  0.00  0.00     0.152 C 
HETATM    7  O   UNK N   1      31.118  14.551   2.864  0.00  0.00    -0.293 OA
HETATM    8  C   UNK N   1      30.690  16.104   4.559  0.00  0.00     0.047 C 
HETATM    9  C   UNK N   1      29.438  15.726   4.814  0.00  0.00    -0.016 C 
HETATM   10  C   UNK N   1      28.523  16.567   5.661  0.00  0.00     0.034 C 
HETATM   11  C   UNK N   1      27.189  15.839   5.731  0.00  0.00     0.017 C 
HETATM   12  C   UNK N   1      29.052  16.857   7.090  0.00  0.00     0.138 C 
HETATM   13  O   UNK N   1      30.299  17.474   7.035  0.00  0.00    -0.315 OA
HETATM   14  C   UNK N   1      31.269  17.309   7.981  0.00  0.00     0.265 C 
HETATM   15  O   UNK N   1      31.021  16.719   9.023  0.00  0.00    -0.265 OA
HETATM   16  C   UNK N   1      32.672  17.826   7.722  0.00  0.00     0.110 C 
HETATM   17  C   UNK N   1      33.581  17.579   8.928  0.00  0.00     0.023 C 
HETATM   18  C   UNK N   1      33.268  17.211   6.431  0.00  0.00     0.135 C 
ENDROOT
BRANCH  12  19
HETATM   19  C   UNK N   1      28.050  17.782   7.797  0.00  0.00     0.029 C 
HETATM   20  C   UNK N   1      28.095  19.212   7.288  0.00  0.00     0.007 C 
ENDBRANCH  12  19
BRANCH  18  21
HETATM   21  O   UNK N   1      34.588  17.646   6.258  0.00  0.00    -0.394 OA
HETATM   22  H   UNK N   1      34.822  18.586   6.311  0.00  0.00     0.210 HD
ENDBRANCH  18  21
TORSDOF 2
ENDMDL
MODEL 8
REMARK VINA RESULT:      -5.9     19.009     21.960
REMARK  2 active torsions:
REMARK  status: ('A' for Active; 'I' for Inactive)
REMARK    1  A    between atoms: C_12  and  C_13 
REMARK    2  A    between atoms: C_20  and  O_21 
ROOT
HETATM    1  C   UNK N   1      33.521  22.985  -4.851  0.00  0.00     0.012 C 
HETATM    2  C   UNK N   1      32.006  22.961  -4.744  0.00  0.00     0.012 C 
HETATM    3  C   UNK N   1      31.558  24.359  -4.290  0.00  0.00     0.018 C 
HETATM    4  C   UNK N   1      30.051  24.629  -4.117  0.00  0.00     0.056 C 
HETATM    5  C   UNK N   1      29.919  26.078  -3.674  0.00  0.00     0.018 C 
HETATM    6  C   UNK N   1      29.259  24.369  -5.384  0.00  0.00     0.152 C 
HETATM    7  O   UNK N   1      28.725  25.290  -5.988  0.00  0.00    -0.293 OA
HETATM    8  C   UNK N   1      29.096  22.984  -5.864  0.00  0.00     0.047 C 
HETATM    9  C   UNK N   1      28.704  22.690  -7.102  0.00  0.00    -0.016 C 
HETATM   10  C   UNK N   1      28.459  21.268  -7.528  0.00  0.00     0.034 C 
HETATM   11  C   UNK N   1      28.022  21.311  -8.986  0.00  0.00     0.017 C 
HETATM   12  C   UNK N   1      29.680  20.325  -7.362  0.00  0.00     0.138 C 
HETATM   13  O   UNK N   1      30.121  20.324  -6.041  0.00  0.00    -0.315 OA
HETATM   14  C   UNK N   1      31.424  20.149  -5.676  0.00  0.00     0.265 C 
HETATM   15  O   UNK N   1      32.260  19.824  -6.508  0.00  0.00    -0.265 OA
HETATM   16  C   UNK N   1      31.847  20.396  -4.240  0.00  0.00     0.110 C 
HETATM   17  C   UNK N   1      33.334  20.095  -4.044  0.00  0.00     0.023 C 
HETATM   18  C   UNK N   1      31.501  21.839  -3.794  0.00  0.00     0.135 C 
ENDROOT
BRANCH  12  19
HETATM   19  C   UNK N   1      29.252  18.906  -7.764  0.00  0.00     0.029 C 
HETATM   20  C   UNK N   1      30.142  18.292  -8.830  0.00  0.00     0.007 C 
ENDBRANCH  12  19
BRANCH  18  21
HETATM   21  O   UNK N   1      31.969  22.063  -2.493  0.00  0.00    -0.394 OA
HETATM   22  H   UNK N   1      32.729  22.640  -2.320  0.00  0.00     0.210 HD
ENDBRANCH  18  21
TORSDOF 2
ENDMDL
MODEL 9
REMARK VINA RESULT:      -5.8      8.975     11.788
REMARK  2 active torsions:
REMARK  status: ('A' for Active; 'I' for Inactive)
REMARK    1  A    between atoms: C_12  and  C_13 
REMARK    2  A    between atoms: C_20  and  O_21 
ROOT
HETATM    1  C   UNK N   1      32.337  17.001   5.378  0.00  0.00     0.012 C 
HETATM    2  C   UNK N   1      30.955  16.829   5.984  0.00  0.00     0.012 C 
HETATM    3  C   UNK N   1      30.962  17.543   7.345  0.00  0.00     0.018 C 
HETATM    4  C   UNK N   1      29.667  17.547   8.180  0.00  0.00     0.056 C 
HETATM    5  C   UNK N   1      29.974  18.322   9.452  0.00  0.00     0.018 C 
HETATM    6  C   UNK N   1      28.492  18.153   7.439  0.00  0.00     0.152 C 
HETATM    7  O   UNK N   1      27.999  19.211   7.807  0.00  0.00    -0.293 OA
HETATM    8  C   UNK N   1      27.912  17.434   6.290  0.00  0.00     0.047 C 
HETATM    9  C   UNK N   1      27.110  18.018   5.400  0.00  0.00    -0.016 C 
HETATM   10  C   UNK N   1      26.463  17.231   4.294  0.00  0.00     0.034 C 
HETATM   11  C   UNK N   1      25.622  18.210   3.487  0.00  0.00     0.017 C 
HETATM   12  C   UNK N   1      27.457  16.485   3.366  0.00  0.00     0.138 C 
HETATM   13  O   UNK N   1      28.269  15.629   4.105  0.00  0.00    -0.315 OA
HETATM   14  C   UNK N   1      29.557  15.326   3.770  0.00  0.00     0.265 C 
HETATM   15  O   UNK N   1      30.015  15.684   2.694  0.00  0.00    -0.265 OA
HETATM   16  C   UNK N   1      30.438  14.577   4.753  0.00  0.00     0.110 C 
HETATM   17  C   UNK N   1      31.820  14.303   4.157  0.00  0.00     0.023 C 
HETATM   18  C   UNK N   1      30.545  15.335   6.101  0.00  0.00     0.135 C 
ENDROOT
BRANCH  12  19
HETATM   19  C   UNK N   1      26.647  15.674   2.344  0.00  0.00     0.029 C 
HETATM   20  C   UNK N   1      25.969  14.458   2.949  0.00  0.00     0.007 C 
ENDBRANCH  12  19
BRANCH  18  21
HETATM   21  O   UNK N   1      31.422  14.661   6.960  0.00  0.00    -0.394 OA
HETATM   22  H   UNK N   1      31.787  13.792   6.731  0.00  0.00     0.210 HD
ENDBRANCH  18  21
TORSDOF 2
ENDMDL
