MODEL 1
REMARK VINA RESULT:      -7.7      0.000      0.000
REMARK  4 active torsions:
REMARK  status: ('A' for Active; 'I' for Inactive)
REMARK       I    between atoms: C_6  and  N_7 
REMARK    1  A    between atoms: C_11  and  C_12 
REMARK    2  A    between atoms: C_12  and  C_13 
REMARK    3  A    between atoms: C_13  and  C_14 
REMARK    4  A    between atoms: C_17  and  O_18 
ROOT
HETATM    1  C   UNK N   1      31.237  17.208   7.784  0.00  0.00     0.051 A 
HETATM    2  C   UNK N   1      31.490  17.201   6.396  0.00  0.00     0.062 A 
HETATM    3  C   UNK N   1      32.763  16.926   5.876  0.00  0.00     0.272 A 
HETATM    4  O   UNK N   1      33.699  16.684   6.617  0.00  0.00    -0.267 OA
HETATM    5  N   UNK N   1      32.956  16.931   4.518  0.00  0.00    -0.156 N 
HETATM    6  C   UNK N   1      31.936  17.198   3.663  0.00  0.00     0.679 A 
HETATM    7  N   UNK N   1      32.162  17.197   2.273  0.00  0.00    -0.234 N 
HETATM    8  N   UNK N   1      30.696  17.466   4.142  0.00  0.00    -0.190 N 
ATOM      9  HN  UNK N   1      29.940  17.664   3.488  1.00  0.00     0.184 HD
HETATM   10  C   UNK N   1      30.438  17.476   5.479  0.00  0.00     0.073 A 
HETATM   11  C   UNK N   1      29.134  17.759   5.941  0.00  0.00    -0.001 A 
HETATM   12  C   UNK N   1      28.929  17.756   7.329  0.00  0.00     0.068 A 
HETATM   13  N   UNK N   1      27.801  17.990   8.017  0.00  0.00    -0.350 N 
ATOM     14  HN  UNK N   1      26.879  18.216   7.644  1.00  0.00     0.166 HD
HETATM   15  C   UNK N   1      28.164  17.859   9.320  0.00  0.00     0.181 A 
HETATM   16  N   UNK N   1      29.479  17.551   9.457  0.00  0.00    -0.350 N 
HETATM   17  C   UNK N   1      29.940  17.491   8.200  0.00  0.00     0.061 A 
HETATM   18  H   UNK N   1      33.852  16.739   4.157  0.00  0.00     0.187 HD
HETATM   19  H   UNK N   1      31.421  17.390   1.653  0.00  0.00     0.174 HD
HETATM   20  H   UNK N   1      33.060  17.003   1.920  0.00  0.00     0.174 HD
HETATM   21  H   UNK N   1      29.982  17.405  10.291  0.00  0.00     0.166 HD
ENDROOT
BRANCH  11  22
HETATM   22  C   UNK N   1      28.082  18.040   4.910  0.00  0.00     0.048 C 
BRANCH  22  23
HETATM   23  C   UNK N   1      27.812  19.449   4.399  0.00  0.00     0.043 C 
BRANCH  23  24
HETATM   24  C   UNK N   1      26.349  19.581   4.036  0.00  0.00    -0.058 A 
HETATM   25  C   UNK N   1      25.372  18.783   4.659  0.00  0.00     0.010 A 
HETATM   26  C   UNK N   1      24.027  18.907   4.323  0.00  0.00     0.037 A 
HETATM   27  C   UNK N   1      23.627  19.835   3.353  0.00  0.00     0.068 A 
HETATM   28  C   UNK N   1      24.595  20.634   2.727  0.00  0.00     0.037 A 
HETATM   29  C   UNK N   1      25.950  20.508   3.067  0.00  0.00     0.010 A 
BRANCH  27  30
HETATM   30  O   UNK N   1      22.325  19.974   3.008  0.00  0.00    -0.356 OA
HETATM   31  C   UNK N   1      21.300  19.339   3.674  0.00  0.00     0.210 C 
ENDBRANCH  27  30
ENDBRANCH  23  24
ENDBRANCH  22  23
ENDBRANCH  11  22
TORSDOF 4
ENDMDL
MODEL 2
REMARK VINA RESULT:      -7.6      1.172      3.898
REMARK  4 active torsions:
REMARK  status: ('A' for Active; 'I' for Inactive)
REMARK       I    between atoms: C_6  and  N_7 
REMARK    1  A    between atoms: C_11  and  C_12 
REMARK    2  A    between atoms: C_12  and  C_13 
REMARK    3  A    between atoms: C_13  and  C_14 
REMARK    4  A    between atoms: C_17  and  O_18 
ROOT
HETATM    1  C   UNK N   1      32.105  16.554   6.332  0.00  0.00     0.051 A 
HETATM    2  C   UNK N   1      30.986  16.965   7.087  0.00  0.00     0.062 A 
HETATM    3  C   UNK N   1      30.947  16.841   8.483  0.00  0.00     0.272 A 
HETATM    4  O   UNK N   1      31.890  16.367   9.093  0.00  0.00    -0.267 OA
HETATM    5  N   UNK N   1      29.835  17.256   9.170  0.00  0.00    -0.156 N 
HETATM    6  C   UNK N   1      28.766  17.788   8.524  0.00  0.00     0.679 A 
HETATM    7  N   UNK N   1      27.637  18.207   9.253  0.00  0.00    -0.234 N 
HETATM    8  N   UNK N   1      28.781  17.919   7.174  0.00  0.00    -0.190 N 
ATOM      9  HN  UNK N   1      27.971  18.320   6.703  1.00  0.00     0.184 HD
HETATM   10  C   UNK N   1      29.854  17.526   6.434  0.00  0.00     0.073 A 
HETATM   11  C   UNK N   1      29.833  17.677   5.030  0.00  0.00    -0.001 A 
HETATM   12  C   UNK N   1      30.967  17.254   4.321  0.00  0.00     0.068 A 
HETATM   13  N   UNK N   1      31.198  17.288   2.999  0.00  0.00    -0.350 N 
ATOM     14  HN  UNK N   1      30.578  17.632   2.266  1.00  0.00     0.166 HD
HETATM   15  C   UNK N   1      32.443  16.759   2.858  0.00  0.00     0.181 A 
HETATM   16  N   UNK N   1      32.985  16.401   4.050  0.00  0.00    -0.350 N 
HETATM   17  C   UNK N   1      32.047  16.719   4.952  0.00  0.00     0.061 A 
HETATM   18  H   UNK N   1      29.811  17.167  10.150  0.00  0.00     0.187 HD
HETATM   19  H   UNK N   1      26.862  18.592   8.784  0.00  0.00     0.174 HD
HETATM   20  H   UNK N   1      27.622  18.114  10.234  0.00  0.00     0.174 HD
HETATM   21  H   UNK N   1      33.869  15.999   4.215  0.00  0.00     0.166 HD
ENDROOT
BRANCH  11  22
HETATM   22  C   UNK N   1      28.601  18.277   4.419  0.00  0.00     0.048 C 
BRANCH  22  23
HETATM   23  C   UNK N   1      27.282  17.516   4.358  0.00  0.00     0.043 C 
BRANCH  23  24
HETATM   24  C   UNK N   1      26.173  18.465   3.962  0.00  0.00    -0.058 A 
HETATM   25  C   UNK N   1      26.456  19.690   3.329  0.00  0.00     0.010 A 
HETATM   26  C   UNK N   1      25.433  20.561   2.967  0.00  0.00     0.037 A 
HETATM   27  C   UNK N   1      24.098  20.225   3.229  0.00  0.00     0.068 A 
HETATM   28  C   UNK N   1      23.807  19.007   3.859  0.00  0.00     0.037 A 
HETATM   29  C   UNK N   1      24.839  18.130   4.224  0.00  0.00     0.010 A 
BRANCH  27  30
HETATM   30  O   UNK N   1      23.085  21.055   2.886  0.00  0.00    -0.356 OA
HETATM   31  C   UNK N   1      21.854  20.604   2.461  0.00  0.00     0.210 C 
ENDBRANCH  27  30
ENDBRANCH  23  24
ENDBRANCH  22  23
ENDBRANCH  11  22
TORSDOF 4
ENDMDL
MODEL 3
REMARK VINA RESULT:      -7.5      5.066      8.188
REMARK  4 active torsions:
REMARK  status: ('A' for Active; 'I' for Inactive)
REMARK       I    between atoms: C_6  and  N_7 
REMARK    1  A    between atoms: C_11  and  C_12 
REMARK    2  A    between atoms: C_12  and  C_13 
REMARK    3  A    between atoms: C_13  and  C_14 
REMARK    4  A    between atoms: C_17  and  O_18 
ROOT
HETATM    1  C   UNK N   1      23.608  20.463   2.727  0.00  0.00     0.051 A 
HETATM    2  C   UNK N   1      24.509  19.791   3.581  0.00  0.00     0.062 A 
HETATM    3  C   UNK N   1      25.885  20.060   3.564  0.00  0.00     0.272 A 
HETATM    4  O   UNK N   1      26.348  20.891   2.804  0.00  0.00    -0.267 OA
HETATM    5  N   UNK N   1      26.719  19.380   4.415  0.00  0.00    -0.156 N 
HETATM    6  C   UNK N   1      26.237  18.447   5.276  0.00  0.00     0.679 A 
HETATM    7  N   UNK N   1      27.115  17.762   6.138  0.00  0.00    -0.234 N 
HETATM    8  N   UNK N   1      24.910  18.170   5.310  0.00  0.00    -0.190 N 
ATOM      9  HN  UNK N   1      24.563  17.467   5.962  1.00  0.00     0.184 HD
HETATM   10  C   UNK N   1      24.030  18.810   4.492  0.00  0.00     0.073 A 
HETATM   11  C   UNK N   1      22.654  18.496   4.555  0.00  0.00    -0.001 A 
HETATM   12  C   UNK N   1      21.796  19.188   3.689  0.00  0.00     0.068 A 
HETATM   13  N   UNK N   1      20.466  19.078   3.551  0.00  0.00    -0.350 N 
ATOM     14  HN  UNK N   1      19.835  18.461   4.063  1.00  0.00     0.166 HD
HETATM   15  C   UNK N   1      20.148  19.973   2.579  0.00  0.00     0.181 A 
HETATM   16  N   UNK N   1      21.241  20.631   2.113  0.00  0.00    -0.350 N 
HETATM   17  C   UNK N   1      22.261  20.125   2.819  0.00  0.00     0.061 A 
HETATM   18  H   UNK N   1      27.684  19.571   4.400  0.00  0.00     0.187 HD
HETATM   19  H   UNK N   1      26.765  17.086   6.763  0.00  0.00     0.174 HD
HETATM   20  H   UNK N   1      28.080  17.960   6.117  0.00  0.00     0.174 HD
HETATM   21  H   UNK N   1      21.277  21.323   1.413  0.00  0.00     0.166 HD
ENDROOT
BRANCH  11  22
HETATM   22  C   UNK N   1      22.231  17.449   5.543  0.00  0.00     0.048 C 
BRANCH  22  23
HETATM   23  C   UNK N   1      21.219  17.745   6.644  0.00  0.00     0.043 C 
BRANCH  23  24
HETATM   24  C   UNK N   1      21.019  16.506   7.487  0.00  0.00    -0.058 A 
HETATM   25  C   UNK N   1      19.998  16.443   8.455  0.00  0.00     0.010 A 
HETATM   26  C   UNK N   1      19.817  15.302   9.229  0.00  0.00     0.037 A 
HETATM   27  C   UNK N   1      20.654  14.192   9.054  0.00  0.00     0.068 A 
HETATM   28  C   UNK N   1      21.673  14.246   8.092  0.00  0.00     0.037 A 
HETATM   29  C   UNK N   1      21.855  15.397   7.312  0.00  0.00     0.010 A 
BRANCH  27  30
HETATM   30  O   UNK N   1      20.498  13.070   9.795  0.00  0.00    -0.356 OA
HETATM   31  C   UNK N   1      21.548  12.418  10.403  0.00  0.00     0.210 C 
ENDBRANCH  27  30
ENDBRANCH  23  24
ENDBRANCH  22  23
ENDBRANCH  11  22
TORSDOF 4
ENDMDL
MODEL 4
REMARK VINA RESULT:      -7.4      6.301      8.755
REMARK  4 active torsions:
REMARK  status: ('A' for Active; 'I' for Inactive)
REMARK       I    between atoms: C_6  and  N_7 
REMARK    1  A    between atoms: C_11  and  C_12 
REMARK    2  A    between atoms: C_12  and  C_13 
REMARK    3  A    between atoms: C_13  and  C_14 
REMARK    4  A    between atoms: C_17  and  O_18 
ROOT
HETATM    1  C   UNK N   1      24.818  13.171   9.246  0.00  0.00     0.051 A 
HETATM    2  C   UNK N   1      23.641  12.824   9.944  0.00  0.00     0.062 A 
HETATM    3  C   UNK N   1      23.681  12.170  11.183  0.00  0.00     0.272 A 
HETATM    4  O   UNK N   1      24.744  11.878  11.700  0.00  0.00    -0.267 OA
HETATM    5  N   UNK N   1      22.508  11.854  11.821  0.00  0.00    -0.156 N 
HETATM    6  C   UNK N   1      21.304  12.164  11.275  0.00  0.00     0.679 A 
HETATM    7  N   UNK N   1      20.115  11.829  11.951  0.00  0.00    -0.234 N 
HETATM    8  N   UNK N   1      21.241  12.797  10.076  0.00  0.00    -0.190 N 
ATOM      9  HN  UNK N   1      20.330  13.023   9.679  1.00  0.00     0.184 HD
HETATM   10  C   UNK N   1      22.368  13.137   9.393  0.00  0.00     0.073 A 
HETATM   11  C   UNK N   1      22.263  13.795   8.148  0.00  0.00    -0.001 A 
HETATM   12  C   UNK N   1      23.458  14.121   7.490  0.00  0.00     0.068 A 
HETATM   13  N   UNK N   1      23.633  14.739   6.312  0.00  0.00    -0.350 N 
ATOM     14  HN  UNK N   1      22.914  15.086   5.677  1.00  0.00     0.166 HD
HETATM   15  C   UNK N   1      24.983  14.797   6.155  0.00  0.00     0.181 A 
HETATM   16  N   UNK N   1      25.644  14.235   7.199  0.00  0.00    -0.350 N 
HETATM   17  C   UNK N   1      24.673  13.818   8.023  0.00  0.00     0.061 A 
HETATM   18  H   UNK N   1      22.540  11.395  12.691  0.00  0.00     0.187 HD
HETATM   19  H   UNK N   1      19.243  12.054  11.554  0.00  0.00     0.174 HD
HETATM   20  H   UNK N   1      20.156  11.369  12.821  0.00  0.00     0.174 HD
HETATM   21  H   UNK N   1      26.618  14.152   7.323  0.00  0.00     0.166 HD
ENDROOT
BRANCH  11  22
HETATM   22  C   UNK N   1      20.884  14.089   7.637  0.00  0.00     0.048 C 
BRANCH  22  23
HETATM   23  C   UNK N   1      20.215  15.440   7.860  0.00  0.00     0.043 C 
BRANCH  23  24
HETATM   24  C   UNK N   1      20.417  16.309   6.639  0.00  0.00    -0.058 A 
HETATM   25  C   UNK N   1      19.822  15.981   5.407  0.00  0.00     0.010 A 
HETATM   26  C   UNK N   1      20.011  16.783   4.286  0.00  0.00     0.037 A 
HETATM   27  C   UNK N   1      20.802  17.937   4.372  0.00  0.00     0.068 A 
HETATM   28  C   UNK N   1      21.399  18.271   5.596  0.00  0.00     0.037 A 
HETATM   29  C   UNK N   1      21.208  17.461   6.725  0.00  0.00     0.010 A 
BRANCH  27  30
HETATM   30  O   UNK N   1      21.001  18.734   3.295  0.00  0.00    -0.356 OA
HETATM   31  C   UNK N   1      20.577  20.044   3.241  0.00  0.00     0.210 C 
ENDBRANCH  27  30
ENDBRANCH  23  24
ENDBRANCH  22  23
ENDBRANCH  11  22
TORSDOF 4
ENDMDL
MODEL 5
REMARK VINA RESULT:      -7.3      5.941      9.332
REMARK  4 active torsions:
REMARK  status: ('A' for Active; 'I' for Inactive)
REMARK       I    between atoms: C_6  and  N_7 
REMARK    1  A    between atoms: C_11  and  C_12 
REMARK    2  A    between atoms: C_12  and  C_13 
REMARK    3  A    between atoms: C_13  and  C_14 
REMARK    4  A    between atoms: C_17  and  O_18 
ROOT
HETATM    1  C   UNK N   1      23.740  18.690   4.263  0.00  0.00     0.051 A 
HETATM    2  C   UNK N   1      22.422  18.756   3.763  0.00  0.00     0.062 A 
HETATM    3  C   UNK N   1      21.955  19.870   3.051  0.00  0.00     0.272 A 
HETATM    4  O   UNK N   1      22.682  20.824   2.840  0.00  0.00    -0.267 OA
HETATM    5  N   UNK N   1      20.665  19.885   2.586  0.00  0.00    -0.156 N 
HETATM    6  C   UNK N   1      19.826  18.839   2.803  0.00  0.00     0.679 A 
HETATM    7  N   UNK N   1      18.506  18.880   2.314  0.00  0.00    -0.234 N 
HETATM    8  N   UNK N   1      20.256  17.751   3.489  0.00  0.00    -0.190 N 
ATOM      9  HN  UNK N   1      19.614  16.974   3.644  1.00  0.00     0.184 HD
HETATM   10  C   UNK N   1      21.524  17.674   3.976  0.00  0.00     0.073 A 
HETATM   11  C   UNK N   1      21.936  16.525   4.687  0.00  0.00    -0.001 A 
HETATM   12  C   UNK N   1      23.254  16.502   5.165  0.00  0.00     0.068 A 
HETATM   13  N   UNK N   1      23.885  15.543   5.860  0.00  0.00    -0.350 N 
ATOM     14  HN  UNK N   1      23.509  14.646   6.167  1.00  0.00     0.166 HD
HETATM   15  C   UNK N   1      25.136  16.036   6.061  0.00  0.00     0.181 A 
HETATM   16  N   UNK N   1      25.296  17.268   5.513  0.00  0.00    -0.350 N 
HETATM   17  C   UNK N   1      24.108  17.541   4.957  0.00  0.00     0.061 A 
HETATM   18  H   UNK N   1      20.340  20.669   2.086  0.00  0.00     0.187 HD
HETATM   19  H   UNK N   1      17.899  18.122   2.472  0.00  0.00     0.174 HD
HETATM   20  H   UNK N   1      18.190  19.668   1.815  0.00  0.00     0.174 HD
HETATM   21  H   UNK N   1      26.103  17.832   5.521  0.00  0.00     0.166 HD
ENDROOT
BRANCH  11  22
HETATM   22  C   UNK N   1      20.929  15.429   4.869  0.00  0.00     0.048 C 
BRANCH  22  23
HETATM   23  C   UNK N   1      19.916  15.448   6.006  0.00  0.00     0.043 C 
BRANCH  23  24
HETATM   24  C   UNK N   1      20.450  14.640   7.168  0.00  0.00    -0.058 A 
HETATM   25  C   UNK N   1      20.406  15.141   8.483  0.00  0.00     0.010 A 
HETATM   26  C   UNK N   1      20.898  14.395   9.549  0.00  0.00     0.037 A 
HETATM   27  C   UNK N   1      21.449  13.126   9.325  0.00  0.00     0.068 A 
HETATM   28  C   UNK N   1      21.497  12.619   8.019  0.00  0.00     0.037 A 
HETATM   29  C   UNK N   1      21.000  13.372   6.945  0.00  0.00     0.010 A 
BRANCH  27  30
HETATM   30  O   UNK N   1      21.934  12.381  10.346  0.00  0.00    -0.356 OA
HETATM   31  C   UNK N   1      22.983  11.499  10.201  0.00  0.00     0.210 C 
ENDBRANCH  27  30
ENDBRANCH  23  24
ENDBRANCH  22  23
ENDBRANCH  11  22
TORSDOF 4
ENDMDL
MODEL 6
REMARK VINA RESULT:      -7.2     12.499     14.028
REMARK  4 active torsions:
REMARK  status: ('A' for Active; 'I' for Inactive)
REMARK       I    between atoms: C_6  and  N_7 
REMARK    1  A    between atoms: C_11  and  C_12 
REMARK    2  A    between atoms: C_12  and  C_13 
REMARK    3  A    between atoms: C_13  and  C_14 
REMARK    4  A    between atoms: C_17  and  O_18 
ROOT
HETATM    1  C   UNK N   1      29.201  22.845  -6.312  0.00  0.00     0.051 A 
HETATM    2  C   UNK N   1      27.882  22.537  -6.708  0.00  0.00     0.062 A 
HETATM    3  C   UNK N   1      27.602  21.501  -7.610  0.00  0.00     0.272 A 
HETATM    4  O   UNK N   1      28.500  20.828  -8.084  0.00  0.00    -0.267 OA
HETATM    5  N   UNK N   1      26.302  21.242  -7.963  0.00  0.00    -0.156 N 
HETATM    6  C   UNK N   1      25.276  21.972  -7.455  0.00  0.00     0.679 A 
HETATM    7  N   UNK N   1      23.951  21.686  -7.834  0.00  0.00    -0.234 N 
HETATM    8  N   UNK N   1      25.523  22.980  -6.581  0.00  0.00    -0.190 N 
ATOM      9  HN  UNK N   1      24.742  23.519  -6.208  1.00  0.00     0.184 HD
HETATM   10  C   UNK N   1      26.790  23.287  -6.191  0.00  0.00     0.073 A 
HETATM   11  C   UNK N   1      27.008  24.343  -5.279  0.00  0.00    -0.001 A 
HETATM   12  C   UNK N   1      28.335  24.613  -4.913  0.00  0.00     0.068 A 
HETATM   13  N   UNK N   1      28.807  25.549  -4.076  0.00  0.00    -0.350 N 
ATOM     14  HN  UNK N   1      28.273  26.241  -3.549  1.00  0.00     0.166 HD
HETATM   15  C   UNK N   1      30.155  25.369  -4.087  0.00  0.00     0.181 A 
HETATM   16  N   UNK N   1      30.527  24.351  -4.906  0.00  0.00    -0.350 N 
HETATM   17  C   UNK N   1      29.376  23.892  -5.412  0.00  0.00     0.061 A 
HETATM   18  H   UNK N   1      26.109  20.514  -8.597  0.00  0.00     0.187 HD
HETATM   19  H   UNK N   1      23.207  22.216  -7.466  0.00  0.00     0.174 HD
HETATM   20  H   UNK N   1      23.767  20.955  -8.469  0.00  0.00     0.174 HD
HETATM   21  H   UNK N   1      31.439  24.024  -5.086  0.00  0.00     0.166 HD
ENDROOT
BRANCH  11  22
HETATM   22  C   UNK N   1      25.803  25.084  -4.780  0.00  0.00     0.048 C 
BRANCH  22  23
HETATM   23  C   UNK N   1      25.199  26.249  -5.553  0.00  0.00     0.043 C 
BRANCH  23  24
HETATM   24  C   UNK N   1      25.936  27.522  -5.203  0.00  0.00    -0.058 A 
HETATM   25  C   UNK N   1      26.931  28.042  -6.052  0.00  0.00     0.010 A 
HETATM   26  C   UNK N   1      27.607  29.213  -5.726  0.00  0.00     0.037 A 
HETATM   27  C   UNK N   1      27.304  29.894  -4.539  0.00  0.00     0.068 A 
HETATM   28  C   UNK N   1      26.315  29.382  -3.687  0.00  0.00     0.037 A 
HETATM   29  C   UNK N   1      25.634  28.202  -4.017  0.00  0.00     0.010 A 
BRANCH  27  30
HETATM   30  O   UNK N   1      27.949  31.036  -4.199  0.00  0.00    -0.356 OA
HETATM   31  C   UNK N   1      29.034  31.062  -3.351  0.00  0.00     0.210 C 
ENDBRANCH  27  30
ENDBRANCH  23  24
ENDBRANCH  22  23
ENDBRANCH  11  22
TORSDOF 4
ENDMDL
MODEL 7
REMARK VINA RESULT:      -7.1      3.602      7.807
REMARK  4 active torsions:
REMARK  status: ('A' for Active; 'I' for Inactive)
REMARK       I    between atoms: C_6  and  N_7 
REMARK    1  A    between atoms: C_11  and  C_12 
REMARK    2  A    between atoms: C_12  and  C_13 
REMARK    3  A    between atoms: C_13  and  C_14 
REMARK    4  A    between atoms: C_17  and  O_18 
ROOT
HETATM    1  C   UNK N   1      21.244  18.191   4.960  0.00  0.00     0.051 A 
HETATM    2  C   UNK N   1      22.390  17.461   5.339  0.00  0.00     0.062 A 
HETATM    3  C   UNK N   1      22.329  16.418   6.274  0.00  0.00     0.272 A 
HETATM    4  O   UNK N   1      21.271  16.109   6.793  0.00  0.00    -0.267 OA
HETATM    5  N   UNK N   1      23.472  15.739   6.608  0.00  0.00    -0.156 N 
HETATM    6  C   UNK N   1      24.668  16.057   6.049  0.00  0.00     0.679 A 
HETATM    7  N   UNK N   1      25.828  15.343   6.410  0.00  0.00    -0.234 N 
HETATM    8  N   UNK N   1      24.752  17.062   5.142  0.00  0.00    -0.190 N 
ATOM      9  HN  UNK N   1      25.657  17.289   4.731  1.00  0.00     0.184 HD
HETATM   10  C   UNK N   1      23.654  17.774   4.768  0.00  0.00     0.073 A 
HETATM   11  C   UNK N   1      23.780  18.814   3.821  0.00  0.00    -0.001 A 
HETATM   12  C   UNK N   1      22.615  19.513   3.474  0.00  0.00     0.068 A 
HETATM   13  N   UNK N   1      22.464  20.530   2.612  0.00  0.00    -0.350 N 
ATOM     14  HN  UNK N   1      23.184  20.980   2.047  1.00  0.00     0.166 HD
HETATM   15  C   UNK N   1      21.138  20.824   2.660  0.00  0.00     0.181 A 
HETATM   16  N   UNK N   1      20.467  20.020   3.526  0.00  0.00    -0.350 N 
HETATM   17  C   UNK N   1      21.408  19.208   4.024  0.00  0.00     0.061 A 
HETATM   18  H   UNK N   1      23.425  15.007   7.265  0.00  0.00     0.187 HD
HETATM   19  H   UNK N   1      26.695  15.574   6.004  0.00  0.00     0.174 HD
HETATM   20  H   UNK N   1      25.772  14.613   7.068  0.00  0.00     0.174 HD
HETATM   21  H   UNK N   1      19.505  20.032   3.739  0.00  0.00     0.166 HD
ENDROOT
BRANCH  11  22
HETATM   22  C   UNK N   1      25.149  19.081   3.267  0.00  0.00     0.048 C 
BRANCH  22  23
HETATM   23  C   UNK N   1      25.977  20.279   3.713  0.00  0.00     0.043 C 
BRANCH  23  24
HETATM   24  C   UNK N   1      26.732  19.926   4.975  0.00  0.00    -0.058 A 
HETATM   25  C   UNK N   1      26.534  20.649   6.167  0.00  0.00     0.010 A 
HETATM   26  C   UNK N   1      27.231  20.321   7.325  0.00  0.00     0.037 A 
HETATM   27  C   UNK N   1      28.145  19.259   7.320  0.00  0.00     0.068 A 
HETATM   28  C   UNK N   1      28.348  18.534   6.138  0.00  0.00     0.037 A 
HETATM   29  C   UNK N   1      27.645  18.865   4.970  0.00  0.00     0.010 A 
BRANCH  27  30
HETATM   30  O   UNK N   1      28.835  18.921   8.435  0.00  0.00    -0.356 OA
HETATM   31  C   UNK N   1      29.883  18.027   8.429  0.00  0.00     0.210 C 
ENDBRANCH  27  30
ENDBRANCH  23  24
ENDBRANCH  22  23
ENDBRANCH  11  22
TORSDOF 4
ENDMDL
MODEL 8
REMARK VINA RESULT:      -7.1     12.268     13.869
REMARK  4 active torsions:
REMARK  status: ('A' for Active; 'I' for Inactive)
REMARK       I    between atoms: C_6  and  N_7 
REMARK    1  A    between atoms: C_11  and  C_12 
REMARK    2  A    between atoms: C_12  and  C_13 
REMARK    3  A    between atoms: C_13  and  C_14 
REMARK    4  A    between atoms: C_17  and  O_18 
ROOT
HETATM    1  C   UNK N   1      28.256  21.817  -7.164  0.00  0.00     0.051 A 
HETATM    2  C   UNK N   1      28.805  22.723  -6.231  0.00  0.00     0.062 A 
HETATM    3  C   UNK N   1      30.160  22.689  -5.875  0.00  0.00     0.272 A 
HETATM    4  O   UNK N   1      30.913  21.867  -6.366  0.00  0.00    -0.267 OA
HETATM    5  N   UNK N   1      30.644  23.592  -4.963  0.00  0.00    -0.156 N 
HETATM    6  C   UNK N   1      29.834  24.522  -4.395  0.00  0.00     0.679 A 
HETATM    7  N   UNK N   1      30.356  25.438  -3.461  0.00  0.00    -0.234 N 
HETATM    8  N   UNK N   1      28.519  24.574  -4.724  0.00  0.00    -0.190 N 
ATOM      9  HN  UNK N   1      27.923  25.278  -4.289  1.00  0.00     0.184 HD
HETATM   10  C   UNK N   1      27.978  23.706  -5.622  0.00  0.00     0.073 A 
HETATM   11  C   UNK N   1      26.604  23.790  -5.940  0.00  0.00    -0.001 A 
HETATM   12  C   UNK N   1      26.102  22.870  -6.872  0.00  0.00     0.068 A 
HETATM   13  N   UNK N   1      24.852  22.738  -7.341  0.00  0.00    -0.350 N 
ATOM     14  HN  UNK N   1      24.032  23.295  -7.096  1.00  0.00     0.166 HD
HETATM   15  C   UNK N   1      24.922  21.698  -8.213  0.00  0.00     0.181 A 
HETATM   16  N   UNK N   1      26.177  21.185  -8.297  0.00  0.00    -0.350 N 
HETATM   17  C   UNK N   1      26.899  21.932  -7.451  0.00  0.00     0.061 A 
HETATM   18  H   UNK N   1      31.597  23.566  -4.715  0.00  0.00     0.187 HD
HETATM   19  H   UNK N   1      29.768  26.112  -3.050  0.00  0.00     0.174 HD
HETATM   20  H   UNK N   1      31.310  25.404  -3.219  0.00  0.00     0.174 HD
HETATM   21  H   UNK N   1      26.486  20.434  -8.854  0.00  0.00     0.166 HD
ENDROOT
BRANCH  11  22
HETATM   22  C   UNK N   1      25.801  24.856  -5.254  0.00  0.00     0.048 C 
BRANCH  22  23
HETATM   23  C   UNK N   1      25.268  26.070  -6.005  0.00  0.00     0.043 C 
BRANCH  23  24
HETATM   24  C   UNK N   1      25.917  27.322  -5.459  0.00  0.00    -0.058 A 
HETATM   25  C   UNK N   1      25.533  27.857  -4.216  0.00  0.00     0.010 A 
HETATM   26  C   UNK N   1      26.132  29.010  -3.717  0.00  0.00     0.037 A 
HETATM   27  C   UNK N   1      27.134  29.656  -4.453  0.00  0.00     0.068 A 
HETATM   28  C   UNK N   1      27.523  29.130  -5.693  0.00  0.00     0.037 A 
HETATM   29  C   UNK N   1      26.918  27.968  -6.194  0.00  0.00     0.010 A 
BRANCH  27  30
HETATM   30  O   UNK N   1      27.732  30.779  -3.989  0.00  0.00    -0.356 OA
HETATM   31  C   UNK N   1      28.010  30.987  -2.656  0.00  0.00     0.210 C 
ENDBRANCH  27  30
ENDBRANCH  23  24
ENDBRANCH  22  23
ENDBRANCH  11  22
TORSDOF 4
ENDMDL
MODEL 9
REMARK VINA RESULT:      -7.1      8.440     10.709
REMARK  4 active torsions:
REMARK  status: ('A' for Active; 'I' for Inactive)
REMARK       I    between atoms: C_6  and  N_7 
REMARK    1  A    between atoms: C_11  and  C_12 
REMARK    2  A    between atoms: C_12  and  C_13 
REMARK    3  A    between atoms: C_13  and  C_14 
REMARK    4  A    between atoms: C_17  and  O_18 
ROOT
HETATM    1  C   UNK N   1      19.919  15.257   1.682  0.00  0.00     0.051 A 
HETATM    2  C   UNK N   1      20.110  16.620   1.993  0.00  0.00     0.062 A 
HETATM    3  C   UNK N   1      20.266  17.592   0.994  0.00  0.00     0.272 A 
HETATM    4  O   UNK N   1      20.241  17.284  -0.184  0.00  0.00    -0.267 OA
HETATM    5  N   UNK N   1      20.449  18.904   1.349  0.00  0.00    -0.156 N 
HETATM    6  C   UNK N   1      20.482  19.283   2.652  0.00  0.00     0.679 A 
HETATM    7  N   UNK N   1      20.671  20.638   2.989  0.00  0.00    -0.234 N 
HETATM    8  N   UNK N   1      20.333  18.361   3.635  0.00  0.00    -0.190 N 
ATOM      9  HN  UNK N   1      20.360  18.661   4.609  1.00  0.00     0.184 HD
HETATM   10  C   UNK N   1      20.148  17.043   3.350  0.00  0.00     0.073 A 
HETATM   11  C   UNK N   1      19.997  16.111   4.400  0.00  0.00    -0.001 A 
HETATM   12  C   UNK N   1      19.810  14.767   4.045  0.00  0.00     0.068 A 
HETATM   13  N   UNK N   1      19.643  13.698   4.839  0.00  0.00    -0.350 N 
ATOM     14  HN  UNK N   1      19.623  13.676   5.859  1.00  0.00     0.166 HD
HETATM   15  C   UNK N   1      19.507  12.653   3.980  0.00  0.00     0.181 A 
HETATM   16  N   UNK N   1      19.585  13.044   2.682  0.00  0.00    -0.350 N 
HETATM   17  C   UNK N   1      19.774  14.369   2.744  0.00  0.00     0.061 A 
HETATM   18  H   UNK N   1      20.558  19.584   0.645  0.00  0.00     0.187 HD
HETATM   19  H   UNK N   1      20.695  20.912   3.934  0.00  0.00     0.174 HD
HETATM   20  H   UNK N   1      20.780  21.311   2.278  0.00  0.00     0.174 HD
HETATM   21  H   UNK N   1      19.517  12.481   1.877  0.00  0.00     0.166 HD
ENDROOT
BRANCH  11  22
HETATM   22  C   UNK N   1      20.050  16.638   5.803  0.00  0.00     0.048 C 
BRANCH  22  23
HETATM   23  C   UNK N   1      21.348  16.678   6.599  0.00  0.00     0.043 C 
BRANCH  23  24
HETATM   24  C   UNK N   1      21.383  15.512   7.562  0.00  0.00    -0.058 A 
HETATM   25  C   UNK N   1      20.544  15.478   8.692  0.00  0.00     0.010 A 
HETATM   26  C   UNK N   1      20.580  14.404   9.576  0.00  0.00     0.037 A 
HETATM   27  C   UNK N   1      21.458  13.335   9.350  0.00  0.00     0.068 A 
HETATM   28  C   UNK N   1      22.297  13.362   8.227  0.00  0.00     0.037 A 
HETATM   29  C   UNK N   1      22.260  14.445   7.337  0.00  0.00     0.010 A 
BRANCH  27  30
HETATM   30  O   UNK N   1      21.510  12.279  10.196  0.00  0.00    -0.356 OA
HETATM   31  C   UNK N   1      22.472  12.146  11.173  0.00  0.00     0.210 C 
ENDBRANCH  27  30
ENDBRANCH  23  24
ENDBRANCH  22  23
ENDBRANCH  11  22
TORSDOF 4
ENDMDL
