REMARK  6 active torsions:
REMARK  status: ('A' for Active; 'I' for Inactive)
REMARK    1  A    between atoms: C_1  and  C_23 
REMARK    2  A    between atoms: C_17  and  C_18 
REMARK    3  A    between atoms: C_17  and  N_21 
REMARK    4  A    between atoms: C_18  and  O_19 
REMARK    5  A    between atoms: C_18  and  C_20 
REMARK    6  A    between atoms: O_19  and  C_23 
ROOT
HETATM    1  C   UNK N   1       0.871  -1.979  -0.425  0.00  0.00     0.174 C 
ENDROOT
BRANCH   1   2
HETATM    2  C   UNK N   1       0.957  -3.077   0.657  0.00  0.00     0.166 C 
BRANCH   2   3
HETATM    3  N   UNK N   1       2.080  -3.978   0.403  0.00  0.00    -0.349 N 
HETATM    4  C   UNK N   1       3.348  -3.794   0.798  0.00  0.00     0.108 A 
HETATM    5  C   UNK N   1       4.080  -4.882   0.367  0.00  0.00     0.106 A 
HETATM    6  N   UNK N   1       3.252  -5.727  -0.282  0.00  0.00    -0.361 N 
HETATM    7  C   UNK N   1       2.031  -5.152  -0.244  0.00  0.00     0.182 A 
ATOM      8  HN  UNK N   1       3.498  -6.617  -0.714  1.00  0.00     0.166 HD
ENDBRANCH   2   3
ENDBRANCH   1   2
BRANCH   1   9
HETATM    9  O   UNK N   1       2.109  -1.304  -0.582  0.00  0.00    -0.375 OA
BRANCH   9  10
HETATM   10  C   UNK N   1       2.515  -0.742   0.647  0.00  0.00     0.207 C 
BRANCH  10  11
HETATM   11  C   UNK N   1       3.846  -0.112   0.478  0.00  0.00    -0.035 A 
HETATM   12  C   UNK N   1       3.978   1.273   0.605  0.00  0.00     0.011 A 
HETATM   13  C   UNK N   1       5.222   1.876   0.402  0.00  0.00     0.024 A 
HETATM   14  C   UNK N   1       6.333   1.092   0.075  0.00  0.00     0.034 A 
HETATM   15  C   UNK N   1       6.203  -0.295  -0.040  0.00  0.00     0.024 A 
HETATM   16 Cl   UNK N   1       7.884   1.848  -0.208  0.00  0.00    -0.084 Cl
HETATM   17  C   UNK N   1       4.959  -0.897   0.160  0.00  0.00     0.011 A 
ENDBRANCH  10  11
ENDBRANCH   9  10
ENDBRANCH   1   9
BRANCH   1  18
HETATM   18  C   UNK N   1      -0.298  -1.012  -0.231  0.00  0.00    -0.006 A 
HETATM   19  C   UNK N   1      -1.635  -1.463  -0.102  0.00  0.00     0.044 A 
HETATM   20 Cl   UNK N   1      -2.056  -3.170  -0.132  0.00  0.00    -0.084 Cl
HETATM   21  C   UNK N   1      -2.674  -0.536   0.047  0.00  0.00     0.048 A 
HETATM   22  C   UNK N   1      -2.406   0.834   0.064  0.00  0.00     0.035 A 
HETATM   23  C   UNK N   1      -1.097   1.289  -0.070  0.00  0.00     0.024 A 
HETATM   24 Cl   UNK N   1      -3.714   1.984   0.243  0.00  0.00    -0.084 Cl
HETATM   25  C   UNK N   1      -0.055   0.375  -0.217  0.00  0.00     0.013 A 
ENDBRANCH   1  18
TORSDOF 6
