MODEL 1
REMARK VINA RESULT:      -6.7      0.000      0.000
REMARK  6 active torsions:
REMARK  status: ('A' for Active; 'I' for Inactive)
REMARK    1  A    between atoms: C_1  and  C_23 
REMARK    2  A    between atoms: C_17  and  C_18 
REMARK    3  A    between atoms: C_17  and  N_21 
REMARK    4  A    between atoms: C_18  and  O_19 
REMARK    5  A    between atoms: C_18  and  C_20 
REMARK    6  A    between atoms: O_19  and  C_23 
ROOT
HETATM    1  C   UNK N   1      35.128  13.183  13.023  0.00  0.00     0.174 C 
ENDROOT
BRANCH   1   2
HETATM    2  C   UNK N   1      35.989  14.366  12.530  0.00  0.00     0.166 C 
BRANCH   2   3
HETATM    3  N   UNK N   1      35.291  15.128  11.496  0.00  0.00    -0.349 N 
HETATM    4  C   UNK N   1      34.350  14.658  10.664  0.00  0.00     0.108 A 
HETATM    5  C   UNK N   1      33.944  15.704   9.861  0.00  0.00     0.106 A 
HETATM    6  N   UNK N   1      34.635  16.809  10.212  0.00  0.00    -0.361 N 
HETATM    7  C   UNK N   1      35.452  16.431  11.219  0.00  0.00     0.182 A 
ATOM      8  HN  UNK N   1      34.557  17.739   9.801  1.00  0.00     0.166 HD
ENDBRANCH   2   3
ENDBRANCH   1   2
BRANCH   1   9
HETATM    9  O   UNK N   1      34.723  13.360  14.371  0.00  0.00    -0.375 OA
BRANCH   9  10
HETATM   10  C   UNK N   1      35.843  13.645  15.181  0.00  0.00     0.207 C 
BRANCH  10  11
HETATM   11  C   UNK N   1      35.691  12.952  16.483  0.00  0.00    -0.035 A 
HETATM   12  C   UNK N   1      35.893  11.572  16.560  0.00  0.00     0.011 A 
HETATM   13  C   UNK N   1      35.707  10.907  17.775  0.00  0.00     0.024 A 
HETATM   14  C   UNK N   1      35.322  11.625  18.912  0.00  0.00     0.034 A 
HETATM   15  C   UNK N   1      35.132  13.008  18.837  0.00  0.00     0.024 A 
HETATM   16 Cl   UNK N   1      35.060  10.791  20.426  0.00  0.00    -0.084 Cl
HETATM   17  C   UNK N   1      35.315  13.671  17.621  0.00  0.00     0.011 A 
ENDBRANCH  10  11
ENDBRANCH   9  10
ENDBRANCH   1   9
BRANCH   1  18
HETATM   18  C   UNK N   1      35.766  11.814  12.782  0.00  0.00    -0.006 A 
HETATM   19  C   UNK N   1      35.136  10.609  13.180  0.00  0.00     0.044 A 
HETATM   20 Cl   UNK N   1      33.561  10.589  13.963  0.00  0.00    -0.084 Cl
HETATM   21  C   UNK N   1      35.773   9.381  12.962  0.00  0.00     0.048 A 
HETATM   22  C   UNK N   1      37.031   9.332  12.358  0.00  0.00     0.035 A 
HETATM   23  C   UNK N   1      37.663  10.510  11.969  0.00  0.00     0.024 A 
HETATM   24 Cl   UNK N   1      37.821   7.792  12.096  0.00  0.00    -0.084 Cl
HETATM   25  C   UNK N   1      37.037  11.737  12.181  0.00  0.00     0.013 A 
ENDBRANCH   1  18
TORSDOF 6
ENDMDL
MODEL 2
REMARK VINA RESULT:      -6.3     14.428     17.321
REMARK  6 active torsions:
REMARK  status: ('A' for Active; 'I' for Inactive)
REMARK    1  A    between atoms: C_1  and  C_23 
REMARK    2  A    between atoms: C_17  and  C_18 
REMARK    3  A    between atoms: C_17  and  N_21 
REMARK    4  A    between atoms: C_18  and  O_19 
REMARK    5  A    between atoms: C_18  and  C_20 
REMARK    6  A    between atoms: O_19  and  C_23 
ROOT
HETATM    1  C   UNK N   1      20.521  16.150   6.406  0.00  0.00     0.174 C 
ENDROOT
BRANCH   1   2
HETATM    2  C   UNK N   1      20.841  16.914   7.709  0.00  0.00     0.166 C 
BRANCH   2   3
HETATM    3  N   UNK N   1      19.615  17.287   8.414  0.00  0.00    -0.349 N 
HETATM    4  C   UNK N   1      18.428  16.672   8.317  0.00  0.00     0.108 A 
HETATM    5  C   UNK N   1      17.550  17.329   9.155  0.00  0.00     0.106 A 
HETATM    6  N   UNK N   1      18.209  18.337   9.764  0.00  0.00    -0.361 N 
HETATM    7  C   UNK N   1      19.475  18.288   9.295  0.00  0.00     0.182 A 
ATOM      8  HN  UNK N   1      17.830  19.000  10.439  1.00  0.00     0.166 HD
ENDBRANCH   2   3
ENDBRANCH   1   2
BRANCH   1   9
HETATM    9  O   UNK N   1      21.322  14.987   6.274  0.00  0.00    -0.375 OA
BRANCH   9  10
HETATM   10  C   UNK N   1      20.758  13.922   7.009  0.00  0.00     0.207 C 
BRANCH  10  11
HETATM   11  C   UNK N   1      21.704  13.513   8.075  0.00  0.00    -0.035 A 
HETATM   12  C   UNK N   1      23.054  13.326   7.769  0.00  0.00     0.011 A 
HETATM   13  C   UNK N   1      23.940  12.896   8.760  0.00  0.00     0.024 A 
HETATM   14  C   UNK N   1      23.475  12.658  10.057  0.00  0.00     0.034 A 
HETATM   15  C   UNK N   1      22.126  12.857  10.366  0.00  0.00     0.024 A 
HETATM   16 Cl   UNK N   1      24.576  12.092  11.292  0.00  0.00    -0.084 Cl
HETATM   17  C   UNK N   1      21.240  13.283   9.374  0.00  0.00     0.011 A 
ENDBRANCH  10  11
ENDBRANCH   9  10
ENDBRANCH   1   9
BRANCH   1  18
HETATM   18  C   UNK N   1      20.556  17.026   5.153  0.00  0.00    -0.006 A 
HETATM   19  C   UNK N   1      20.025  16.589   3.913  0.00  0.00     0.044 A 
HETATM   20 Cl   UNK N   1      19.264  15.016   3.721  0.00  0.00    -0.084 Cl
HETATM   21  C   UNK N   1      20.106  17.418   2.788  0.00  0.00     0.048 A 
HETATM   22  C   UNK N   1      20.712  18.673   2.872  0.00  0.00     0.035 A 
HETATM   23  C   UNK N   1      21.244  19.110   4.083  0.00  0.00     0.024 A 
HETATM   24 Cl   UNK N   1      20.814  19.698   1.456  0.00  0.00    -0.084 Cl
HETATM   25  C   UNK N   1      21.167  18.293   5.210  0.00  0.00     0.013 A 
ENDBRANCH   1  18
TORSDOF 6
ENDMDL
MODEL 3
REMARK VINA RESULT:      -6.3      5.989     10.148
REMARK  6 active torsions:
REMARK  status: ('A' for Active; 'I' for Inactive)
REMARK    1  A    between atoms: C_1  and  C_23 
REMARK    2  A    between atoms: C_17  and  C_18 
REMARK    3  A    between atoms: C_17  and  N_21 
REMARK    4  A    between atoms: C_18  and  O_19 
REMARK    5  A    between atoms: C_18  and  C_20 
REMARK    6  A    between atoms: O_19  and  C_23 
ROOT
HETATM    1  C   UNK N   1      33.008  16.585   7.641  0.00  0.00     0.174 C 
ENDROOT
BRANCH   1   2
HETATM    2  C   UNK N   1      33.868  17.331   6.597  0.00  0.00     0.166 C 
BRANCH   2   3
HETATM    3  N   UNK N   1      33.524  16.914   5.239  0.00  0.00    -0.349 N 
HETATM    4  C   UNK N   1      32.822  17.626   4.345  0.00  0.00     0.108 A 
HETATM    5  C   UNK N   1      32.740  16.877   3.189  0.00  0.00     0.106 A 
HETATM    6  N   UNK N   1      33.398  15.715   3.382  0.00  0.00    -0.361 N 
HETATM    7  C   UNK N   1      33.873  15.763   4.645  0.00  0.00     0.182 A 
ATOM      8  HN  UNK N   1      33.513  14.956   2.711  1.00  0.00     0.166 HD
ENDBRANCH   2   3
ENDBRANCH   1   2
BRANCH   1   9
HETATM    9  O   UNK N   1      31.826  17.305   7.953  0.00  0.00    -0.375 OA
BRANCH   9  10
HETATM   10  C   UNK N   1      30.692  16.588   7.517  0.00  0.00     0.207 C 
BRANCH  10  11
HETATM   11  C   UNK N   1      29.656  17.546   7.062  0.00  0.00    -0.035 A 
HETATM   12  C   UNK N   1      29.361  17.652   5.701  0.00  0.00     0.011 A 
HETATM   13  C   UNK N   1      28.418  18.585   5.263  0.00  0.00     0.024 A 
HETATM   14  C   UNK N   1      27.769  19.409   6.188  0.00  0.00     0.034 A 
HETATM   15  C   UNK N   1      28.056  19.295   7.552  0.00  0.00     0.024 A 
HETATM   16 Cl   UNK N   1      26.610  20.598   5.639  0.00  0.00    -0.084 Cl
HETATM   17  C   UNK N   1      29.001  18.364   7.989  0.00  0.00     0.011 A 
ENDBRANCH  10  11
ENDBRANCH   9  10
ENDBRANCH   1   9
BRANCH   1  18
HETATM   18  C   UNK N   1      33.782  16.166   8.892  0.00  0.00    -0.006 A 
HETATM   19  C   UNK N   1      33.607  14.897   9.496  0.00  0.00     0.044 A 
HETATM   20 Cl   UNK N   1      32.504  13.692   8.844  0.00  0.00    -0.084 Cl
HETATM   21  C   UNK N   1      34.320  14.571  10.657  0.00  0.00     0.048 A 
HETATM   22  C   UNK N   1      35.200  15.490  11.231  0.00  0.00     0.035 A 
HETATM   23  C   UNK N   1      35.374  16.743  10.650  0.00  0.00     0.024 A 
HETATM   24 Cl   UNK N   1      36.079  15.074  12.686  0.00  0.00    -0.084 Cl
HETATM   25  C   UNK N   1      34.671  17.078   9.494  0.00  0.00     0.013 A 
ENDBRANCH   1  18
TORSDOF 6
ENDMDL
MODEL 4
REMARK VINA RESULT:      -6.2     22.533     25.699
REMARK  6 active torsions:
REMARK  status: ('A' for Active; 'I' for Inactive)
REMARK    1  A    between atoms: C_1  and  C_23 
REMARK    2  A    between atoms: C_17  and  C_18 
REMARK    3  A    between atoms: C_17  and  N_21 
REMARK    4  A    between atoms: C_18  and  O_19 
REMARK    5  A    between atoms: C_18  and  C_20 
REMARK    6  A    between atoms: O_19  and  C_23 
ROOT
HETATM    1  C   UNK N   1      26.566  23.398  -6.974  0.00  0.00     0.174 C 
ENDROOT
BRANCH   1   2
HETATM    2  C   UNK N   1      27.059  23.637  -8.418  0.00  0.00     0.166 C 
BRANCH   2   3
HETATM    3  N   UNK N   1      26.545  22.613  -9.325  0.00  0.00    -0.349 N 
HETATM    4  C   UNK N   1      26.849  22.481 -10.624  0.00  0.00     0.108 A 
HETATM    5  C   UNK N   1      26.163  21.382 -11.103  0.00  0.00     0.106 A 
HETATM    6  N   UNK N   1      25.450  20.847 -10.090  0.00  0.00    -0.361 N 
HETATM    7  C   UNK N   1      25.703  21.617  -9.010  0.00  0.00     0.182 A 
ATOM      8  HN  UNK N   1      24.843  20.028 -10.131  1.00  0.00     0.166 HD
ENDBRANCH   2   3
ENDBRANCH   1   2
BRANCH   1   9
HETATM    9  O   UNK N   1      25.544  24.313  -6.614  0.00  0.00    -0.375 OA
BRANCH   9  10
HETATM   10  C   UNK N   1      25.639  25.481  -7.401  0.00  0.00     0.207 C 
BRANCH  10  11
HETATM   11  C   UNK N   1      25.901  26.643  -6.518  0.00  0.00    -0.035 A 
HETATM   12  C   UNK N   1      27.018  27.449  -6.748  0.00  0.00     0.011 A 
HETATM   13  C   UNK N   1      27.293  28.519  -5.892  0.00  0.00     0.024 A 
HETATM   14  C   UNK N   1      26.449  28.781  -4.808  0.00  0.00     0.034 A 
HETATM   15  C   UNK N   1      25.325  27.981  -4.586  0.00  0.00     0.024 A 
HETATM   16 Cl   UNK N   1      26.809  30.100  -3.719  0.00  0.00    -0.084 Cl
HETATM   17  C   UNK N   1      25.051  26.910  -5.440  0.00  0.00     0.011 A 
ENDBRANCH  10  11
ENDBRANCH   9  10
ENDBRANCH   1   9
BRANCH   1  18
HETATM   18  C   UNK N   1      27.691  23.345  -5.939  0.00  0.00    -0.006 A 
HETATM   19  C   UNK N   1      28.751  22.408  -6.025  0.00  0.00     0.044 A 
HETATM   20 Cl   UNK N   1      28.870  21.246  -7.340  0.00  0.00    -0.084 Cl
HETATM   21  C   UNK N   1      29.743  22.382  -5.037  0.00  0.00     0.048 A 
HETATM   22  C   UNK N   1      29.696  23.269  -3.961  0.00  0.00     0.035 A 
HETATM   23  C   UNK N   1      28.655  24.189  -3.862  0.00  0.00     0.024 A 
HETATM   24 Cl   UNK N   1      30.938  23.223  -2.728  0.00  0.00    -0.084 Cl
HETATM   25  C   UNK N   1      27.664  24.225  -4.840  0.00  0.00     0.013 A 
ENDBRANCH   1  18
TORSDOF 6
ENDMDL
MODEL 5
REMARK VINA RESULT:      -6.1     10.281     13.802
REMARK  6 active torsions:
REMARK  status: ('A' for Active; 'I' for Inactive)
REMARK    1  A    between atoms: C_1  and  C_23 
REMARK    2  A    between atoms: C_17  and  C_18 
REMARK    3  A    between atoms: C_17  and  N_21 
REMARK    4  A    between atoms: C_18  and  O_19 
REMARK    5  A    between atoms: C_18  and  C_20 
REMARK    6  A    between atoms: O_19  and  C_23 
ROOT
HETATM    1  C   UNK N   1      29.413  17.739   5.178  0.00  0.00     0.174 C 
ENDROOT
BRANCH   1   2
HETATM    2  C   UNK N   1      28.900  17.010   6.439  0.00  0.00     0.166 C 
BRANCH   2   3
HETATM    3  N   UNK N   1      29.519  17.553   7.647  0.00  0.00    -0.349 N 
HETATM    4  C   UNK N   1      29.007  18.505   8.440  0.00  0.00     0.108 A 
HETATM    5  C   UNK N   1      29.899  18.710   9.473  0.00  0.00     0.106 A 
HETATM    6  N   UNK N   1      30.947  17.876   9.308  0.00  0.00    -0.361 N 
HETATM    7  C   UNK N   1      30.690  17.175   8.183  0.00  0.00     0.182 A 
ATOM      8  HN  UNK N   1      31.767  17.793   9.908  1.00  0.00     0.166 HD
ENDBRANCH   2   3
ENDBRANCH   1   2
BRANCH   1   9
HETATM    9  O   UNK N   1      28.350  18.072   4.300  0.00  0.00    -0.375 OA
BRANCH   9  10
HETATM   10  C   UNK N   1      27.990  19.427   4.464  0.00  0.00     0.207 C 
BRANCH  10  11
HETATM   11  C   UNK N   1      26.560  19.597   4.114  0.00  0.00    -0.035 A 
HETATM   12  C   UNK N   1      25.589  18.845   4.781  0.00  0.00     0.011 A 
HETATM   13  C   UNK N   1      24.244  18.969   4.423  0.00  0.00     0.024 A 
HETATM   14  C   UNK N   1      23.872  19.846   3.400  0.00  0.00     0.034 A 
HETATM   15  C   UNK N   1      24.842  20.607   2.741  0.00  0.00     0.024 A 
HETATM   16 Cl   UNK N   1      22.193  19.981   2.931  0.00  0.00    -0.084 Cl
HETATM   17  C   UNK N   1      26.186  20.481   3.096  0.00  0.00     0.011 A 
ENDBRANCH  10  11
ENDBRANCH   9  10
ENDBRANCH   1   9
BRANCH   1  18
HETATM   18  C   UNK N   1      30.551  17.009   4.463  0.00  0.00    -0.006 A 
HETATM   19  C   UNK N   1      30.368  15.741   3.857  0.00  0.00     0.044 A 
HETATM   20 Cl   UNK N   1      28.816  14.915   3.859  0.00  0.00    -0.084 Cl
HETATM   21  C   UNK N   1      31.448  15.100   3.237  0.00  0.00     0.048 A 
HETATM   22  C   UNK N   1      32.710  15.698   3.215  0.00  0.00     0.035 A 
HETATM   23  C   UNK N   1      32.903  16.940   3.814  0.00  0.00     0.024 A 
HETATM   24 Cl   UNK N   1      34.055  14.884   2.444  0.00  0.00    -0.084 Cl
HETATM   25  C   UNK N   1      31.834  17.587   4.432  0.00  0.00     0.013 A 
ENDBRANCH   1  18
TORSDOF 6
ENDMDL
MODEL 6
REMARK VINA RESULT:      -6.1     21.015     25.133
REMARK  6 active torsions:
REMARK  status: ('A' for Active; 'I' for Inactive)
REMARK    1  A    between atoms: C_1  and  C_23 
REMARK    2  A    between atoms: C_17  and  C_18 
REMARK    3  A    between atoms: C_17  and  N_21 
REMARK    4  A    between atoms: C_18  and  O_19 
REMARK    5  A    between atoms: C_18  and  C_20 
REMARK    6  A    between atoms: O_19  and  C_23 
ROOT
HETATM    1  C   UNK N   1      25.555  25.585  -5.750  0.00  0.00     0.174 C 
ENDROOT
BRANCH   1   2
HETATM    2  C   UNK N   1      24.869  26.950  -5.532  0.00  0.00     0.166 C 
BRANCH   2   3
HETATM    3  N   UNK N   1      25.727  27.853  -4.767  0.00  0.00    -0.349 N 
HETATM    4  C   UNK N   1      26.694  28.638  -5.264  0.00  0.00     0.108 A 
HETATM    5  C   UNK N   1      27.246  29.336  -4.209  0.00  0.00     0.106 A 
HETATM    6  N   UNK N   1      26.607  28.979  -3.076  0.00  0.00    -0.361 N 
HETATM    7  C   UNK N   1      25.679  28.070  -3.444  0.00  0.00     0.182 A 
ATOM      8  HN  UNK N   1      26.789  29.323  -2.133  1.00  0.00     0.166 HD
ENDBRANCH   2   3
ENDBRANCH   1   2
BRANCH   1   9
HETATM    9  O   UNK N   1      26.749  25.474  -4.992  0.00  0.00    -0.375 OA
BRANCH   9  10
HETATM   10  C   UNK N   1      26.582  24.528  -3.958  0.00  0.00     0.207 C 
BRANCH  10  11
HETATM   11  C   UNK N   1      27.884  23.877  -3.680  0.00  0.00    -0.035 A 
HETATM   12  C   UNK N   1      28.738  23.556  -4.738  0.00  0.00     0.011 A 
HETATM   13  C   UNK N   1      29.946  22.901  -4.484  0.00  0.00     0.024 A 
HETATM   14  C   UNK N   1      30.299  22.571  -3.171  0.00  0.00     0.034 A 
HETATM   15  C   UNK N   1      29.450  22.903  -2.112  0.00  0.00     0.024 A 
HETATM   16 Cl   UNK N   1      31.797  21.726  -2.855  0.00  0.00    -0.084 Cl
HETATM   17  C   UNK N   1      28.241  23.555  -2.366  0.00  0.00     0.011 A 
ENDBRANCH  10  11
ENDBRANCH   9  10
ENDBRANCH   1   9
BRANCH   1  18
HETATM   18  C   UNK N   1      25.766  25.229  -7.223  0.00  0.00    -0.006 A 
HETATM   19  C   UNK N   1      25.778  23.887  -7.679  0.00  0.00     0.044 A 
HETATM   20 Cl   UNK N   1      25.529  22.525  -6.595  0.00  0.00    -0.084 Cl
HETATM   21  C   UNK N   1      26.002  23.612  -9.034  0.00  0.00     0.048 A 
HETATM   22  C   UNK N   1      26.221  24.649  -9.942  0.00  0.00     0.035 A 
HETATM   23  C   UNK N   1      26.219  25.971  -9.504  0.00  0.00     0.024 A 
HETATM   24 Cl   UNK N   1      26.508  24.292 -11.632  0.00  0.00    -0.084 Cl
HETATM   25  C   UNK N   1      25.995  26.256  -8.158  0.00  0.00     0.013 A 
ENDBRANCH   1  18
TORSDOF 6
ENDMDL
MODEL 7
REMARK VINA RESULT:      -6.1      1.838      2.150
REMARK  6 active torsions:
REMARK  status: ('A' for Active; 'I' for Inactive)
REMARK    1  A    between atoms: C_1  and  C_23 
REMARK    2  A    between atoms: C_17  and  C_18 
REMARK    3  A    between atoms: C_17  and  N_21 
REMARK    4  A    between atoms: C_18  and  O_19 
REMARK    5  A    between atoms: C_18  and  C_20 
REMARK    6  A    between atoms: O_19  and  C_23 
ROOT
HETATM    1  C   UNK N   1      34.967  12.434  13.285  0.00  0.00     0.174 C 
ENDROOT
BRANCH   1   2
HETATM    2  C   UNK N   1      36.385  13.044  13.257  0.00  0.00     0.166 C 
BRANCH   2   3
HETATM    3  N   UNK N   1      36.546  13.947  12.119  0.00  0.00    -0.349 N 
HETATM    4  C   UNK N   1      35.907  15.111  11.935  0.00  0.00     0.108 A 
HETATM    5  C   UNK N   1      36.360  15.651  10.748  0.00  0.00     0.106 A 
HETATM    6  N   UNK N   1      37.277  14.816  10.218  0.00  0.00    -0.361 N 
HETATM    7  C   UNK N   1      37.376  13.780  11.079  0.00  0.00     0.182 A 
ATOM      8  HN  UNK N   1      37.791  14.940   9.346  1.00  0.00     0.166 HD
ENDBRANCH   2   3
ENDBRANCH   1   2
BRANCH   1   9
HETATM    9  O   UNK N   1      34.397  12.499  14.583  0.00  0.00    -0.375 OA
BRANCH   9  10
HETATM   10  C   UNK N   1      35.206  13.287  15.429  0.00  0.00     0.207 C 
BRANCH  10  11
HETATM   11  C   UNK N   1      35.317  12.625  16.751  0.00  0.00    -0.035 A 
HETATM   12  C   UNK N   1      35.549  11.249  16.819  0.00  0.00     0.011 A 
HETATM   13  C   UNK N   1      35.610  10.613  18.062  0.00  0.00     0.024 A 
HETATM   14  C   UNK N   1      35.442  11.356  19.235  0.00  0.00     0.034 A 
HETATM   15  C   UNK N   1      35.222  12.735  19.167  0.00  0.00     0.024 A 
HETATM   16 Cl   UNK N   1      35.489  10.557  20.790  0.00  0.00    -0.084 Cl
HETATM   17  C   UNK N   1      35.158  13.369  17.924  0.00  0.00     0.011 A 
ENDBRANCH  10  11
ENDBRANCH   9  10
ENDBRANCH   1   9
BRANCH   1  18
HETATM   18  C   UNK N   1      34.887  11.030  12.685  0.00  0.00    -0.006 A 
HETATM   19  C   UNK N   1      34.578  10.811  11.319  0.00  0.00     0.044 A 
HETATM   20 Cl   UNK N   1      34.284  12.135  10.200  0.00  0.00    -0.084 Cl
HETATM   21  C   UNK N   1      34.490   9.504  10.823  0.00  0.00     0.048 A 
HETATM   22  C   UNK N   1      34.699   8.410  11.665  0.00  0.00     0.035 A 
HETATM   23  C   UNK N   1      34.995   8.613  13.010  0.00  0.00     0.024 A 
HETATM   24 Cl   UNK N   1      34.579   6.781  11.035  0.00  0.00    -0.084 Cl
HETATM   25  C   UNK N   1      35.087   9.909  13.514  0.00  0.00     0.013 A 
ENDBRANCH   1  18
TORSDOF 6
ENDMDL
MODEL 8
REMARK VINA RESULT:      -6.1      8.585     12.141
REMARK  6 active torsions:
REMARK  status: ('A' for Active; 'I' for Inactive)
REMARK    1  A    between atoms: C_1  and  C_23 
REMARK    2  A    between atoms: C_17  and  C_18 
REMARK    3  A    between atoms: C_17  and  N_21 
REMARK    4  A    between atoms: C_18  and  O_19 
REMARK    5  A    between atoms: C_18  and  C_20 
REMARK    6  A    between atoms: O_19  and  C_23 
ROOT
HETATM    1  C   UNK N   1      30.739  16.704   6.801  0.00  0.00     0.174 C 
ENDROOT
BRANCH   1   2
HETATM    2  C   UNK N   1      31.309  16.327   8.186  0.00  0.00     0.166 C 
BRANCH   2   3
HETATM    3  N   UNK N   1      32.620  16.939   8.398  0.00  0.00    -0.349 N 
HETATM    4  C   UNK N   1      33.687  16.351   8.959  0.00  0.00     0.108 A 
HETATM    5  C   UNK N   1      34.718  17.268   8.952  0.00  0.00     0.106 A 
HETATM    6  N   UNK N   1      34.277  18.407   8.379  0.00  0.00    -0.361 N 
HETATM    7  C   UNK N   1      32.989  18.179   8.045  0.00  0.00     0.182 A 
ATOM      8  HN  UNK N   1      34.807  19.265   8.230  1.00  0.00     0.166 HD
ENDBRANCH   2   3
ENDBRANCH   1   2
BRANCH   1   9
HETATM    9  O   UNK N   1      29.329  16.859   6.843  0.00  0.00    -0.375 OA
BRANCH   9  10
HETATM   10  C   UNK N   1      28.996  18.182   7.202  0.00  0.00     0.207 C 
BRANCH  10  11
HETATM   11  C   UNK N   1      28.256  18.817   6.085  0.00  0.00    -0.035 A 
HETATM   12  C   UNK N   1      27.664  20.069   6.270  0.00  0.00     0.011 A 
HETATM   13  C   UNK N   1      26.928  20.651   5.235  0.00  0.00     0.024 A 
HETATM   14  C   UNK N   1      26.786  19.981   4.016  0.00  0.00     0.034 A 
HETATM   15  C   UNK N   1      27.389  18.734   3.828  0.00  0.00     0.024 A 
HETATM   16 Cl   UNK N   1      25.841  20.695   2.730  0.00  0.00    -0.084 Cl
HETATM   17  C   UNK N   1      28.123  18.151   4.863  0.00  0.00     0.011 A 
ENDBRANCH  10  11
ENDBRANCH   9  10
ENDBRANCH   1   9
BRANCH   1  18
HETATM   18  C   UNK N   1      31.188  15.772   5.675  0.00  0.00    -0.006 A 
HETATM   19  C   UNK N   1      31.980  16.227   4.592  0.00  0.00     0.044 A 
HETATM   20 Cl   UNK N   1      32.529  17.893   4.466  0.00  0.00    -0.084 Cl
HETATM   21  C   UNK N   1      32.344  15.341   3.571  0.00  0.00     0.048 A 
HETATM   22  C   UNK N   1      31.927  14.009   3.606  0.00  0.00     0.035 A 
HETATM   23  C   UNK N   1      31.142  13.552   4.661  0.00  0.00     0.024 A 
HETATM   24 Cl   UNK N   1      32.381  12.911   2.319  0.00  0.00    -0.084 Cl
HETATM   25  C   UNK N   1      30.776  14.425   5.683  0.00  0.00     0.013 A 
ENDBRANCH   1  18
TORSDOF 6
ENDMDL
MODEL 9
REMARK VINA RESULT:      -6.1     20.322     23.480
REMARK  6 active torsions:
REMARK  status: ('A' for Active; 'I' for Inactive)
REMARK    1  A    between atoms: C_1  and  C_23 
REMARK    2  A    between atoms: C_17  and  C_18 
REMARK    3  A    between atoms: C_17  and  N_21 
REMARK    4  A    between atoms: C_18  and  O_19 
REMARK    5  A    between atoms: C_18  and  C_20 
REMARK    6  A    between atoms: O_19  and  C_23 
ROOT
HETATM    1  C   UNK N   1      27.962  24.553  -4.204  0.00  0.00     0.174 C 
ENDROOT
BRANCH   1   2
HETATM    2  C   UNK N   1      28.425  25.992  -4.518  0.00  0.00     0.166 C 
BRANCH   2   3
HETATM    3  N   UNK N   1      27.397  26.966  -4.153  0.00  0.00    -0.349 N 
HETATM    4  C   UNK N   1      27.107  28.096  -4.813  0.00  0.00     0.108 A 
HETATM    5  C   UNK N   1      26.068  28.713  -4.145  0.00  0.00     0.106 A 
HETATM    6  N   UNK N   1      25.727  27.951  -3.085  0.00  0.00    -0.361 N 
HETATM    7  C   UNK N   1      26.554  26.884  -3.113  0.00  0.00     0.182 A 
ATOM      8  HN  UNK N   1      24.995  28.142  -2.401  1.00  0.00     0.166 HD
ENDBRANCH   2   3
ENDBRANCH   1   2
BRANCH   1   9
HETATM    9  O   UNK N   1      28.865  23.894  -3.330  0.00  0.00    -0.375 OA
BRANCH   9  10
HETATM   10  C   UNK N   1      30.124  24.532  -3.361  0.00  0.00     0.207 C 
BRANCH  10  11
HETATM   11  C   UNK N   1      31.179  23.514  -3.575  0.00  0.00    -0.035 A 
HETATM   12  C   UNK N   1      31.259  22.409  -2.723  0.00  0.00     0.011 A 
HETATM   13  C   UNK N   1      32.281  21.471  -2.893  0.00  0.00     0.024 A 
HETATM   14  C   UNK N   1      33.219  21.637  -3.917  0.00  0.00     0.034 A 
HETATM   15  C   UNK N   1      33.131  22.736  -4.777  0.00  0.00     0.024 A 
HETATM   16 Cl   UNK N   1      34.514  20.479  -4.113  0.00  0.00    -0.084 Cl
HETATM   17  C   UNK N   1      32.112  23.675  -4.605  0.00  0.00     0.011 A 
ENDBRANCH  10  11
ENDBRANCH   9  10
ENDBRANCH   1   9
BRANCH   1  18
HETATM   18  C   UNK N   1      27.646  23.722  -5.449  0.00  0.00    -0.006 A 
HETATM   19  C   UNK N   1      26.385  23.777  -6.091  0.00  0.00     0.044 A 
HETATM   20 Cl   UNK N   1      25.088  24.820  -5.523  0.00  0.00    -0.084 Cl
HETATM   21  C   UNK N   1      26.136  22.975  -7.212  0.00  0.00     0.048 A 
HETATM   22  C   UNK N   1      27.120  22.115  -7.702  0.00  0.00     0.035 A 
HETATM   23  C   UNK N   1      28.360  22.047  -7.075  0.00  0.00     0.024 A 
HETATM   24 Cl   UNK N   1      26.794  21.112  -9.100  0.00  0.00    -0.084 Cl
HETATM   25  C   UNK N   1      28.620  22.841  -5.959  0.00  0.00     0.013 A 
ENDBRANCH   1  18
TORSDOF 6
ENDMDL
