MODEL 1
REMARK VINA RESULT:      -7.2      0.000      0.000
REMARK  4 active torsions:
REMARK  status: ('A' for Active; 'I' for Inactive)
REMARK    1  A    between atoms: C_5  and  O_6 
REMARK    2  A    between atoms: C_15  and  O_16 
REMARK    3  A    between atoms: C_20  and  C_21 
REMARK    4  A    between atoms: C_21  and  O_22 
ROOT
HETATM    1  C   UNK N   1      28.945  22.926  -6.020  0.00  0.00     0.030 C 
HETATM    2  C   UNK N   1      29.901  22.433  -4.927  0.00  0.00    -0.047 A 
HETATM    3  C   UNK N   1      30.085  23.171  -3.749  0.00  0.00     0.011 A 
HETATM    4  C   UNK N   1      30.979  22.753  -2.764  0.00  0.00     0.037 A 
HETATM    5  C   UNK N   1      31.728  21.593  -2.950  0.00  0.00     0.066 A 
HETATM    6  C   UNK N   1      31.583  20.854  -4.123  0.00  0.00     0.044 A 
HETATM    7  C   UNK N   1      30.686  21.262  -5.117  0.00  0.00    -0.049 A 
HETATM    8  C   UNK N   1      30.609  20.429  -6.365  0.00  0.00     0.039 C 
HETATM    9  C   UNK N   1      29.793  21.061  -7.486  0.00  0.00     0.010 C 
HETATM   10  C   UNK N   1      28.540  21.732  -6.941  0.00  0.00    -0.000 C 
HETATM   11  C   UNK N   1      27.691  22.265  -8.104  0.00  0.00     0.001 C 
HETATM   12  C   UNK N   1      27.169  21.271  -9.138  0.00  0.00     0.008 C 
HETATM   13  C   UNK N   1      25.940  21.977  -9.748  0.00  0.00     0.033 C 
HETATM   14  C   UNK N   1      25.787  23.285  -8.961  0.00  0.00     0.126 C 
HETATM   15  C   UNK N   1      26.421  22.947  -7.615  0.00  0.00    -0.014 C 
HETATM   16  C   UNK N   1      25.501  21.995  -6.824  0.00  0.00     0.018 C 
HETATM   17  C   UNK N   1      26.796  24.135  -6.733  0.00  0.00     0.019 C 
HETATM   18  C   UNK N   1      27.657  23.690  -5.527  0.00  0.00     0.019 C 
ENDROOT
BRANCH  18  19
HETATM   19  C   UNK N   1      27.963  24.981  -4.766  0.00  0.00     0.172 C 
BRANCH  19  20
HETATM   20  O   UNK N   1      27.179  25.090  -3.614  0.00  0.00    -0.396 OA
HETATM   21  C   UNK N   1      26.639  26.374  -3.677  0.00  0.00     0.201 C 
ENDBRANCH  19  20
ENDBRANCH  18  19
BRANCH  14  22
HETATM   22  O   UNK N   1      24.454  23.685  -8.853  0.00  0.00    -0.395 OA
HETATM   23  H   UNK N   1      23.855  23.855  -9.596  0.00  0.00     0.210 HD
ENDBRANCH  14  22
BRANCH   5  24
HETATM   24  O   UNK N   1      32.593  21.193  -2.006  0.00  0.00    -0.361 OA
HETATM   25  H   UNK N   1      32.620  20.297  -1.730  0.00  0.00     0.217 HD
ENDBRANCH   5  24
TORSDOF 4
ENDMDL
MODEL 2
REMARK VINA RESULT:      -7.2      2.999      6.647
REMARK  4 active torsions:
REMARK  status: ('A' for Active; 'I' for Inactive)
REMARK    1  A    between atoms: C_5  and  O_6 
REMARK    2  A    between atoms: C_15  and  O_16 
REMARK    3  A    between atoms: C_20  and  C_21 
REMARK    4  A    between atoms: C_21  and  O_22 
ROOT
HETATM    1  C   UNK N   1      27.022  25.394  -5.780  0.00  0.00     0.030 C 
HETATM    2  C   UNK N   1      26.402  24.378  -6.747  0.00  0.00    -0.047 A 
HETATM    3  C   UNK N   1      26.173  23.053  -6.344  0.00  0.00     0.011 A 
HETATM    4  C   UNK N   1      25.645  22.110  -7.224  0.00  0.00     0.037 A 
HETATM    5  C   UNK N   1      25.354  22.468  -8.538  0.00  0.00     0.066 A 
HETATM    6  C   UNK N   1      25.596  23.772  -8.972  0.00  0.00     0.044 A 
HETATM    7  C   UNK N   1      26.123  24.728  -8.097  0.00  0.00    -0.049 A 
HETATM    8  C   UNK N   1      26.384  26.102  -8.647  0.00  0.00     0.039 C 
HETATM    9  C   UNK N   1      27.168  27.010  -7.708  0.00  0.00     0.010 C 
HETATM   10  C   UNK N   1      26.704  26.843  -6.268  0.00  0.00    -0.000 C 
HETATM   11  C   UNK N   1      27.440  27.845  -5.368  0.00  0.00     0.001 C 
HETATM   12  C   UNK N   1      27.271  29.336  -5.650  0.00  0.00     0.008 C 
HETATM   13  C   UNK N   1      27.594  30.010  -4.300  0.00  0.00     0.033 C 
HETATM   14  C   UNK N   1      27.836  28.860  -3.314  0.00  0.00     0.126 C 
HETATM   15  C   UNK N   1      27.012  27.723  -3.912  0.00  0.00    -0.014 C 
HETATM   16  C   UNK N   1      25.508  28.000  -3.709  0.00  0.00     0.018 C 
HETATM   17  C   UNK N   1      27.339  26.320  -3.408  0.00  0.00     0.019 C 
HETATM   18  C   UNK N   1      26.636  25.238  -4.260  0.00  0.00     0.019 C 
ENDROOT
BRANCH  18  19
HETATM   19  C   UNK N   1      27.078  23.907  -3.648  0.00  0.00     0.172 C 
BRANCH  19  20
HETATM   20  O   UNK N   1      27.225  24.010  -2.262  0.00  0.00    -0.396 OA
HETATM   21  C   UNK N   1      28.311  23.190  -1.963  0.00  0.00     0.201 C 
ENDBRANCH  19  20
ENDBRANCH  18  19
BRANCH  14  22
HETATM   22  O   UNK N   1      27.453  29.188  -2.013  0.00  0.00    -0.395 OA
HETATM   23  H   UNK N   1      28.031  29.172  -1.235  0.00  0.00     0.210 HD
ENDBRANCH  14  22
BRANCH   5  24
HETATM   24  O   UNK N   1      24.852  21.560  -9.388  0.00  0.00    -0.361 OA
HETATM   25  H   UNK N   1      24.295  20.871  -9.078  0.00  0.00     0.217 HD
ENDBRANCH   5  24
TORSDOF 4
ENDMDL
MODEL 3
REMARK VINA RESULT:      -7.0     21.374     24.935
REMARK  4 active torsions:
REMARK  status: ('A' for Active; 'I' for Inactive)
REMARK    1  A    between atoms: C_5  and  O_6 
REMARK    2  A    between atoms: C_15  and  O_16 
REMARK    3  A    between atoms: C_20  and  C_21 
REMARK    4  A    between atoms: C_21  and  O_22 
ROOT
HETATM    1  C   UNK N   1      35.874  11.391  15.101  0.00  0.00     0.030 C 
HETATM    2  C   UNK N   1      35.577  11.917  16.511  0.00  0.00    -0.047 A 
HETATM    3  C   UNK N   1      35.442  13.293  16.748  0.00  0.00     0.011 A 
HETATM    4  C   UNK N   1      35.210  13.787  18.031  0.00  0.00     0.037 A 
HETATM    5  C   UNK N   1      35.129  12.912  19.111  0.00  0.00     0.066 A 
HETATM    6  C   UNK N   1      35.285  11.541  18.906  0.00  0.00     0.044 A 
HETATM    7  C   UNK N   1      35.516  11.033  17.624  0.00  0.00    -0.049 A 
HETATM    8  C   UNK N   1      35.704   9.548  17.489  0.00  0.00     0.039 C 
HETATM    9  C   UNK N   1      36.179   9.103  16.112  0.00  0.00     0.010 C 
HETATM   10  C   UNK N   1      35.476   9.883  15.009  0.00  0.00    -0.000 C 
HETATM   11  C   UNK N   1      35.900   9.338  13.639  0.00  0.00     0.001 C 
HETATM   12  C   UNK N   1      35.604   7.876  13.315  0.00  0.00     0.008 C 
HETATM   13  C   UNK N   1      35.582   7.833  11.772  0.00  0.00     0.033 C 
HETATM   14  C   UNK N   1      35.775   9.285  11.318  0.00  0.00     0.126 C 
HETATM   15  C   UNK N   1      35.225  10.084  12.497  0.00  0.00    -0.014 C 
HETATM   16  C   UNK N   1      33.687   9.969  12.538  0.00  0.00     0.018 C 
HETATM   17  C   UNK N   1      35.622  11.556  12.552  0.00  0.00     0.019 C 
HETATM   18  C   UNK N   1      35.231  12.194  13.907  0.00  0.00     0.019 C 
ENDROOT
BRANCH  18  19
HETATM   19  C   UNK N   1      35.711  13.643  13.812  0.00  0.00     0.172 C 
BRANCH  19  20
HETATM   20  O   UNK N   1      35.021  14.343  12.819  0.00  0.00    -0.396 OA
HETATM   21  C   UNK N   1      35.979  15.181  12.250  0.00  0.00     0.201 C 
ENDBRANCH  19  20
ENDBRANCH  18  19
BRANCH  14  22
HETATM   22  O   UNK N   1      35.116   9.557  10.118  0.00  0.00    -0.395 OA
HETATM   23  H   UNK N   1      34.840  10.435   9.813  0.00  0.00     0.210 HD
ENDBRANCH  14  22
BRANCH   5  24
HETATM   24  O   UNK N   1      34.911  13.386  20.347  0.00  0.00    -0.361 OA
HETATM   25  H   UNK N   1      34.508  12.849  21.002  0.00  0.00     0.217 HD
ENDBRANCH   5  24
TORSDOF 4
ENDMDL
MODEL 4
REMARK VINA RESULT:      -6.9     16.104     17.018
REMARK  4 active torsions:
REMARK  status: ('A' for Active; 'I' for Inactive)
REMARK    1  A    between atoms: C_5  and  O_6 
REMARK    2  A    between atoms: C_15  and  O_16 
REMARK    3  A    between atoms: C_20  and  C_21 
REMARK    4  A    between atoms: C_21  and  O_22 
ROOT
HETATM    1  C   UNK N   1      21.486  14.889   7.323  0.00  0.00     0.030 C 
HETATM    2  C   UNK N   1      21.819  13.818   8.368  0.00  0.00    -0.047 A 
HETATM    3  C   UNK N   1      21.284  13.891   9.663  0.00  0.00     0.011 A 
HETATM    4  C   UNK N   1      21.608  12.944  10.635  0.00  0.00     0.037 A 
HETATM    5  C   UNK N   1      22.495  11.914  10.335  0.00  0.00     0.066 A 
HETATM    6  C   UNK N   1      23.061  11.833   9.063  0.00  0.00     0.044 A 
HETATM    7  C   UNK N   1      22.741  12.775   8.079  0.00  0.00    -0.049 A 
HETATM    8  C   UNK N   1      23.415  12.638   6.743  0.00  0.00     0.039 C 
HETATM    9  C   UNK N   1      23.198  13.824   5.812  0.00  0.00     0.010 C 
HETATM   10  C   UNK N   1      21.764  14.329   5.891  0.00  0.00    -0.000 C 
HETATM   11  C   UNK N   1      21.553  15.452   4.867  0.00  0.00     0.001 C 
HETATM   12  C   UNK N   1      21.761  15.136   3.388  0.00  0.00     0.008 C 
HETATM   13  C   UNK N   1      20.924  16.206   2.656  0.00  0.00     0.033 C 
HETATM   14  C   UNK N   1      20.222  17.005   3.762  0.00  0.00     0.126 C 
HETATM   15  C   UNK N   1      20.132  15.995   4.903  0.00  0.00    -0.014 C 
HETATM   16  C   UNK N   1      19.076  14.921   4.573  0.00  0.00     0.018 C 
HETATM   17  C   UNK N   1      19.849  16.573   6.287  0.00  0.00     0.019 C 
HETATM   18  C   UNK N   1      20.037  15.505   7.391  0.00  0.00     0.019 C 
ENDROOT
BRANCH  18  19
HETATM   19  C   UNK N   1      19.742  16.238   8.700  0.00  0.00     0.172 C 
BRANCH  19  20
HETATM   20  O   UNK N   1      18.437  15.993   9.137  0.00  0.00    -0.396 OA
HETATM   21  C   UNK N   1      17.917  17.256   9.415  0.00  0.00     0.201 C 
ENDBRANCH  19  20
ENDBRANCH  18  19
BRANCH  14  22
HETATM   22  O   UNK N   1      18.976  17.487   3.357  0.00  0.00    -0.395 OA
HETATM   23  H   UNK N   1      18.674  17.564   2.439  0.00  0.00     0.210 HD
ENDBRANCH  14  22
BRANCH   5  24
HETATM   24  O   UNK N   1      22.813  11.006  11.270  0.00  0.00    -0.361 OA
HETATM   25  H   UNK N   1      23.386  10.291  11.069  0.00  0.00     0.217 HD
ENDBRANCH   5  24
TORSDOF 4
ENDMDL
MODEL 5
REMARK VINA RESULT:      -6.7     12.578     14.514
REMARK  4 active torsions:
REMARK  status: ('A' for Active; 'I' for Inactive)
REMARK    1  A    between atoms: C_5  and  O_6 
REMARK    2  A    between atoms: C_15  and  O_16 
REMARK    3  A    between atoms: C_20  and  C_21 
REMARK    4  A    between atoms: C_21  and  O_22 
ROOT
HETATM    1  C   UNK N   1      31.466  15.759   6.127  0.00  0.00     0.030 C 
HETATM    2  C   UNK N   1      30.432  16.623   6.860  0.00  0.00    -0.047 A 
HETATM    3  C   UNK N   1      30.831  17.525   7.858  0.00  0.00     0.011 A 
HETATM    4  C   UNK N   1      29.898  18.289   8.558  0.00  0.00     0.037 A 
HETATM    5  C   UNK N   1      28.539  18.149   8.287  0.00  0.00     0.066 A 
HETATM    6  C   UNK N   1      28.114  17.241   7.318  0.00  0.00     0.044 A 
HETATM    7  C   UNK N   1      29.041  16.471   6.607  0.00  0.00    -0.049 A 
HETATM    8  C   UNK N   1      28.503  15.493   5.600  0.00  0.00     0.039 C 
HETATM    9  C   UNK N   1      29.548  14.536   5.042  0.00  0.00     0.010 C 
HETATM   10  C   UNK N   1      30.864  15.254   4.777  0.00  0.00    -0.000 C 
HETATM   11  C   UNK N   1      31.858  14.286   4.119  0.00  0.00     0.001 C 
HETATM   12  C   UNK N   1      31.488  13.666   2.775  0.00  0.00     0.008 C 
HETATM   13  C   UNK N   1      32.847  13.286   2.151  0.00  0.00     0.033 C 
HETATM   14  C   UNK N   1      33.907  13.796   3.137  0.00  0.00     0.126 C 
HETATM   15  C   UNK N   1      33.195  14.954   3.830  0.00  0.00    -0.014 C 
HETATM   16  C   UNK N   1      33.067  16.148   2.862  0.00  0.00     0.018 C 
HETATM   17  C   UNK N   1      33.813  15.432   5.141  0.00  0.00     0.019 C 
HETATM   18  C   UNK N   1      32.876  16.418   5.878  0.00  0.00     0.019 C 
ENDROOT
BRANCH  18  19
HETATM   19  C   UNK N   1      33.620  16.780   7.164  0.00  0.00     0.172 C 
BRANCH  19  20
HETATM   20  O   UNK N   1      34.490  17.855   6.962  0.00  0.00    -0.396 OA
HETATM   21  C   UNK N   1      34.581  18.472   8.209  0.00  0.00     0.201 C 
ENDBRANCH  19  20
ENDBRANCH  18  19
BRANCH  14  22
HETATM   22  O   UNK N   1      35.085  14.182   2.495  0.00  0.00    -0.395 OA
HETATM   23  H   UNK N   1      35.478  15.067   2.526  0.00  0.00     0.210 HD
ENDBRANCH  14  22
BRANCH   5  24
HETATM   24  O   UNK N   1      27.640  18.879   8.964  0.00  0.00    -0.361 OA
HETATM   25  H   UNK N   1      27.861  19.266   9.789  0.00  0.00     0.217 HD
ENDBRANCH   5  24
TORSDOF 4
ENDMDL
MODEL 6
REMARK VINA RESULT:      -6.6      2.210      4.706
REMARK  4 active torsions:
REMARK  status: ('A' for Active; 'I' for Inactive)
REMARK    1  A    between atoms: C_5  and  O_6 
REMARK    2  A    between atoms: C_15  and  O_16 
REMARK    3  A    between atoms: C_20  and  C_21 
REMARK    4  A    between atoms: C_21  and  O_22 
ROOT
HETATM    1  C   UNK N   1      28.585  23.918  -5.908  0.00  0.00     0.030 C 
HETATM    2  C   UNK N   1      28.870  22.495  -6.402  0.00  0.00    -0.047 A 
HETATM    3  C   UNK N   1      29.987  21.785  -5.936  0.00  0.00     0.011 A 
HETATM    4  C   UNK N   1      30.280  20.505  -6.405  0.00  0.00     0.037 A 
HETATM    5  C   UNK N   1      29.468  19.915  -7.371  0.00  0.00     0.066 A 
HETATM    6  C   UNK N   1      28.366  20.608  -7.869  0.00  0.00     0.044 A 
HETATM    7  C   UNK N   1      28.061  21.892  -7.404  0.00  0.00    -0.049 A 
HETATM    8  C   UNK N   1      26.875  22.586  -8.012  0.00  0.00     0.039 C 
HETATM    9  C   UNK N   1      26.749  24.055  -7.628  0.00  0.00     0.010 C 
HETATM   10  C   UNK N   1      27.083  24.268  -6.158  0.00  0.00    -0.000 C 
HETATM   11  C   UNK N   1      26.845  25.737  -5.781  0.00  0.00     0.001 C 
HETATM   12  C   UNK N   1      25.437  26.308  -5.935  0.00  0.00     0.008 C 
HETATM   13  C   UNK N   1      25.410  27.502  -4.958  0.00  0.00     0.033 C 
HETATM   14  C   UNK N   1      26.767  27.479  -4.245  0.00  0.00     0.126 C 
HETATM   15  C   UNK N   1      27.164  26.008  -4.318  0.00  0.00    -0.014 C 
HETATM   16  C   UNK N   1      26.290  25.179  -3.355  0.00  0.00     0.018 C 
HETATM   17  C   UNK N   1      28.635  25.696  -4.058  0.00  0.00     0.019 C 
HETATM   18  C   UNK N   1      28.970  24.228  -4.411  0.00  0.00     0.019 C 
ENDROOT
BRANCH  18  19
HETATM   19  C   UNK N   1      30.465  24.085  -4.120  0.00  0.00     0.172 C 
BRANCH  19  20
HETATM   20  O   UNK N   1      30.717  24.082  -2.745  0.00  0.00    -0.396 OA
HETATM   21  C   UNK N   1      30.203  22.866  -2.297  0.00  0.00     0.201 C 
ENDBRANCH  19  20
ENDBRANCH  18  19
BRANCH  14  22
HETATM   22  O   UNK N   1      26.686  27.960  -2.936  0.00  0.00    -0.395 OA
HETATM   23  H   UNK N   1      25.866  28.109  -2.441  0.00  0.00     0.210 HD
ENDBRANCH  14  22
BRANCH   5  24
HETATM   24  O   UNK N   1      29.752  18.685  -7.827  0.00  0.00    -0.361 OA
HETATM   25  H   UNK N   1      29.417  17.924  -7.394  0.00  0.00     0.217 HD
ENDBRANCH   5  24
TORSDOF 4
ENDMDL
MODEL 7
REMARK VINA RESULT:      -6.6      2.243      5.320
REMARK  4 active torsions:
REMARK  status: ('A' for Active; 'I' for Inactive)
REMARK    1  A    between atoms: C_5  and  O_6 
REMARK    2  A    between atoms: C_15  and  O_16 
REMARK    3  A    between atoms: C_20  and  C_21 
REMARK    4  A    between atoms: C_21  and  O_22 
ROOT
HETATM    1  C   UNK N   1      27.739  23.572  -5.138  0.00  0.00     0.030 C 
HETATM    2  C   UNK N   1      27.032  24.910  -4.889  0.00  0.00    -0.047 A 
HETATM    3  C   UNK N   1      27.246  25.623  -3.700  0.00  0.00     0.011 A 
HETATM    4  C   UNK N   1      26.581  26.822  -3.444  0.00  0.00     0.037 A 
HETATM    5  C   UNK N   1      25.667  27.322  -4.369  0.00  0.00     0.066 A 
HETATM    6  C   UNK N   1      25.417  26.620  -5.548  0.00  0.00     0.044 A 
HETATM    7  C   UNK N   1      26.081  25.418  -5.816  0.00  0.00    -0.049 A 
HETATM    8  C   UNK N   1      25.735  24.706  -7.093  0.00  0.00     0.039 C 
HETATM    9  C   UNK N   1      26.318  23.303  -7.201  0.00  0.00     0.010 C 
HETATM   10  C   UNK N   1      27.744  23.258  -6.668  0.00  0.00    -0.000 C 
HETATM   11  C   UNK N   1      28.335  21.859  -6.888  0.00  0.00     0.001 C 
HETATM   12  C   UNK N   1      28.449  21.335  -8.317  0.00  0.00     0.008 C 
HETATM   13  C   UNK N   1      29.566  20.273  -8.237  0.00  0.00     0.033 C 
HETATM   14  C   UNK N   1      30.078  20.325  -6.792  0.00  0.00     0.126 C 
HETATM   15  C   UNK N   1      29.763  21.758  -6.373  0.00  0.00    -0.014 C 
HETATM   16  C   UNK N   1      30.722  22.736  -7.081  0.00  0.00     0.018 C 
HETATM   17  C   UNK N   1      29.777  22.035  -4.872  0.00  0.00     0.019 C 
HETATM   18  C   UNK N   1      29.196  23.433  -4.553  0.00  0.00     0.019 C 
ENDROOT
BRANCH  18  19
HETATM   19  C   UNK N   1      29.259  23.547  -3.029  0.00  0.00     0.172 C 
BRANCH  19  20
HETATM   20  O   UNK N   1      30.488  24.063  -2.608  0.00  0.00    -0.396 OA
HETATM   21  C   UNK N   1      30.764  25.089  -3.511  0.00  0.00     0.201 C 
ENDBRANCH  19  20
ENDBRANCH  18  19
BRANCH  14  22
HETATM   22  O   UNK N   1      31.436  20.013  -6.700  0.00  0.00    -0.395 OA
HETATM   23  H   UNK N   1      32.082  20.097  -7.417  0.00  0.00     0.210 HD
ENDBRANCH  14  22
BRANCH   5  24
HETATM   24  O   UNK N   1      25.022  28.472  -4.122  0.00  0.00    -0.361 OA
HETATM   25  H   UNK N   1      25.498  29.271  -3.997  0.00  0.00     0.217 HD
ENDBRANCH   5  24
TORSDOF 4
ENDMDL
MODEL 8
REMARK VINA RESULT:      -6.4      1.964      3.927
REMARK  4 active torsions:
REMARK  status: ('A' for Active; 'I' for Inactive)
REMARK    1  A    between atoms: C_5  and  O_6 
REMARK    2  A    between atoms: C_15  and  O_16 
REMARK    3  A    between atoms: C_20  and  C_21 
REMARK    4  A    between atoms: C_21  and  O_22 
ROOT
HETATM    1  C   UNK N   1      28.537  23.164  -5.432  0.00  0.00     0.030 C 
HETATM    2  C   UNK N   1      29.683  22.654  -4.551  0.00  0.00    -0.047 A 
HETATM    3  C   UNK N   1      30.662  21.796  -5.075  0.00  0.00     0.011 A 
HETATM    4  C   UNK N   1      31.689  21.294  -4.276  0.00  0.00     0.037 A 
HETATM    5  C   UNK N   1      31.744  21.625  -2.924  0.00  0.00     0.066 A 
HETATM    6  C   UNK N   1      30.769  22.456  -2.372  0.00  0.00     0.044 A 
HETATM    7  C   UNK N   1      29.736  22.967  -3.165  0.00  0.00    -0.049 A 
HETATM    8  C   UNK N   1      28.707  23.830  -2.490  0.00  0.00     0.039 C 
HETATM    9  C   UNK N   1      27.499  24.153  -3.360  0.00  0.00     0.010 C 
HETATM   10  C   UNK N   1      27.917  24.448  -4.794  0.00  0.00    -0.000 C 
HETATM   11  C   UNK N   1      26.690  24.870  -5.614  0.00  0.00     0.001 C 
HETATM   12  C   UNK N   1      25.919  26.114  -5.180  0.00  0.00     0.008 C 
HETATM   13  C   UNK N   1      25.203  26.577  -6.467  0.00  0.00     0.033 C 
HETATM   14  C   UNK N   1      25.683  25.623  -7.569  0.00  0.00     0.126 C 
HETATM   15  C   UNK N   1      27.051  25.179  -7.059  0.00  0.00    -0.014 C 
HETATM   16  C   UNK N   1      28.061  26.338  -7.186  0.00  0.00     0.018 C 
HETATM   17  C   UNK N   1      27.635  23.928  -7.711  0.00  0.00     0.019 C 
HETATM   18  C   UNK N   1      28.884  23.428  -6.947  0.00  0.00     0.019 C 
ENDROOT
BRANCH  18  19
HETATM   19  C   UNK N   1      29.330  22.174  -7.701  0.00  0.00     0.172 C 
BRANCH  19  20
HETATM   20  O   UNK N   1      28.356  21.173  -7.643  0.00  0.00    -0.396 OA
HETATM   21  C   UNK N   1      28.947  20.072  -8.259  0.00  0.00     0.201 C 
ENDBRANCH  19  20
ENDBRANCH  18  19
BRANCH  14  22
HETATM   22  O   UNK N   1      25.738  26.243  -8.818  0.00  0.00    -0.395 OA
HETATM   23  H   UNK N   1      26.541  26.378  -9.344  0.00  0.00     0.210 HD
ENDBRANCH  14  22
BRANCH   5  24
HETATM   24  O   UNK N   1      32.728  21.138  -2.153  0.00  0.00    -0.361 OA
HETATM   25  H   UNK N   1      33.594  21.493  -2.201  0.00  0.00     0.217 HD
ENDBRANCH   5  24
TORSDOF 4
ENDMDL
MODEL 9
REMARK VINA RESULT:      -6.4     11.679     13.442
REMARK  4 active torsions:
REMARK  status: ('A' for Active; 'I' for Inactive)
REMARK    1  A    between atoms: C_5  and  O_6 
REMARK    2  A    between atoms: C_15  and  O_16 
REMARK    3  A    between atoms: C_20  and  C_21 
REMARK    4  A    between atoms: C_21  and  O_22 
ROOT
HETATM    1  C   UNK N   1      30.281  17.280   5.785  0.00  0.00     0.030 C 
HETATM    2  C   UNK N   1      31.575  17.474   6.584  0.00  0.00    -0.047 A 
HETATM    3  C   UNK N   1      31.535  17.905   7.918  0.00  0.00     0.011 A 
HETATM    4  C   UNK N   1      32.705  18.122   8.645  0.00  0.00     0.037 A 
HETATM    5  C   UNK N   1      33.946  17.932   8.041  0.00  0.00     0.066 A 
HETATM    6  C   UNK N   1      34.014  17.529   6.707  0.00  0.00     0.044 A 
HETATM    7  C   UNK N   1      32.847  17.305   5.969  0.00  0.00    -0.049 A 
HETATM    8  C   UNK N   1      33.003  16.902   4.530  0.00  0.00     0.039 C 
HETATM    9  C   UNK N   1      31.703  16.906   3.738  0.00  0.00     0.010 C 
HETATM   10  C   UNK N   1      30.554  16.343   4.564  0.00  0.00    -0.000 C 
HETATM   11  C   UNK N   1      29.286  16.265   3.703  0.00  0.00     0.001 C 
HETATM   12  C   UNK N   1      29.312  15.394   2.449  0.00  0.00     0.008 C 
HETATM   13  C   UNK N   1      27.826  15.062   2.195  0.00  0.00     0.033 C 
HETATM   14  C   UNK N   1      27.060  15.686   3.368  0.00  0.00     0.126 C 
HETATM   15  C   UNK N   1      28.104  15.706   4.481  0.00  0.00    -0.014 C 
HETATM   16  C   UNK N   1      28.352  14.274   4.996  0.00  0.00     0.018 C 
HETATM   17  C   UNK N   1      27.803  16.623   5.665  0.00  0.00     0.019 C 
HETATM   18  C   UNK N   1      29.032  16.762   6.594  0.00  0.00     0.019 C 
ENDROOT
BRANCH  18  19
HETATM   19  C   UNK N   1      28.580  17.716   7.702  0.00  0.00     0.172 C 
BRANCH  19  20
HETATM   20  O   UNK N   1      27.823  17.049   8.669  0.00  0.00    -0.396 OA
HETATM   21  C   UNK N   1      28.574  17.156   9.838  0.00  0.00     0.201 C 
ENDBRANCH  19  20
ENDBRANCH  18  19
BRANCH  14  22
HETATM   22  O   UNK N   1      25.917  14.957   3.702  0.00  0.00    -0.395 OA
HETATM   23  H   UNK N   1      25.686  14.649   4.592  0.00  0.00     0.210 HD
ENDBRANCH  14  22
BRANCH   5  24
HETATM   24  O   UNK N   1      35.073  18.147   8.737  0.00  0.00    -0.361 OA
HETATM   25  H   UNK N   1      35.892  17.798   8.441  0.00  0.00     0.217 HD
ENDBRANCH   5  24
TORSDOF 4
ENDMDL
