REMARK  4 active torsions:
REMARK  status: ('A' for Active; 'I' for Inactive)
REMARK    1  A    between atoms: C_5  and  O_6 
REMARK    2  A    between atoms: C_15  and  O_16 
REMARK    3  A    between atoms: C_20  and  C_21 
REMARK    4  A    between atoms: C_21  and  O_22 
ROOT
HETATM    1  C   UNK N   1       0.695   0.269   0.431  0.00  0.00     0.030 C 
HETATM    2  C   UNK N   1       2.148   0.675   0.158  0.00  0.00    -0.047 A 
HETATM    3  C   UNK N   1       3.181  -0.272   0.224  0.00  0.00     0.011 A 
HETATM    4  C   UNK N   1       4.511   0.091   0.015  0.00  0.00     0.037 A 
HETATM    5  C   UNK N   1       4.838   1.420  -0.244  0.00  0.00     0.066 A 
HETATM    6  C   UNK N   1       3.833   2.386  -0.290  0.00  0.00     0.044 A 
HETATM    7  C   UNK N   1       2.495   2.033  -0.085  0.00  0.00    -0.049 A 
HETATM    8  C   UNK N   1       1.474   3.135  -0.120  0.00  0.00     0.039 C 
HETATM    9  C   UNK N   1       0.085   2.712   0.340  0.00  0.00     0.010 C 
HETATM   10  C   UNK N   1      -0.271   1.329  -0.188  0.00  0.00    -0.000 C 
HETATM   11  C   UNK N   1      -1.713   0.980   0.206  0.00  0.00     0.001 C 
HETATM   12  C   UNK N   1      -2.841   1.878  -0.295  0.00  0.00     0.008 C 
HETATM   13  C   UNK N   1      -4.087   0.968  -0.258  0.00  0.00     0.033 C 
HETATM   14  C   UNK N   1      -3.574  -0.412   0.173  0.00  0.00     0.126 C 
HETATM   15  C   UNK N   1      -2.123  -0.396  -0.299  0.00  0.00    -0.014 C 
HETATM   16  C   UNK N   1      -2.068  -0.507  -1.836  0.00  0.00     0.018 C 
HETATM   17  C   UNK N   1      -1.207  -1.451   0.316  0.00  0.00     0.019 C 
HETATM   18  C   UNK N   1       0.276  -1.179  -0.031  0.00  0.00     0.019 C 
ENDROOT
BRANCH  18  19
HETATM   19  C   UNK N   1       1.054  -2.295   0.668  0.00  0.00     0.172 C 
BRANCH  19  20
HETATM   20  O   UNK N   1       2.080  -2.785  -0.145  0.00  0.00    -0.396 OA
HETATM   21  C   UNK N   1       2.352  -4.055   0.361  0.00  0.00     0.201 C 
ENDBRANCH  19  20
ENDBRANCH  18  19
BRANCH  14  22
HETATM   22  O   UNK N   1      -4.320  -1.452  -0.385  0.00  0.00    -0.395 OA
HETATM   23  H   UNK N   1      -5.204  -1.365  -0.773  0.00  0.00     0.210 HD
ENDBRANCH  14  22
BRANCH   5  24
HETATM   24  O   UNK N   1       6.118   1.772  -0.439  0.00  0.00    -0.361 OA
HETATM   25  H   UNK N   1       6.778   1.120  -0.576  0.00  0.00     0.217 HD
ENDBRANCH   5  24
TORSDOF 4
