MODEL 1
REMARK VINA RESULT:      -6.7      0.000      0.000
REMARK  3 active torsions:
REMARK  status: ('A' for Active; 'I' for Inactive)
REMARK    1  A    between atoms: C_5  and  O_6 
REMARK    2  A    between atoms: N_12  and  C_13 
REMARK    3  A    between atoms: C_18  and  O_19 
ROOT
HETATM    1 Cl   UNK N   1      29.089  17.261   4.121  0.00  0.00    -0.061 Cl
HETATM    2  C   UNK N   1      28.535  17.971   5.634  0.00  0.00     0.138 A 
HETATM    3  C   UNK N   1      29.121  17.781   6.865  0.00  0.00     0.035 A 
HETATM    4  C   UNK N   1      30.226  17.044   7.282  0.00  0.00     0.053 A 
HETATM    5  C   UNK N   1      30.548  17.078   8.655  0.00  0.00     0.066 A 
HETATM    6  C   UNK N   1      29.766  17.837   9.558  0.00  0.00     0.039 A 
HETATM    7  C   UNK N   1      28.656  18.567   9.100  0.00  0.00     0.034 A 
HETATM    8  C   UNK N   1      28.370  18.509   7.742  0.00  0.00     0.062 A 
HETATM    9  N   UNK N   1      27.371  19.122   7.095  0.00  0.00    -0.292 N 
ATOM     10  HN  UNK N   1      26.665  19.728   7.513  1.00  0.00     0.187 HD
HETATM   11  N   UNK N   1      27.465  18.797   5.808  0.00  0.00    -0.244 N 
ENDROOT
BRANCH  11  12
HETATM   12  C   UNK N   1      26.528  19.301   4.840  0.00  0.00     0.058 A 
HETATM   13  C   UNK N   1      25.178  18.918   4.841  0.00  0.00     0.034 A 
HETATM   14  C   UNK N   1      24.302  19.436   3.879  0.00  0.00     0.039 A 
HETATM   15  C   UNK N   1      24.771  20.336   2.916  0.00  0.00     0.065 A 
HETATM   16  C   UNK N   1      26.111  20.719   2.911  0.00  0.00     0.039 A 
HETATM   17  C   UNK N   1      26.983  20.203   3.868  0.00  0.00     0.034 A 
BRANCH  15  18
HETATM   18  O   UNK N   1      23.934  20.834   1.993  0.00  0.00    -0.361 OA
HETATM   19  H   UNK N   1      23.027  20.956   2.200  0.00  0.00     0.217 HD
ENDBRANCH  15  18
ENDBRANCH  11  12
BRANCH   5  20
HETATM   20  O   UNK N   1      31.604  16.387   9.110  0.00  0.00    -0.361 OA
HETATM   21  H   UNK N   1      31.829  15.564   8.721  0.00  0.00     0.217 HD
ENDBRANCH   5  20
TORSDOF 3
ENDMDL
MODEL 2
REMARK VINA RESULT:      -6.3     11.401     14.788
REMARK  3 active torsions:
REMARK  status: ('A' for Active; 'I' for Inactive)
REMARK    1  A    between atoms: C_5  and  O_6 
REMARK    2  A    between atoms: N_12  and  C_13 
REMARK    3  A    between atoms: C_18  and  O_19 
ROOT
HETATM    1 Cl   UNK N   1      37.320  15.240  15.778  0.00  0.00    -0.061 Cl
HETATM    2  C   UNK N   1      36.313  14.111  14.876  0.00  0.00     0.138 A 
HETATM    3  C   UNK N   1      36.071  14.166  13.522  0.00  0.00     0.035 A 
HETATM    4  C   UNK N   1      36.493  15.036  12.521  0.00  0.00     0.053 A 
HETATM    5  C   UNK N   1      36.038  14.786  11.209  0.00  0.00     0.066 A 
HETATM    6  C   UNK N   1      35.187  13.688  10.941  0.00  0.00     0.039 A 
HETATM    7  C   UNK N   1      34.781  12.831  11.978  0.00  0.00     0.034 A 
HETATM    8  C   UNK N   1      35.249  13.109  13.256  0.00  0.00     0.062 A 
HETATM    9  N   UNK N   1      34.992  12.431  14.381  0.00  0.00    -0.292 N 
ATOM     10  HN  UNK N   1      34.406  11.600  14.463  1.00  0.00     0.187 HD
HETATM   11  N   UNK N   1      35.638  13.038  15.374  0.00  0.00    -0.244 N 
ENDROOT
BRANCH  11  12
HETATM   12  C   UNK N   1      35.564  12.545  16.723  0.00  0.00     0.058 A 
HETATM   13  C   UNK N   1      35.854  11.211  17.047  0.00  0.00     0.034 A 
HETATM   14  C   UNK N   1      35.769  10.778  18.376  0.00  0.00     0.039 A 
HETATM   15  C   UNK N   1      35.393  11.674  19.383  0.00  0.00     0.065 A 
HETATM   16  C   UNK N   1      35.104  13.000  19.066  0.00  0.00     0.039 A 
HETATM   17  C   UNK N   1      35.189  13.431  17.744  0.00  0.00     0.034 A 
BRANCH  15  18
HETATM   18  O   UNK N   1      35.311  11.261  20.657  0.00  0.00    -0.361 OA
HETATM   19  H   UNK N   1      35.874  11.633  21.308  0.00  0.00     0.217 HD
ENDBRANCH  15  18
ENDBRANCH  11  12
BRANCH   5  20
HETATM   20  O   UNK N   1      36.416  15.593  10.206  0.00  0.00    -0.361 OA
HETATM   21  H   UNK N   1      36.159  16.494  10.208  0.00  0.00     0.217 HD
ENDBRANCH   5  20
TORSDOF 3
ENDMDL
MODEL 3
REMARK VINA RESULT:      -6.2     11.345     14.673
REMARK  3 active torsions:
REMARK  status: ('A' for Active; 'I' for Inactive)
REMARK    1  A    between atoms: C_5  and  O_6 
REMARK    2  A    between atoms: N_12  and  C_13 
REMARK    3  A    between atoms: C_18  and  O_19 
ROOT
HETATM    1 Cl   UNK N   1      33.850  10.552  14.372  0.00  0.00    -0.061 Cl
HETATM    2  C   UNK N   1      34.787  12.038  14.246  0.00  0.00     0.138 A 
HETATM    3  C   UNK N   1      35.059  12.712  13.078  0.00  0.00     0.035 A 
HETATM    4  C   UNK N   1      34.724  12.473  11.748  0.00  0.00     0.053 A 
HETATM    5  C   UNK N   1      35.183  13.395  10.786  0.00  0.00     0.066 A 
HETATM    6  C   UNK N   1      35.955  14.516  11.176  0.00  0.00     0.039 A 
HETATM    7  C   UNK N   1      36.275  14.724  12.528  0.00  0.00     0.034 A 
HETATM    8  C   UNK N   1      35.804  13.795  13.446  0.00  0.00     0.062 A 
HETATM    9  N   UNK N   1      35.988  13.798  14.772  0.00  0.00    -0.292 N 
ATOM     10  HN  UNK N   1      36.507  14.494  15.307  1.00  0.00     0.187 HD
HETATM   11  N   UNK N   1      35.369  12.728  15.267  0.00  0.00    -0.244 N 
ENDROOT
BRANCH  11  12
HETATM   12  C   UNK N   1      35.380  12.445  16.677  0.00  0.00     0.058 A 
HETATM   13  C   UNK N   1      35.101  13.430  17.636  0.00  0.00     0.034 A 
HETATM   14  C   UNK N   1      35.122  13.108  18.999  0.00  0.00     0.039 A 
HETATM   15  C   UNK N   1      35.422  11.804  19.406  0.00  0.00     0.065 A 
HETATM   16  C   UNK N   1      35.700  10.822  18.457  0.00  0.00     0.039 A 
HETATM   17  C   UNK N   1      35.679  11.143  17.102  0.00  0.00     0.034 A 
BRANCH  15  18
HETATM   18  O   UNK N   1      35.443  11.493  20.711  0.00  0.00    -0.361 OA
HETATM   19  H   UNK N   1      35.861  10.704  20.999  0.00  0.00     0.217 HD
ENDBRANCH  15  18
ENDBRANCH  11  12
BRANCH   5  20
HETATM   20  O   UNK N   1      34.887  13.212   9.489  0.00  0.00    -0.361 OA
HETATM   21  H   UNK N   1      35.429  13.593   8.827  0.00  0.00     0.217 HD
ENDBRANCH   5  20
TORSDOF 3
ENDMDL
MODEL 4
REMARK VINA RESULT:      -6.1     12.217     14.681
REMARK  3 active torsions:
REMARK  status: ('A' for Active; 'I' for Inactive)
REMARK    1  A    between atoms: C_5  and  O_6 
REMARK    2  A    between atoms: N_12  and  C_13 
REMARK    3  A    between atoms: C_18  and  O_19 
ROOT
HETATM    1 Cl   UNK N   1      33.399  10.638  14.473  0.00  0.00    -0.061 Cl
HETATM    2  C   UNK N   1      34.795  11.641  14.092  0.00  0.00     0.138 A 
HETATM    3  C   UNK N   1      35.291  11.870  12.829  0.00  0.00     0.035 A 
HETATM    4  C   UNK N   1      34.900  11.433  11.566  0.00  0.00     0.053 A 
HETATM    5  C   UNK N   1      35.657  11.877  10.462  0.00  0.00     0.066 A 
HETATM    6  C   UNK N   1      36.769  12.732  10.651  0.00  0.00     0.039 A 
HETATM    7  C   UNK N   1      37.134  13.151  11.941  0.00  0.00     0.034 A 
HETATM    8  C   UNK N   1      36.365  12.694  13.003  0.00  0.00     0.062 A 
HETATM    9  N   UNK N   1      36.531  12.966  14.303  0.00  0.00    -0.292 N 
ATOM     10  HN  UNK N   1      37.258  13.557  14.707  1.00  0.00     0.187 HD
HETATM   11  N   UNK N   1      35.576  12.326  14.974  0.00  0.00    -0.244 N 
ENDROOT
BRANCH  11  12
HETATM   12  C   UNK N   1      35.480  12.417  16.406  0.00  0.00     0.058 A 
HETATM   13  C   UNK N   1      35.590  11.290  17.234  0.00  0.00     0.034 A 
HETATM   14  C   UNK N   1      35.491  11.428  18.624  0.00  0.00     0.039 A 
HETATM   15  C   UNK N   1      35.282  12.691  19.189  0.00  0.00     0.065 A 
HETATM   16  C   UNK N   1      35.173  13.814  18.371  0.00  0.00     0.039 A 
HETATM   17  C   UNK N   1      35.271  13.676  16.988  0.00  0.00     0.034 A 
BRANCH  15  18
HETATM   18  O   UNK N   1      35.188  12.827  20.521  0.00  0.00    -0.361 OA
HETATM   19  H   UNK N   1      35.631  12.225  21.087  0.00  0.00     0.217 HD
ENDBRANCH  15  18
ENDBRANCH  11  12
BRANCH   5  20
HETATM   20  O   UNK N   1      35.322  11.486   9.223  0.00  0.00    -0.361 OA
HETATM   21  H   UNK N   1      35.540  10.624   8.928  0.00  0.00     0.217 HD
ENDBRANCH   5  20
TORSDOF 3
ENDMDL
MODEL 5
REMARK VINA RESULT:      -6.1      1.445      6.680
REMARK  3 active torsions:
REMARK  status: ('A' for Active; 'I' for Inactive)
REMARK    1  A    between atoms: C_5  and  O_6 
REMARK    2  A    between atoms: N_12  and  C_13 
REMARK    3  A    between atoms: C_18  and  O_19 
ROOT
HETATM    1 Cl   UNK N   1      27.759  21.322   5.843  0.00  0.00    -0.061 Cl
HETATM    2  C   UNK N   1      26.918  19.790   5.626  0.00  0.00     0.138 A 
HETATM    3  C   UNK N   1      25.766  19.610   4.894  0.00  0.00     0.035 A 
HETATM    4  C   UNK N   1      24.966  20.482   4.160  0.00  0.00     0.053 A 
HETATM    5  C   UNK N   1      23.832  19.940   3.521  0.00  0.00     0.066 A 
HETATM    6  C   UNK N   1      23.534  18.561   3.633  0.00  0.00     0.039 A 
HETATM    7  C   UNK N   1      24.365  17.712   4.384  0.00  0.00     0.034 A 
HETATM    8  C   UNK N   1      25.472  18.281   4.998  0.00  0.00     0.062 A 
HETATM    9  N   UNK N   1      26.390  17.664   5.753  0.00  0.00    -0.292 N 
ATOM     10  HN  UNK N   1      26.407  16.672   5.989  1.00  0.00     0.187 HD
HETATM   11  N   UNK N   1      27.275  18.580   6.141  0.00  0.00    -0.244 N 
ENDROOT
BRANCH  11  12
HETATM   12  C   UNK N   1      28.396  18.230   6.971  0.00  0.00     0.058 A 
HETATM   13  C   UNK N   1      28.481  18.627   8.314  0.00  0.00     0.034 A 
HETATM   14  C   UNK N   1      29.592  18.262   9.084  0.00  0.00     0.039 A 
HETATM   15  C   UNK N   1      30.619  17.500   8.515  0.00  0.00     0.065 A 
HETATM   16  C   UNK N   1      30.539  17.104   7.182  0.00  0.00     0.039 A 
HETATM   17  C   UNK N   1      29.433  17.468   6.416  0.00  0.00     0.034 A 
BRANCH  15  18
HETATM   18  O   UNK N   1      31.685  17.149   9.251  0.00  0.00    -0.361 OA
HETATM   19  H   UNK N   1      32.519  17.026   8.840  0.00  0.00     0.217 HD
ENDBRANCH  15  18
ENDBRANCH  11  12
BRANCH   5  20
HETATM   20  O   UNK N   1      23.028  20.737   2.800  0.00  0.00    -0.361 OA
HETATM   21  H   UNK N   1      23.067  21.666   2.911  0.00  0.00     0.217 HD
ENDBRANCH   5  20
TORSDOF 3
ENDMDL
MODEL 6
REMARK VINA RESULT:      -6.1      3.633      5.925
REMARK  3 active torsions:
REMARK  status: ('A' for Active; 'I' for Inactive)
REMARK    1  A    between atoms: C_5  and  O_6 
REMARK    2  A    between atoms: N_12  and  C_13 
REMARK    3  A    between atoms: C_18  and  O_19 
ROOT
HETATM    1 Cl   UNK N   1      30.051  17.111   7.541  0.00  0.00    -0.061 Cl
HETATM    2  C   UNK N   1      29.327  17.983   6.194  0.00  0.00     0.138 A 
HETATM    3  C   UNK N   1      28.338  18.935   6.301  0.00  0.00     0.035 A 
HETATM    4  C   UNK N   1      27.653  19.469   7.388  0.00  0.00     0.053 A 
HETATM    5  C   UNK N   1      26.678  20.453   7.123  0.00  0.00     0.066 A 
HETATM    6  C   UNK N   1      26.421  20.869   5.795  0.00  0.00     0.039 A 
HETATM    7  C   UNK N   1      27.132  20.307   4.722  0.00  0.00     0.034 A 
HETATM    8  C   UNK N   1      28.084  19.341   5.022  0.00  0.00     0.062 A 
HETATM    9  N   UNK N   1      28.870  18.680   4.164  0.00  0.00    -0.292 N 
ATOM     10  HN  UNK N   1      28.884  18.792   3.150  1.00  0.00     0.187 HD
HETATM   11  N   UNK N   1      29.631  17.849   4.873  0.00  0.00    -0.244 N 
ENDROOT
BRANCH  11  12
HETATM   12  C   UNK N   1      30.593  16.991   4.235  0.00  0.00     0.058 A 
HETATM   13  C   UNK N   1      30.298  15.661   3.898  0.00  0.00     0.034 A 
HETATM   14  C   UNK N   1      31.266  14.863   3.277  0.00  0.00     0.039 A 
HETATM   15  C   UNK N   1      32.531  15.390   2.992  0.00  0.00     0.065 A 
HETATM   16  C   UNK N   1      32.829  16.710   3.325  0.00  0.00     0.039 A 
HETATM   17  C   UNK N   1      31.865  17.504   3.943  0.00  0.00     0.034 A 
BRANCH  15  18
HETATM   18  O   UNK N   1      33.461  14.628   2.397  0.00  0.00    -0.361 OA
HETATM   19  H   UNK N   1      33.988  14.983   1.708  0.00  0.00     0.217 HD
ENDBRANCH  15  18
ENDBRANCH  11  12
BRANCH   5  20
HETATM   20  O   UNK N   1      25.989  21.001   8.136  0.00  0.00    -0.361 OA
HETATM   21  H   UNK N   1      26.135  21.896   8.371  0.00  0.00     0.217 HD
ENDBRANCH   5  20
TORSDOF 3
ENDMDL
MODEL 7
REMARK VINA RESULT:      -6.0      7.114      7.606
REMARK  3 active torsions:
REMARK  status: ('A' for Active; 'I' for Inactive)
REMARK    1  A    between atoms: C_5  and  O_6 
REMARK    2  A    between atoms: N_12  and  C_13 
REMARK    3  A    between atoms: C_18  and  O_19 
ROOT
HETATM    1 Cl   UNK N   1      24.364  14.706   6.812  0.00  0.00    -0.061 Cl
HETATM    2  C   UNK N   1      23.087  14.124   7.876  0.00  0.00     0.138 A 
HETATM    3  C   UNK N   1      23.281  13.412   9.037  0.00  0.00     0.035 A 
HETATM    4  C   UNK N   1      24.425  12.960   9.689  0.00  0.00     0.053 A 
HETATM    5  C   UNK N   1      24.247  12.242  10.890  0.00  0.00     0.066 A 
HETATM    6  C   UNK N   1      22.948  12.000  11.397  0.00  0.00     0.039 A 
HETATM    7  C   UNK N   1      21.816  12.471  10.710  0.00  0.00     0.034 A 
HETATM    8  C   UNK N   1      22.031  13.173   9.531  0.00  0.00     0.062 A 
HETATM    9  N   UNK N   1      21.107  13.708   8.723  0.00  0.00    -0.292 N 
ATOM     10  HN  UNK N   1      20.097  13.676   8.860  1.00  0.00     0.187 HD
HETATM   11  N   UNK N   1      21.745  14.290   7.710  0.00  0.00    -0.244 N 
ENDROOT
BRANCH  11  12
HETATM   12  C   UNK N   1      21.025  14.961   6.662  0.00  0.00     0.058 A 
HETATM   13  C   UNK N   1      20.096  14.294   5.851  0.00  0.00     0.034 A 
HETATM   14  C   UNK N   1      19.418  14.990   4.842  0.00  0.00     0.039 A 
HETATM   15  C   UNK N   1      19.666  16.352   4.642  0.00  0.00     0.065 A 
HETATM   16  C   UNK N   1      20.589  17.019   5.446  0.00  0.00     0.039 A 
HETATM   17  C   UNK N   1      21.263  16.327   6.449  0.00  0.00     0.034 A 
BRANCH  15  18
HETATM   18  O   UNK N   1      19.018  17.021   3.677  0.00  0.00    -0.361 OA
HETATM   19  H   UNK N   1      19.358  17.836   3.361  0.00  0.00     0.217 HD
ENDBRANCH  15  18
ENDBRANCH  11  12
BRANCH   5  20
HETATM   20  O   UNK N   1      25.316  11.784  11.560  0.00  0.00    -0.361 OA
HETATM   21  H   UNK N   1      25.364  11.885  12.490  0.00  0.00     0.217 HD
ENDBRANCH   5  20
TORSDOF 3
ENDMDL
MODEL 8
REMARK VINA RESULT:      -5.9      3.207      7.728
REMARK  3 active torsions:
REMARK  status: ('A' for Active; 'I' for Inactive)
REMARK    1  A    between atoms: C_5  and  O_6 
REMARK    2  A    between atoms: N_12  and  C_13 
REMARK    3  A    between atoms: C_18  and  O_19 
ROOT
HETATM    1 Cl   UNK N   1      29.713  18.460   9.626  0.00  0.00    -0.061 Cl
HETATM    2  C   UNK N   1      30.015  17.903   7.983  0.00  0.00     0.138 A 
HETATM    3  C   UNK N   1      29.104  17.933   6.951  0.00  0.00     0.035 A 
HETATM    4  C   UNK N   1      27.784  18.365   6.868  0.00  0.00     0.053 A 
HETATM    5  C   UNK N   1      27.138  18.244   5.621  0.00  0.00     0.066 A 
HETATM    6  C   UNK N   1      27.822  17.702   4.507  0.00  0.00     0.039 A 
HETATM    7  C   UNK N   1      29.156  17.276   4.629  0.00  0.00     0.034 A 
HETATM    8  C   UNK N   1      29.758  17.410   5.873  0.00  0.00     0.062 A 
HETATM    9  N   UNK N   1      31.009  17.073   6.211  0.00  0.00    -0.292 N 
ATOM     10  HN  UNK N   1      31.709  16.662   5.594  1.00  0.00     0.187 HD
HETATM   11  N   UNK N   1      31.172  17.371   7.498  0.00  0.00    -0.244 N 
ENDROOT
BRANCH  11  12
HETATM   12  C   UNK N   1      32.421  17.126   8.168  0.00  0.00     0.058 A 
HETATM   13  C   UNK N   1      33.474  18.052   8.142  0.00  0.00     0.034 A 
HETATM   14  C   UNK N   1      34.672  17.770   8.810  0.00  0.00     0.039 A 
HETATM   15  C   UNK N   1      34.821  16.565   9.503  0.00  0.00     0.065 A 
HETATM   16  C   UNK N   1      33.778  15.641   9.532  0.00  0.00     0.039 A 
HETATM   17  C   UNK N   1      32.586  15.922   8.868  0.00  0.00     0.034 A 
BRANCH  15  18
HETATM   18  O   UNK N   1      35.968  16.292  10.144  0.00  0.00    -0.361 OA
HETATM   19  H   UNK N   1      36.036  16.439  11.068  0.00  0.00     0.217 HD
ENDBRANCH  15  18
ENDBRANCH  11  12
BRANCH   5  20
HETATM   20  O   UNK N   1      25.865  18.646   5.486  0.00  0.00    -0.361 OA
HETATM   21  H   UNK N   1      25.340  18.313   4.785  0.00  0.00     0.217 HD
ENDBRANCH   5  20
TORSDOF 3
ENDMDL
MODEL 9
REMARK VINA RESULT:      -5.9      5.391      6.668
REMARK  3 active torsions:
REMARK  status: ('A' for Active; 'I' for Inactive)
REMARK    1  A    between atoms: C_5  and  O_6 
REMARK    2  A    between atoms: N_12  and  C_13 
REMARK    3  A    between atoms: C_18  and  O_19 
ROOT
HETATM    1 Cl   UNK N   1      23.879  15.149   5.242  0.00  0.00    -0.061 Cl
HETATM    2  C   UNK N   1      22.620  16.044   6.087  0.00  0.00     0.138 A 
HETATM    3  C   UNK N   1      21.833  15.546   7.101  0.00  0.00     0.035 A 
HETATM    4  C   UNK N   1      21.773  14.306   7.729  0.00  0.00     0.053 A 
HETATM    5  C   UNK N   1      20.819  14.143   8.756  0.00  0.00     0.066 A 
HETATM    6  C   UNK N   1      19.965  15.211   9.119  0.00  0.00     0.039 A 
HETATM    7  C   UNK N   1      20.054  16.450   8.461  0.00  0.00     0.034 A 
HETATM    8  C   UNK N   1      21.005  16.572   7.456  0.00  0.00     0.062 A 
HETATM    9  N   UNK N   1      21.261  17.651   6.706  0.00  0.00    -0.292 N 
ATOM     10  HN  UNK N   1      20.787  18.552   6.767  1.00  0.00     0.187 HD
HETATM   11  N   UNK N   1      22.245  17.335   5.868  0.00  0.00    -0.244 N 
ENDROOT
BRANCH  11  12
HETATM   12  C   UNK N   1      22.756  18.291   4.923  0.00  0.00     0.058 A 
HETATM   13  C   UNK N   1      21.920  18.966   4.020  0.00  0.00     0.034 A 
HETATM   14  C   UNK N   1      22.462  19.889   3.118  0.00  0.00     0.039 A 
HETATM   15  C   UNK N   1      23.838  20.140   3.114  0.00  0.00     0.065 A 
HETATM   16  C   UNK N   1      24.673  19.472   4.008  0.00  0.00     0.039 A 
HETATM   17  C   UNK N   1      24.133  18.554   4.906  0.00  0.00     0.034 A 
BRANCH  15  18
HETATM   18  O   UNK N   1      24.361  21.024   2.250  0.00  0.00    -0.361 OA
HETATM   19  H   UNK N   1      23.963  21.151   1.411  0.00  0.00     0.217 HD
ENDBRANCH  15  18
ENDBRANCH  11  12
BRANCH   5  20
HETATM   20  O   UNK N   1      20.720  12.967   9.395  0.00  0.00    -0.361 OA
HETATM   21  H   UNK N   1      21.008  12.180   8.975  0.00  0.00     0.217 HD
ENDBRANCH   5  20
TORSDOF 3
ENDMDL
