REMARK  3 active torsions:
REMARK  status: ('A' for Active; 'I' for Inactive)
REMARK    1  A    between atoms: C_5  and  O_6 
REMARK    2  A    between atoms: N_12  and  C_13 
REMARK    3  A    between atoms: C_18  and  O_19 
ROOT
HETATM    1 Cl   UNK N   1      -0.067  -2.493  -0.001  0.00  0.00    -0.061 Cl
HETATM    2  C   UNK N   1       0.567  -0.850   0.000  0.00  0.00     0.138 A 
HETATM    3  C   UNK N   1       1.901  -0.511   0.000  0.00  0.00     0.035 A 
HETATM    4  C   UNK N   1       3.069  -1.268  -0.000  0.00  0.00     0.053 A 
HETATM    5  C   UNK N   1       4.295  -0.571  -0.000  0.00  0.00     0.066 A 
HETATM    6  C   UNK N   1       4.317   0.844   0.000  0.00  0.00     0.039 A 
HETATM    7  C   UNK N   1       3.117   1.575   0.001  0.00  0.00     0.034 A 
HETATM    8  C   UNK N   1       1.930   0.854   0.001  0.00  0.00     0.062 A 
HETATM    9  N   UNK N   1       0.683   1.341   0.001  0.00  0.00    -0.292 N 
ATOM     10  HN  UNK N   1       0.422   2.327   0.001  1.00  0.00     0.187 HD
HETATM   11  N   UNK N   1      -0.154   0.306   0.001  0.00  0.00    -0.244 N 
ENDROOT
BRANCH  11  12
HETATM   12  C   UNK N   1      -1.579   0.499   0.000  0.00  0.00     0.058 A 
HETATM   13  C   UNK N   1      -2.477  -0.579   0.001  0.00  0.00     0.034 A 
HETATM   14  C   UNK N   1      -3.857  -0.342   0.001  0.00  0.00     0.039 A 
HETATM   15  C   UNK N   1      -4.343   0.970  -0.001  0.00  0.00     0.065 A 
HETATM   16  C   UNK N   1      -3.455   2.044  -0.002  0.00  0.00     0.039 A 
HETATM   17  C   UNK N   1      -2.082   1.808  -0.002  0.00  0.00     0.034 A 
BRANCH  15  18
HETATM   18  O   UNK N   1      -5.665   1.200  -0.001  0.00  0.00    -0.361 OA
HETATM   19  H   UNK N   1      -5.988   2.080  -0.001  0.00  0.00     0.217 HD
ENDBRANCH  15  18
ENDBRANCH  11  12
BRANCH   5  20
HETATM   20  O   UNK N   1       5.451  -1.253  -0.001  0.00  0.00    -0.361 OA
HETATM   21  H   UNK N   1       5.442  -2.190  -0.002  0.00  0.00     0.217 HD
ENDBRANCH   5  20
TORSDOF 3
