MODEL 1
REMARK VINA RESULT:      -6.3      0.000      0.000
REMARK  16 active torsions:
REMARK  status: ('A' for Active; 'I' for Inactive)
REMARK    1  A    between atoms: S_1  and  N_4 
REMARK    2  A    between atoms: S_1  and  C_8 
REMARK    3  A    between atoms: C_5  and  C_11 
REMARK       I    between atoms: C_11  and  N_13 
REMARK    4  A    between atoms: N_13  and  C_14 
REMARK    5  A    between atoms: C_14  and  C_15 
REMARK    6  A    between atoms: C_15  and  O_16 
REMARK    7  A    between atoms: O_16  and  C_17 
REMARK    8  A    between atoms: C_17  and  C_18 
REMARK    9  A    between atoms: C_18  and  O_19 
REMARK   10  A    between atoms: O_19  and  C_20 
REMARK   11  A    between atoms: C_20  and  C_21 
REMARK   12  A    between atoms: C_21  and  N_22 
REMARK       I    between atoms: N_22  and  C_23 
REMARK   13  A    between atoms: C_23  and  C_25 
REMARK   14  A    between atoms: C_25  and  N_26 
REMARK   15  A    between atoms: C_25  and  C_27 
REMARK   16  A    between atoms: C_27  and  C_28 
ROOT
HETATM    1  C   UNK N   1      29.790  28.895  -3.798  0.00  0.00     0.193 C 
ENDROOT
BRANCH   1   2
HETATM    2  O   UNK N   1      28.949  29.784  -3.109  0.00  0.00    -0.387 OA
BRANCH   2   3
HETATM    3  C   UNK N   1      27.946  30.310  -3.961  0.00  0.00     0.187 C 
BRANCH   3   4
HETATM    4  C   UNK N   1      26.495  30.248  -3.453  0.00  0.00     0.149 C 
BRANCH   4   5
HETATM    5  N   UNK N   1      25.909  29.130  -4.132  0.00  0.00    -0.355 N 
HETATM    6  C   UNK N   1      25.869  27.884  -3.589  0.00  0.00     0.251 C 
HETATM    7  O   UNK N   1      26.115  27.708  -2.414  0.00  0.00    -0.268 OA
HETATM    8  H   UNK N   1      25.520  29.269  -5.026  0.00  0.00     0.162 HD
BRANCH   6   9
HETATM    9  C   UNK N   1      25.749  26.749  -4.521  0.00  0.00     0.032 A 
HETATM   10  C   UNK N   1      26.089  25.436  -4.130  0.00  0.00     0.018 A 
HETATM   11  C   UNK N   1      26.193  24.421  -5.102  0.00  0.00     0.026 A 
HETATM   12  C   UNK N   1      25.962  24.734  -6.453  0.00  0.00     0.079 A 
HETATM   13  C   UNK N   1      25.596  26.029  -6.811  0.00  0.00     0.026 A 
HETATM   14  C   UNK N   1      25.498  27.024  -5.861  0.00  0.00     0.018 A 
BRANCH  12  15
HETATM   15  S   UNK N   1      26.109  23.582  -7.814  0.00  0.00     0.256 S 
HETATM   16  O   UNK N   1      27.251  22.728  -8.385  0.00  0.00    -0.201 OA
HETATM   17  O   UNK N   1      26.294  22.665  -6.601  0.00  0.00    -0.201 OA
BRANCH  15  18
HETATM   18  N   UNK N   1      24.603  22.719  -8.102  0.00  0.00    -0.324 N 
HETATM   19  H   UNK N   1      24.338  21.763  -7.866  0.00  0.00     0.169 HD
HETATM   20  H   UNK N   1      23.882  23.259  -8.580  0.00  0.00     0.169 HD
ENDBRANCH  15  18
ENDBRANCH  12  15
ENDBRANCH   6   9
ENDBRANCH   4   5
ENDBRANCH   3   4
ENDBRANCH   2   3
ENDBRANCH   1   2
BRANCH   1  21
HETATM   21  C   UNK N   1      30.909  28.477  -2.849  0.00  0.00     0.193 C 
BRANCH  21  22
HETATM   22  O   UNK N   1      31.078  27.089  -2.849  0.00  0.00    -0.387 OA
BRANCH  22  23
HETATM   23  C   UNK N   1      31.663  26.758  -4.076  0.00  0.00     0.187 C 
BRANCH  23  24
HETATM   24  C   UNK N   1      31.096  25.431  -4.560  0.00  0.00     0.148 C 
BRANCH  24  25
HETATM   25  N   UNK N   1      30.111  24.954  -3.616  0.00  0.00    -0.357 N 
HETATM   26  C   UNK N   1      29.582  23.703  -3.652  0.00  0.00     0.240 C 
HETATM   27  O   UNK N   1      28.705  23.412  -2.853  0.00  0.00    -0.271 OA
HETATM   28  H   UNK N   1      29.806  25.569  -2.910  0.00  0.00     0.162 HD
BRANCH  26  29
HETATM   29  C   UNK N   1      30.035  22.664  -4.654  0.00  0.00     0.171 C 
BRANCH  29  30
HETATM   30  N   UNK N   1      29.027  22.547  -5.700  0.00  0.00    -0.418 N 
HETATM   31  H   UNK N   1      28.600  22.995  -6.511  0.00  0.00     0.150 HD
HETATM   32  H   UNK N   1      28.557  21.652  -5.568  0.00  0.00     0.150 HD
ENDBRANCH  29  30
BRANCH  29  33
HETATM   33  C   UNK N   1      30.299  21.339  -3.922  0.00  0.00     0.072 C 
BRANCH  33  34
HETATM   34  C   UNK N   1      31.698  20.816  -3.990  0.00  0.00    -0.056 A 
HETATM   35  C   UNK N   1      32.637  21.247  -3.049  0.00  0.00     0.007 A 
HETATM   36  C   UNK N   1      33.953  20.779  -3.109  0.00  0.00     0.001 A 
HETATM   37  C   UNK N   1      34.330  19.880  -4.112  0.00  0.00     0.000 A 
HETATM   38  C   UNK N   1      33.394  19.453  -5.058  0.00  0.00     0.001 A 
HETATM   39  C   UNK N   1      32.079  19.924  -5.001  0.00  0.00     0.007 A 
ENDBRANCH  33  34
ENDBRANCH  29  33
ENDBRANCH  26  29
ENDBRANCH  24  25
ENDBRANCH  23  24
ENDBRANCH  22  23
ENDBRANCH  21  22
ENDBRANCH   1  21
TORSDOF 16
ENDMDL
MODEL 2
REMARK VINA RESULT:      -6.2     17.232     20.208
REMARK  16 active torsions:
REMARK  status: ('A' for Active; 'I' for Inactive)
REMARK    1  A    between atoms: S_1  and  N_4 
REMARK    2  A    between atoms: S_1  and  C_8 
REMARK    3  A    between atoms: C_5  and  C_11 
REMARK       I    between atoms: C_11  and  N_13 
REMARK    4  A    between atoms: N_13  and  C_14 
REMARK    5  A    between atoms: C_14  and  C_15 
REMARK    6  A    between atoms: C_15  and  O_16 
REMARK    7  A    between atoms: O_16  and  C_17 
REMARK    8  A    between atoms: C_17  and  C_18 
REMARK    9  A    between atoms: C_18  and  O_19 
REMARK   10  A    between atoms: O_19  and  C_20 
REMARK   11  A    between atoms: C_20  and  C_21 
REMARK   12  A    between atoms: C_21  and  N_22 
REMARK       I    between atoms: N_22  and  C_23 
REMARK   13  A    between atoms: C_23  and  C_25 
REMARK   14  A    between atoms: C_25  and  N_26 
REMARK   15  A    between atoms: C_25  and  C_27 
REMARK   16  A    between atoms: C_27  and  C_28 
ROOT
HETATM    1  C   UNK N   1      34.728  13.352   9.606  0.00  0.00     0.193 C 
ENDROOT
BRANCH   1   2
HETATM    2  O   UNK N   1      35.596  14.355   9.143  0.00  0.00    -0.387 OA
BRANCH   2   3
HETATM    3  C   UNK N   1      35.977  15.229  10.191  0.00  0.00     0.187 C 
BRANCH   3   4
HETATM    4  C   UNK N   1      35.063  16.438  10.458  0.00  0.00     0.149 C 
BRANCH   4   5
HETATM    5  N   UNK N   1      34.133  16.452   9.367  0.00  0.00    -0.355 N 
HETATM    6  C   UNK N   1      33.940  17.547   8.586  0.00  0.00     0.251 C 
HETATM    7  O   UNK N   1      34.709  18.485   8.626  0.00  0.00    -0.268 OA
HETATM    8  H   UNK N   1      33.615  15.637   9.175  0.00  0.00     0.162 HD
BRANCH   6   9
HETATM    9  C   UNK N   1      32.653  17.649   7.877  0.00  0.00     0.032 A 
HETATM   10  C   UNK N   1      31.448  17.898   8.568  0.00  0.00     0.018 A 
HETATM   11  C   UNK N   1      30.215  17.752   7.902  0.00  0.00     0.026 A 
HETATM   12  C   UNK N   1      30.203  17.352   6.555  0.00  0.00     0.079 A 
HETATM   13  C   UNK N   1      31.405  17.142   5.883  0.00  0.00     0.026 A 
HETATM   14  C   UNK N   1      32.612  17.281   6.536  0.00  0.00     0.018 A 
BRANCH  12  15
HETATM   15  S   UNK N   1      28.729  17.063   5.581  0.00  0.00     0.256 S 
HETATM   16  O   UNK N   1      27.258  16.770   5.914  0.00  0.00    -0.201 OA
HETATM   17  O   UNK N   1      28.409  18.402   6.254  0.00  0.00    -0.201 OA
BRANCH  15  18
HETATM   18  N   UNK N   1      28.766  17.956   4.066  0.00  0.00    -0.324 N 
HETATM   19  H   UNK N   1      29.249  18.821   3.824  0.00  0.00     0.169 HD
HETATM   20  H   UNK N   1      28.217  17.544   3.311  0.00  0.00     0.169 HD
ENDBRANCH  15  18
ENDBRANCH  12  15
ENDBRANCH   6   9
ENDBRANCH   4   5
ENDBRANCH   3   4
ENDBRANCH   2   3
ENDBRANCH   1   2
BRANCH   1  21
HETATM   21  C   UNK N   1      35.526  12.057   9.721  0.00  0.00     0.193 C 
BRANCH  21  22
HETATM   22  O   UNK N   1      35.668  11.669  11.057  0.00  0.00    -0.387 OA
BRANCH  22  23
HETATM   23  C   UNK N   1      36.960  11.149  11.186  0.00  0.00     0.187 C 
BRANCH  23  24
HETATM   24  C   UNK N   1      37.551  11.596  12.516  0.00  0.00     0.148 C 
BRANCH  24  25
HETATM   25  N   UNK N   1      37.297  13.005  12.706  0.00  0.00    -0.357 N 
HETATM   26  C   UNK N   1      36.380  13.490  13.585  0.00  0.00     0.240 C 
HETATM   27  O   UNK N   1      36.188  14.696  13.628  0.00  0.00    -0.271 OA
HETATM   28  H   UNK N   1      37.815  13.649  12.171  0.00  0.00     0.162 HD
BRANCH  26  29
HETATM   29  C   UNK N   1      35.584  12.587  14.500  0.00  0.00     0.171 C 
BRANCH  29  30
HETATM   30  N   UNK N   1      34.424  12.085  13.775  0.00  0.00    -0.418 N 
HETATM   31  H   UNK N   1      33.456  12.263  13.508  0.00  0.00     0.150 HD
HETATM   32  H   UNK N   1      34.688  11.187  13.368  0.00  0.00     0.150 HD
ENDBRANCH  29  30
BRANCH  29  33
HETATM   33  C   UNK N   1      35.210  13.362  15.773  0.00  0.00     0.072 C 
BRANCH  33  34
HETATM   34  C   UNK N   1      35.313  12.608  17.060  0.00  0.00    -0.056 A 
HETATM   35  C   UNK N   1      35.514  11.225  17.029  0.00  0.00     0.007 A 
HETATM   36  C   UNK N   1      35.595  10.503  18.223  0.00  0.00     0.001 A 
HETATM   37  C   UNK N   1      35.476  11.165  19.449  0.00  0.00     0.000 A 
HETATM   38  C   UNK N   1      35.269  12.547  19.482  0.00  0.00     0.001 A 
HETATM   39  C   UNK N   1      35.182  13.268  18.288  0.00  0.00     0.007 A 
ENDBRANCH  33  34
ENDBRANCH  29  33
ENDBRANCH  26  29
ENDBRANCH  24  25
ENDBRANCH  23  24
ENDBRANCH  22  23
ENDBRANCH  21  22
ENDBRANCH   1  21
TORSDOF 16
ENDMDL
MODEL 3
REMARK VINA RESULT:      -6.1      3.516      6.582
REMARK  16 active torsions:
REMARK  status: ('A' for Active; 'I' for Inactive)
REMARK    1  A    between atoms: S_1  and  N_4 
REMARK    2  A    between atoms: S_1  and  C_8 
REMARK    3  A    between atoms: C_5  and  C_11 
REMARK       I    between atoms: C_11  and  N_13 
REMARK    4  A    between atoms: N_13  and  C_14 
REMARK    5  A    between atoms: C_14  and  C_15 
REMARK    6  A    between atoms: C_15  and  O_16 
REMARK    7  A    between atoms: O_16  and  C_17 
REMARK    8  A    between atoms: C_17  and  C_18 
REMARK    9  A    between atoms: C_18  and  O_19 
REMARK   10  A    between atoms: O_19  and  C_20 
REMARK   11  A    between atoms: C_20  and  C_21 
REMARK   12  A    between atoms: C_21  and  N_22 
REMARK       I    between atoms: N_22  and  C_23 
REMARK   13  A    between atoms: C_23  and  C_25 
REMARK   14  A    between atoms: C_25  and  N_26 
REMARK   15  A    between atoms: C_25  and  C_27 
REMARK   16  A    between atoms: C_27  and  C_28 
ROOT
HETATM    1  C   UNK N   1      26.879  26.364  -3.669  0.00  0.00     0.193 C 
ENDROOT
BRANCH   1   2
HETATM    2  O   UNK N   1      26.160  25.163  -3.544  0.00  0.00    -0.387 OA
BRANCH   2   3
HETATM    3  C   UNK N   1      27.022  24.071  -3.276  0.00  0.00     0.187 C 
BRANCH   3   4
HETATM    4  C   UNK N   1      28.507  24.398  -3.035  0.00  0.00     0.149 C 
BRANCH   4   5
HETATM    5  N   UNK N   1      29.225  23.261  -3.530  0.00  0.00    -0.355 N 
HETATM    6  C   UNK N   1      30.271  22.709  -2.860  0.00  0.00     0.251 C 
HETATM    7  O   UNK N   1      30.497  23.004  -1.705  0.00  0.00    -0.268 OA
HETATM    8  H   UNK N   1      28.951  22.864  -4.388  0.00  0.00     0.162 HD
BRANCH   6   9
HETATM    9  C   UNK N   1      31.242  21.933  -3.651  0.00  0.00     0.032 A 
HETATM   10  C   UNK N   1      31.048  20.560  -3.917  0.00  0.00     0.018 A 
HETATM   11  C   UNK N   1      32.099  19.797  -4.463  0.00  0.00     0.026 A 
HETATM   12  C   UNK N   1      33.332  20.416  -4.732  0.00  0.00     0.079 A 
HETATM   13  C   UNK N   1      33.490  21.778  -4.493  0.00  0.00     0.026 A 
HETATM   14  C   UNK N   1      32.464  22.525  -3.953  0.00  0.00     0.018 A 
BRANCH  12  15
HETATM   15  S   UNK N   1      34.782  19.583  -5.369  0.00  0.00     0.256 S 
HETATM   16  O   UNK N   1      36.082  19.055  -4.745  0.00  0.00    -0.201 OA
HETATM   17  O   UNK N   1      34.152  18.497  -4.492  0.00  0.00    -0.201 OA
BRANCH  15  18
HETATM   18  N   UNK N   1      34.390  18.552  -6.740  0.00  0.00    -0.324 N 
HETATM   19  H   UNK N   1      34.901  17.762  -7.135  0.00  0.00     0.169 HD
HETATM   20  H   UNK N   1      33.517  18.779  -7.214  0.00  0.00     0.169 HD
ENDBRANCH  15  18
ENDBRANCH  12  15
ENDBRANCH   6   9
ENDBRANCH   4   5
ENDBRANCH   3   4
ENDBRANCH   2   3
ENDBRANCH   1   2
BRANCH   1  21
HETATM   21  C   UNK N   1      25.927  27.428  -4.202  0.00  0.00     0.193 C 
BRANCH  21  22
HETATM   22  O   UNK N   1      26.220  27.747  -5.532  0.00  0.00    -0.387 OA
BRANCH  22  23
HETATM   23  C   UNK N   1      25.279  27.075  -6.320  0.00  0.00     0.187 C 
BRANCH  23  24
HETATM   24  C   UNK N   1      25.966  25.931  -7.053  0.00  0.00     0.148 C 
BRANCH  24  25
HETATM   25  N   UNK N   1      25.350  24.679  -6.677  0.00  0.00    -0.357 N 
HETATM   26  C   UNK N   1      25.948  23.470  -6.842  0.00  0.00     0.240 C 
HETATM   27  O   UNK N   1      25.322  22.461  -6.556  0.00  0.00    -0.271 OA
HETATM   28  H   UNK N   1      24.449  24.703  -6.281  0.00  0.00     0.162 HD
BRANCH  26  29
HETATM   29  C   UNK N   1      27.356  23.333  -7.377  0.00  0.00     0.171 C 
BRANCH  29  30
HETATM   30  N   UNK N   1      27.297  22.770  -8.720  0.00  0.00    -0.418 N 
HETATM   31  H   UNK N   1      27.775  22.679  -9.616  0.00  0.00     0.150 HD
HETATM   32  H   UNK N   1      26.419  22.258  -8.795  0.00  0.00     0.150 HD
ENDBRANCH  29  30
BRANCH  29  33
HETATM   33  C   UNK N   1      28.185  22.481  -6.403  0.00  0.00     0.072 C 
BRANCH  33  34
HETATM   34  C   UNK N   1      29.388  21.804  -6.977  0.00  0.00    -0.056 A 
HETATM   35  C   UNK N   1      30.528  22.560  -7.262  0.00  0.00     0.007 A 
HETATM   36  C   UNK N   1      31.655  21.944  -7.815  0.00  0.00     0.001 A 
HETATM   37  C   UNK N   1      31.640  20.572  -8.083  0.00  0.00     0.000 A 
HETATM   38  C   UNK N   1      30.498  19.816  -7.805  0.00  0.00     0.001 A 
HETATM   39  C   UNK N   1      29.370  20.431  -7.257  0.00  0.00     0.007 A 
ENDBRANCH  33  34
ENDBRANCH  29  33
ENDBRANCH  26  29
ENDBRANCH  24  25
ENDBRANCH  23  24
ENDBRANCH  22  23
ENDBRANCH  21  22
ENDBRANCH   1  21
TORSDOF 16
ENDMDL
MODEL 4
REMARK VINA RESULT:      -6.0      1.772      2.380
REMARK  16 active torsions:
REMARK  status: ('A' for Active; 'I' for Inactive)
REMARK    1  A    between atoms: S_1  and  N_4 
REMARK    2  A    between atoms: S_1  and  C_8 
REMARK    3  A    between atoms: C_5  and  C_11 
REMARK       I    between atoms: C_11  and  N_13 
REMARK    4  A    between atoms: N_13  and  C_14 
REMARK    5  A    between atoms: C_14  and  C_15 
REMARK    6  A    between atoms: C_15  and  O_16 
REMARK    7  A    between atoms: O_16  and  C_17 
REMARK    8  A    between atoms: C_17  and  C_18 
REMARK    9  A    between atoms: C_18  and  O_19 
REMARK   10  A    between atoms: O_19  and  C_20 
REMARK   11  A    between atoms: C_20  and  C_21 
REMARK   12  A    between atoms: C_21  and  N_22 
REMARK       I    between atoms: N_22  and  C_23 
REMARK   13  A    between atoms: C_23  and  C_25 
REMARK   14  A    between atoms: C_25  and  N_26 
REMARK   15  A    between atoms: C_25  and  C_27 
REMARK   16  A    between atoms: C_27  and  C_28 
ROOT
HETATM    1  C   UNK N   1      29.785  28.151  -3.893  0.00  0.00     0.193 C 
ENDROOT
BRANCH   1   2
HETATM    2  O   UNK N   1      29.076  29.015  -3.042  0.00  0.00    -0.387 OA
BRANCH   2   3
HETATM    3  C   UNK N   1      28.301  29.944  -3.780  0.00  0.00     0.187 C 
BRANCH   3   4
HETATM    4  C   UNK N   1      26.813  30.062  -3.408  0.00  0.00     0.149 C 
BRANCH   4   5
HETATM    5  N   UNK N   1      26.157  29.028  -4.153  0.00  0.00    -0.355 N 
HETATM    6  C   UNK N   1      25.915  27.796  -3.634  0.00  0.00     0.251 C 
HETATM    7  O   UNK N   1      26.030  27.586  -2.444  0.00  0.00    -0.268 OA
HETATM    8  H   UNK N   1      25.871  29.217  -5.075  0.00  0.00     0.162 HD
BRANCH   6   9
HETATM    9  C   UNK N   1      25.741  26.687  -4.588  0.00  0.00     0.032 A 
HETATM   10  C   UNK N   1      26.009  25.350  -4.222  0.00  0.00     0.018 A 
HETATM   11  C   UNK N   1      26.066  24.351  -5.214  0.00  0.00     0.026 A 
HETATM   12  C   UNK N   1      25.859  24.702  -6.559  0.00  0.00     0.079 A 
HETATM   13  C   UNK N   1      25.564  26.021  -6.893  0.00  0.00     0.026 A 
HETATM   14  C   UNK N   1      25.513  27.001  -5.924  0.00  0.00     0.018 A 
BRANCH  12  15
HETATM   15  S   UNK N   1      25.953  23.572  -7.943  0.00  0.00     0.256 S 
HETATM   16  O   UNK N   1      27.103  22.901  -8.710  0.00  0.00    -0.201 OA
HETATM   17  O   UNK N   1      26.483  22.710  -6.792  0.00  0.00    -0.201 OA
BRANCH  15  18
HETATM   18  N   UNK N   1      24.575  22.478  -7.985  0.00  0.00    -0.324 N 
HETATM   19  H   UNK N   1      24.512  21.492  -7.735  0.00  0.00     0.169 HD
HETATM   20  H   UNK N   1      23.704  22.896  -8.311  0.00  0.00     0.169 HD
ENDBRANCH  15  18
ENDBRANCH  12  15
ENDBRANCH   6   9
ENDBRANCH   4   5
ENDBRANCH   3   4
ENDBRANCH   2   3
ENDBRANCH   1   2
BRANCH   1  21
HETATM   21  C   UNK N   1      30.882  27.480  -3.072  0.00  0.00     0.193 C 
BRANCH  21  22
HETATM   22  O   UNK N   1      31.062  26.149  -3.462  0.00  0.00    -0.387 OA
BRANCH  22  23
HETATM   23  C   UNK N   1      29.856  25.735  -4.037  0.00  0.00     0.187 C 
BRANCH  23  24
HETATM   24  C   UNK N   1      29.495  24.355  -3.506  0.00  0.00     0.148 C 
BRANCH  24  25
HETATM   25  N   UNK N   1      30.631  23.792  -2.815  0.00  0.00    -0.357 N 
HETATM   26  C   UNK N   1      31.075  22.522  -3.012  0.00  0.00     0.240 C 
HETATM   27  O   UNK N   1      32.003  22.112  -2.332  0.00  0.00    -0.271 OA
HETATM   28  H   UNK N   1      31.109  24.357  -2.166  0.00  0.00     0.162 HD
BRANCH  26  29
HETATM   29  C   UNK N   1      30.451  21.600  -4.035  0.00  0.00     0.171 C 
BRANCH  29  30
HETATM   30  N   UNK N   1      30.705  20.219  -3.642  0.00  0.00    -0.418 N 
HETATM   31  H   UNK N   1      30.351  19.412  -3.130  0.00  0.00     0.150 HD
HETATM   32  H   UNK N   1      31.603  19.952  -4.043  0.00  0.00     0.150 HD
ENDBRANCH  29  30
BRANCH  29  33
HETATM   33  C   UNK N   1      31.006  21.941  -5.427  0.00  0.00     0.072 C 
BRANCH  33  34
HETATM   34  C   UNK N   1      30.703  20.964  -6.516  0.00  0.00    -0.056 A 
HETATM   35  C   UNK N   1      29.375  20.752  -6.896  0.00  0.00     0.007 A 
HETATM   36  C   UNK N   1      29.074  19.829  -7.901  0.00  0.00     0.001 A 
HETATM   37  C   UNK N   1      30.102  19.117  -8.528  0.00  0.00     0.000 A 
HETATM   38  C   UNK N   1      31.431  19.324  -8.145  0.00  0.00     0.001 A 
HETATM   39  C   UNK N   1      31.732  20.242  -7.136  0.00  0.00     0.007 A 
ENDBRANCH  33  34
ENDBRANCH  29  33
ENDBRANCH  26  29
ENDBRANCH  24  25
ENDBRANCH  23  24
ENDBRANCH  22  23
ENDBRANCH  21  22
ENDBRANCH   1  21
TORSDOF 16
ENDMDL
MODEL 5
REMARK VINA RESULT:      -6.0     17.714     20.676
REMARK  16 active torsions:
REMARK  status: ('A' for Active; 'I' for Inactive)
REMARK    1  A    between atoms: S_1  and  N_4 
REMARK    2  A    between atoms: S_1  and  C_8 
REMARK    3  A    between atoms: C_5  and  C_11 
REMARK       I    between atoms: C_11  and  N_13 
REMARK    4  A    between atoms: N_13  and  C_14 
REMARK    5  A    between atoms: C_14  and  C_15 
REMARK    6  A    between atoms: C_15  and  O_16 
REMARK    7  A    between atoms: O_16  and  C_17 
REMARK    8  A    between atoms: C_17  and  C_18 
REMARK    9  A    between atoms: C_18  and  O_19 
REMARK   10  A    between atoms: O_19  and  C_20 
REMARK   11  A    between atoms: C_20  and  C_21 
REMARK   12  A    between atoms: C_21  and  N_22 
REMARK       I    between atoms: N_22  and  C_23 
REMARK   13  A    between atoms: C_23  and  C_25 
REMARK   14  A    between atoms: C_25  and  N_26 
REMARK   15  A    between atoms: C_25  and  C_27 
REMARK   16  A    between atoms: C_27  and  C_28 
ROOT
HETATM    1  C   UNK N   1      36.953  14.199   9.258  0.00  0.00     0.193 C 
ENDROOT
BRANCH   1   2
HETATM    2  O   UNK N   1      35.829  14.713   9.927  0.00  0.00    -0.387 OA
BRANCH   2   3
HETATM    3  C   UNK N   1      36.175  15.824  10.736  0.00  0.00     0.187 C 
BRANCH   3   4
HETATM    4  C   UNK N   1      35.357  17.112  10.539  0.00  0.00     0.149 C 
BRANCH   4   5
HETATM    5  N   UNK N   1      34.613  16.901   9.332  0.00  0.00    -0.355 N 
HETATM    6  C   UNK N   1      34.458  17.870   8.391  0.00  0.00     0.251 C 
HETATM    7  O   UNK N   1      35.134  18.878   8.417  0.00  0.00    -0.268 OA
HETATM    8  H   UNK N   1      34.198  16.022   9.178  0.00  0.00     0.162 HD
BRANCH   6   9
HETATM    9  C   UNK N   1      33.295  17.756   7.495  0.00  0.00     0.032 A 
HETATM   10  C   UNK N   1      31.992  17.554   7.999  0.00  0.00     0.018 A 
HETATM   11  C   UNK N   1      30.945  17.212   7.120  0.00  0.00     0.026 A 
HETATM   12  C   UNK N   1      31.217  17.070   5.748  0.00  0.00     0.079 A 
HETATM   13  C   UNK N   1      32.503  17.305   5.268  0.00  0.00     0.026 A 
HETATM   14  C   UNK N   1      33.528  17.637   6.129  0.00  0.00     0.018 A 
BRANCH  12  15
HETATM   15  S   UNK N   1      30.021  16.585   4.509  0.00  0.00     0.256 S 
HETATM   16  O   UNK N   1      28.487  16.519   4.459  0.00  0.00    -0.201 OA
HETATM   17  O   UNK N   1      29.755  18.088   4.635  0.00  0.00    -0.201 OA
BRANCH  15  18
HETATM   18  N   UNK N   1      30.593  16.932   2.881  0.00  0.00    -0.324 N 
HETATM   19  H   UNK N   1      30.394  16.458   2.000  0.00  0.00     0.169 HD
HETATM   20  H   UNK N   1      31.221  17.732   2.807  0.00  0.00     0.169 HD
ENDBRANCH  15  18
ENDBRANCH  12  15
ENDBRANCH   6   9
ENDBRANCH   4   5
ENDBRANCH   3   4
ENDBRANCH   2   3
ENDBRANCH   1   2
BRANCH   1  21
HETATM   21  C   UNK N   1      37.621  13.182  10.177  0.00  0.00     0.193 C 
BRANCH  21  22
HETATM   22  O   UNK N   1      36.671  12.458  10.905  0.00  0.00    -0.387 OA
BRANCH  22  23
HETATM   23  C   UNK N   1      37.366  11.442  11.569  0.00  0.00     0.187 C 
BRANCH  23  24
HETATM   24  C   UNK N   1      36.859  11.341  13.001  0.00  0.00     0.148 C 
BRANCH  24  25
HETATM   25  N   UNK N   1      36.146  10.096  13.173  0.00  0.00    -0.357 N 
HETATM   26  C   UNK N   1      36.199   9.353  14.310  0.00  0.00     0.240 C 
HETATM   27  O   UNK N   1      35.616   8.280  14.338  0.00  0.00    -0.271 OA
HETATM   28  H   UNK N   1      35.594   9.769  12.428  0.00  0.00     0.162 HD
BRANCH  26  29
HETATM   29  C   UNK N   1      36.964   9.805  15.534  0.00  0.00     0.171 C 
BRANCH  29  30
HETATM   30  N   UNK N   1      38.174   9.002  15.657  0.00  0.00    -0.418 N 
HETATM   31  H   UNK N   1      38.556   8.082  15.876  0.00  0.00     0.150 HD
HETATM   32  H   UNK N   1      38.962   9.609  15.431  0.00  0.00     0.150 HD
ENDBRANCH  29  30
BRANCH  29  33
HETATM   33  C   UNK N   1      36.049   9.707  16.765  0.00  0.00     0.072 C 
BRANCH  33  34
HETATM   34  C   UNK N   1      35.716  10.997  17.443  0.00  0.00    -0.056 A 
HETATM   35  C   UNK N   1      35.488  12.138  16.670  0.00  0.00     0.007 A 
HETATM   36  C   UNK N   1      35.192  13.355  17.290  0.00  0.00     0.001 A 
HETATM   37  C   UNK N   1      35.124  13.431  18.686  0.00  0.00     0.000 A 
HETATM   38  C   UNK N   1      35.358  12.291  19.461  0.00  0.00     0.001 A 
HETATM   39  C   UNK N   1      35.659  11.075  18.841  0.00  0.00     0.007 A 
ENDBRANCH  33  34
ENDBRANCH  29  33
ENDBRANCH  26  29
ENDBRANCH  24  25
ENDBRANCH  23  24
ENDBRANCH  22  23
ENDBRANCH  21  22
ENDBRANCH   1  21
TORSDOF 16
ENDMDL
MODEL 6
REMARK VINA RESULT:      -6.0      3.598      8.133
REMARK  16 active torsions:
REMARK  status: ('A' for Active; 'I' for Inactive)
REMARK    1  A    between atoms: S_1  and  N_4 
REMARK    2  A    between atoms: S_1  and  C_8 
REMARK    3  A    between atoms: C_5  and  C_11 
REMARK       I    between atoms: C_11  and  N_13 
REMARK    4  A    between atoms: N_13  and  C_14 
REMARK    5  A    between atoms: C_14  and  C_15 
REMARK    6  A    between atoms: C_15  and  O_16 
REMARK    7  A    between atoms: O_16  and  C_17 
REMARK    8  A    between atoms: C_17  and  C_18 
REMARK    9  A    between atoms: C_18  and  O_19 
REMARK   10  A    between atoms: O_19  and  C_20 
REMARK   11  A    between atoms: C_20  and  C_21 
REMARK   12  A    between atoms: C_21  and  N_22 
REMARK       I    between atoms: N_22  and  C_23 
REMARK   13  A    between atoms: C_23  and  C_25 
REMARK   14  A    between atoms: C_25  and  N_26 
REMARK   15  A    between atoms: C_25  and  C_27 
REMARK   16  A    between atoms: C_27  and  C_28 
ROOT
HETATM    1  C   UNK N   1      30.440  25.352  -6.686  0.00  0.00     0.193 C 
ENDROOT
BRANCH   1   2
HETATM    2  O   UNK N   1      29.779  24.459  -5.826  0.00  0.00    -0.387 OA
BRANCH   2   3
HETATM    3  C   UNK N   1      29.445  25.081  -4.597  0.00  0.00     0.187 C 
BRANCH   3   4
HETATM    4  C   UNK N   1      28.807  24.190  -3.516  0.00  0.00     0.149 C 
BRANCH   4   5
HETATM    5  N   UNK N   1      29.491  22.934  -3.615  0.00  0.00    -0.355 N 
HETATM    6  C   UNK N   1      30.369  22.504  -2.671  0.00  0.00     0.251 C 
HETATM    7  O   UNK N   1      30.440  23.051  -1.590  0.00  0.00    -0.268 OA
HETATM    8  H   UNK N   1      29.318  22.361  -4.397  0.00  0.00     0.162 HD
BRANCH   6   9
HETATM    9  C   UNK N   1      31.378  21.517  -3.093  0.00  0.00     0.032 A 
HETATM   10  C   UNK N   1      32.700  21.555  -2.597  0.00  0.00     0.018 A 
HETATM   11  C   UNK N   1      33.695  20.756  -3.194  0.00  0.00     0.026 A 
HETATM   12  C   UNK N   1      33.357  19.933  -4.282  0.00  0.00     0.079 A 
HETATM   13  C   UNK N   1      32.041  19.887  -4.734  0.00  0.00     0.026 A 
HETATM   14  C   UNK N   1      31.067  20.672  -4.153  0.00  0.00     0.018 A 
BRANCH  12  15
HETATM   15  S   UNK N   1      34.507  18.904  -5.188  0.00  0.00     0.256 S 
HETATM   16  O   UNK N   1      35.565  19.166  -6.272  0.00  0.00    -0.201 OA
HETATM   17  O   UNK N   1      35.451  19.763  -4.340  0.00  0.00    -0.201 OA
BRANCH  15  18
HETATM   18  N   UNK N   1      35.058  17.539  -4.224  0.00  0.00    -0.324 N 
HETATM   19  H   UNK N   1      34.828  16.548  -4.298  0.00  0.00     0.169 HD
HETATM   20  H   UNK N   1      35.708  17.776  -3.475  0.00  0.00     0.169 HD
ENDBRANCH  15  18
ENDBRANCH  12  15
ENDBRANCH   6   9
ENDBRANCH   4   5
ENDBRANCH   3   4
ENDBRANCH   2   3
ENDBRANCH   1   2
BRANCH   1  21
HETATM   21  C   UNK N   1      29.565  25.547  -7.920  0.00  0.00     0.193 C 
BRANCH  21  22
HETATM   22  O   UNK N   1      30.008  24.752  -8.983  0.00  0.00    -0.387 OA
BRANCH  22  23
HETATM   23  C   UNK N   1      28.862  24.241  -9.602  0.00  0.00     0.187 C 
BRANCH  23  24
HETATM   24  C   UNK N   1      27.661  25.092  -9.214  0.00  0.00     0.148 C 
BRANCH  24  25
HETATM   25  N   UNK N   1      26.484  24.258  -9.138  0.00  0.00    -0.357 N 
HETATM   26  C   UNK N   1      25.729  24.126  -8.016  0.00  0.00     0.240 C 
HETATM   27  O   UNK N   1      24.790  23.345  -8.027  0.00  0.00    -0.271 OA
HETATM   28  H   UNK N   1      26.214  23.757  -9.942  0.00  0.00     0.162 HD
BRANCH  26  29
HETATM   29  C   UNK N   1      26.021  24.904  -6.752  0.00  0.00     0.171 C 
BRANCH  29  30
HETATM   30  N   UNK N   1      25.520  24.152  -5.609  0.00  0.00    -0.418 N 
HETATM   31  H   UNK N   1      25.662  23.920  -4.626  0.00  0.00     0.150 HD
HETATM   32  H   UNK N   1      24.686  23.653  -5.918  0.00  0.00     0.150 HD
ENDBRANCH  29  30
BRANCH  29  33
HETATM   33  C   UNK N   1      25.402  26.306  -6.869  0.00  0.00     0.072 C 
BRANCH  33  34
HETATM   34  C   UNK N   1      26.010  27.370  -6.013  0.00  0.00    -0.056 A 
HETATM   35  C   UNK N   1      25.416  27.686  -4.788  0.00  0.00     0.007 A 
HETATM   36  C   UNK N   1      25.963  28.690  -3.985  0.00  0.00     0.001 A 
HETATM   37  C   UNK N   1      27.106  29.378  -4.406  0.00  0.00     0.000 A 
HETATM   38  C   UNK N   1      27.697  29.068  -5.634  0.00  0.00     0.001 A 
HETATM   39  C   UNK N   1      27.147  28.068  -6.441  0.00  0.00     0.007 A 
ENDBRANCH  33  34
ENDBRANCH  29  33
ENDBRANCH  26  29
ENDBRANCH  24  25
ENDBRANCH  23  24
ENDBRANCH  22  23
ENDBRANCH  21  22
ENDBRANCH   1  21
TORSDOF 16
ENDMDL
MODEL 7
REMARK VINA RESULT:      -5.9      2.848      7.648
REMARK  16 active torsions:
REMARK  status: ('A' for Active; 'I' for Inactive)
REMARK    1  A    between atoms: S_1  and  N_4 
REMARK    2  A    between atoms: S_1  and  C_8 
REMARK    3  A    between atoms: C_5  and  C_11 
REMARK       I    between atoms: C_11  and  N_13 
REMARK    4  A    between atoms: N_13  and  C_14 
REMARK    5  A    between atoms: C_14  and  C_15 
REMARK    6  A    between atoms: C_15  and  O_16 
REMARK    7  A    between atoms: O_16  and  C_17 
REMARK    8  A    between atoms: C_17  and  C_18 
REMARK    9  A    between atoms: C_18  and  O_19 
REMARK   10  A    between atoms: O_19  and  C_20 
REMARK   11  A    between atoms: C_20  and  C_21 
REMARK   12  A    between atoms: C_21  and  N_22 
REMARK       I    between atoms: N_22  and  C_23 
REMARK   13  A    between atoms: C_23  and  C_25 
REMARK   14  A    between atoms: C_25  and  N_26 
REMARK   15  A    between atoms: C_25  and  C_27 
REMARK   16  A    between atoms: C_27  and  C_28 
ROOT
HETATM    1  C   UNK N   1      31.463  20.368  -6.699  0.00  0.00     0.193 C 
ENDROOT
BRANCH   1   2
HETATM    2  O   UNK N   1      31.785  19.931  -5.403  0.00  0.00    -0.387 OA
BRANCH   2   3
HETATM    3  C   UNK N   1      32.647  20.847  -4.750  0.00  0.00     0.187 C 
BRANCH   3   4
HETATM    4  C   UNK N   1      32.181  21.394  -3.389  0.00  0.00     0.149 C 
BRANCH   4   5
HETATM    5  N   UNK N   1      31.631  22.686  -3.675  0.00  0.00    -0.355 N 
HETATM    6  C   UNK N   1      30.803  23.334  -2.812  0.00  0.00     0.251 C 
HETATM    7  O   UNK N   1      30.679  22.958  -1.666  0.00  0.00    -0.268 OA
HETATM    8  H   UNK N   1      31.860  23.122  -4.527  0.00  0.00     0.162 HD
BRANCH   6   9
HETATM    9  C   UNK N   1      29.901  24.350  -3.382  0.00  0.00     0.032 A 
HETATM   10  C   UNK N   1      30.353  25.651  -3.688  0.00  0.00     0.018 A 
HETATM   11  C   UNK N   1      29.422  26.661  -4.002  0.00  0.00     0.026 A 
HETATM   12  C   UNK N   1      28.050  26.358  -4.000  0.00  0.00     0.079 A 
HETATM   13  C   UNK N   1      27.628  25.059  -3.727  0.00  0.00     0.026 A 
HETATM   14  C   UNK N   1      28.538  24.071  -3.415  0.00  0.00     0.018 A 
BRANCH  12  15
HETATM   15  S   UNK N   1      26.738  27.532  -4.317  0.00  0.00     0.256 S 
HETATM   16  O   UNK N   1      25.860  27.863  -5.534  0.00  0.00    -0.201 OA
HETATM   17  O   UNK N   1      25.993  26.195  -4.394  0.00  0.00    -0.201 OA
BRANCH  15  18
HETATM   18  N   UNK N   1      25.789  27.855  -2.871  0.00  0.00    -0.324 N 
HETATM   19  H   UNK N   1      25.897  27.499  -1.922  0.00  0.00     0.169 HD
HETATM   20  H   UNK N   1      25.008  28.497  -3.004  0.00  0.00     0.169 HD
ENDBRANCH  15  18
ENDBRANCH  12  15
ENDBRANCH   6   9
ENDBRANCH   4   5
ENDBRANCH   3   4
ENDBRANCH   2   3
ENDBRANCH   1   2
BRANCH   1  21
HETATM   21  C   UNK N   1      30.027  19.948  -6.993  0.00  0.00     0.193 C 
BRANCH  21  22
HETATM   22  O   UNK N   1      29.181  21.059  -7.066  0.00  0.00    -0.387 OA
BRANCH  22  23
HETATM   23  C   UNK N   1      28.297  20.817  -8.123  0.00  0.00     0.187 C 
BRANCH  23  24
HETATM   24  C   UNK N   1      27.860  22.145  -8.725  0.00  0.00     0.148 C 
BRANCH  24  25
HETATM   25  N   UNK N   1      26.434  22.125  -8.955  0.00  0.00    -0.357 N 
HETATM   26  C   UNK N   1      25.554  22.911  -8.280  0.00  0.00     0.240 C 
HETATM   27  O   UNK N   1      24.360  22.775  -8.496  0.00  0.00    -0.271 OA
HETATM   28  H   UNK N   1      26.081  21.509  -9.637  0.00  0.00     0.162 HD
BRANCH  26  29
HETATM   29  C   UNK N   1      26.004  23.937  -7.263  0.00  0.00     0.171 C 
BRANCH  29  30
HETATM   30  N   UNK N   1      25.451  23.585  -5.962  0.00  0.00    -0.418 N 
HETATM   31  H   UNK N   1      25.645  23.179  -5.047  0.00  0.00     0.150 HD
HETATM   32  H   UNK N   1      24.468  23.856  -5.969  0.00  0.00     0.150 HD
ENDBRANCH  29  30
BRANCH  29  33
HETATM   33  C   UNK N   1      25.584  25.336  -7.739  0.00  0.00     0.072 C 
BRANCH  33  34
HETATM   34  C   UNK N   1      26.516  26.019  -8.686  0.00  0.00    -0.056 A 
HETATM   35  C   UNK N   1      27.648  26.668  -8.185  0.00  0.00     0.007 A 
HETATM   36  C   UNK N   1      28.520  27.326  -9.057  0.00  0.00     0.001 A 
HETATM   37  C   UNK N   1      28.261  27.335 -10.431  0.00  0.00     0.000 A 
HETATM   38  C   UNK N   1      27.125  26.692 -10.933  0.00  0.00     0.001 A 
HETATM   39  C   UNK N   1      26.250  26.039 -10.062  0.00  0.00     0.007 A 
ENDBRANCH  33  34
ENDBRANCH  29  33
ENDBRANCH  26  29
ENDBRANCH  24  25
ENDBRANCH  23  24
ENDBRANCH  22  23
ENDBRANCH  21  22
ENDBRANCH   1  21
TORSDOF 16
ENDMDL
MODEL 8
REMARK VINA RESULT:      -5.8     18.430     21.191
REMARK  16 active torsions:
REMARK  status: ('A' for Active; 'I' for Inactive)
REMARK    1  A    between atoms: S_1  and  N_4 
REMARK    2  A    between atoms: S_1  and  C_8 
REMARK    3  A    between atoms: C_5  and  C_11 
REMARK       I    between atoms: C_11  and  N_13 
REMARK    4  A    between atoms: N_13  and  C_14 
REMARK    5  A    between atoms: C_14  and  C_15 
REMARK    6  A    between atoms: C_15  and  O_16 
REMARK    7  A    between atoms: O_16  and  C_17 
REMARK    8  A    between atoms: C_17  and  C_18 
REMARK    9  A    between atoms: C_18  and  O_19 
REMARK   10  A    between atoms: O_19  and  C_20 
REMARK   11  A    between atoms: C_20  and  C_21 
REMARK   12  A    between atoms: C_21  and  N_22 
REMARK       I    between atoms: N_22  and  C_23 
REMARK   13  A    between atoms: C_23  and  C_25 
REMARK   14  A    between atoms: C_25  and  N_26 
REMARK   15  A    between atoms: C_25  and  C_27 
REMARK   16  A    between atoms: C_27  and  C_28 
ROOT
HETATM    1  C   UNK N   1      35.728  14.098  12.572  0.00  0.00     0.193 C 
ENDROOT
BRANCH   1   2
HETATM    2  O   UNK N   1      36.127  15.334  12.036  0.00  0.00    -0.387 OA
BRANCH   2   3
HETATM    3  C   UNK N   1      35.096  15.913  11.254  0.00  0.00     0.187 C 
BRANCH   3   4
HETATM    4  C   UNK N   1      35.483  17.106  10.363  0.00  0.00     0.149 C 
BRANCH   4   5
HETATM    5  N   UNK N   1      34.749  16.916   9.146  0.00  0.00    -0.355 N 
HETATM    6  C   UNK N   1      34.479  17.937   8.290  0.00  0.00     0.251 C 
HETATM    7  O   UNK N   1      35.043  19.006   8.396  0.00  0.00    -0.268 OA
HETATM    8  H   UNK N   1      34.429  16.013   8.921  0.00  0.00     0.162 HD
BRANCH   6   9
HETATM    9  C   UNK N   1      33.322  17.773   7.392  0.00  0.00     0.032 A 
HETATM   10  C   UNK N   1      32.027  17.526   7.896  0.00  0.00     0.018 A 
HETATM   11  C   UNK N   1      30.996  17.137   7.018  0.00  0.00     0.026 A 
HETATM   12  C   UNK N   1      31.275  16.995   5.648  0.00  0.00     0.079 A 
HETATM   13  C   UNK N   1      32.552  17.275   5.168  0.00  0.00     0.026 A 
HETATM   14  C   UNK N   1      33.563  17.651   6.028  0.00  0.00     0.018 A 
BRANCH  12  15
HETATM   15  S   UNK N   1      30.101  16.455   4.410  0.00  0.00     0.256 S 
HETATM   16  O   UNK N   1      28.585  16.204   4.400  0.00  0.00    -0.201 OA
HETATM   17  O   UNK N   1      29.659  17.901   4.658  0.00  0.00    -0.201 OA
BRANCH  15  18
HETATM   18  N   UNK N   1      30.564  16.987   2.798  0.00  0.00    -0.324 N 
HETATM   19  H   UNK N   1      31.154  17.766   2.507  0.00  0.00     0.169 HD
HETATM   20  H   UNK N   1      30.183  16.428   2.035  0.00  0.00     0.169 HD
ENDBRANCH  15  18
ENDBRANCH  12  15
ENDBRANCH   6   9
ENDBRANCH   4   5
ENDBRANCH   3   4
ENDBRANCH   2   3
ENDBRANCH   1   2
BRANCH   1  21
HETATM   21  C   UNK N   1      36.430  13.921  13.914  0.00  0.00     0.193 C 
BRANCH  21  22
HETATM   22  O   UNK N   1      35.697  13.083  14.761  0.00  0.00    -0.387 OA
BRANCH  22  23
HETATM   23  C   UNK N   1      35.889  13.564  16.061  0.00  0.00     0.187 C 
BRANCH  23  24
HETATM   24  C   UNK N   1      34.803  13.001  16.968  0.00  0.00     0.148 C 
BRANCH  24  25
HETATM   25  N   UNK N   1      35.325  12.849  18.306  0.00  0.00    -0.357 N 
HETATM   26  C   UNK N   1      35.415  11.652  18.945  0.00  0.00     0.240 C 
HETATM   27  O   UNK N   1      35.807  11.631  20.101  0.00  0.00    -0.271 OA
HETATM   28  H   UNK N   1      35.631  13.655  18.782  0.00  0.00     0.162 HD
BRANCH  26  29
HETATM   29  C   UNK N   1      35.036  10.350  18.274  0.00  0.00     0.171 C 
BRANCH  29  30
HETATM   30  N   UNK N   1      34.203   9.576  19.186  0.00  0.00    -0.418 N 
HETATM   31  H   UNK N   1      33.301   9.519  19.659  0.00  0.00     0.150 HD
HETATM   32  H   UNK N   1      34.741   8.756  19.463  0.00  0.00     0.150 HD
ENDBRANCH  29  30
BRANCH  29  33
HETATM   33  C   UNK N   1      36.314   9.610  17.850  0.00  0.00     0.072 C 
BRANCH  33  34
HETATM   34  C   UNK N   1      36.445   9.301  16.393  0.00  0.00    -0.056 A 
HETATM   35  C   UNK N   1      35.844   8.148  15.881  0.00  0.00     0.007 A 
HETATM   36  C   UNK N   1      35.972   7.837  14.525  0.00  0.00     0.001 A 
HETATM   37  C   UNK N   1      36.702   8.680  13.680  0.00  0.00     0.000 A 
HETATM   38  C   UNK N   1      37.309   9.830  14.192  0.00  0.00     0.001 A 
HETATM   39  C   UNK N   1      37.186  10.139  15.549  0.00  0.00     0.007 A 
ENDBRANCH  33  34
ENDBRANCH  29  33
ENDBRANCH  26  29
ENDBRANCH  24  25
ENDBRANCH  23  24
ENDBRANCH  22  23
ENDBRANCH  21  22
ENDBRANCH   1  21
TORSDOF 16
ENDMDL
MODEL 9
REMARK VINA RESULT:      -5.7     11.572     14.755
REMARK  16 active torsions:
REMARK  status: ('A' for Active; 'I' for Inactive)
REMARK    1  A    between atoms: S_1  and  N_4 
REMARK    2  A    between atoms: S_1  and  C_8 
REMARK    3  A    between atoms: C_5  and  C_11 
REMARK       I    between atoms: C_11  and  N_13 
REMARK    4  A    between atoms: N_13  and  C_14 
REMARK    5  A    between atoms: C_14  and  C_15 
REMARK    6  A    between atoms: C_15  and  O_16 
REMARK    7  A    between atoms: O_16  and  C_17 
REMARK    8  A    between atoms: C_17  and  C_18 
REMARK    9  A    between atoms: C_18  and  O_19 
REMARK   10  A    between atoms: O_19  and  C_20 
REMARK   11  A    between atoms: C_20  and  C_21 
REMARK   12  A    between atoms: C_21  and  N_22 
REMARK       I    between atoms: N_22  and  C_23 
REMARK   13  A    between atoms: C_23  and  C_25 
REMARK   14  A    between atoms: C_25  and  N_26 
REMARK   15  A    between atoms: C_25  and  C_27 
REMARK   16  A    between atoms: C_27  and  C_28 
ROOT
HETATM    1  C   UNK N   1      23.188  14.723   6.437  0.00  0.00     0.193 C 
ENDROOT
BRANCH   1   2
HETATM    2  O   UNK N   1      24.221  15.629   6.143  0.00  0.00    -0.387 OA
BRANCH   2   3
HETATM    3  C   UNK N   1      25.343  14.967   5.586  0.00  0.00     0.187 C 
BRANCH   3   4
HETATM    4  C   UNK N   1      25.996  15.618   4.354  0.00  0.00     0.149 C 
BRANCH   4   5
HETATM    5  N   UNK N   1      27.274  16.082   4.808  0.00  0.00    -0.355 N 
HETATM    6  C   UNK N   1      28.347  16.194   3.982  0.00  0.00     0.251 C 
HETATM    7  O   UNK N   1      28.216  16.130   2.777  0.00  0.00    -0.268 OA
HETATM    8  H   UNK N   1      27.378  16.330   5.756  0.00  0.00     0.162 HD
BRANCH   6   9
HETATM    9  C   UNK N   1      29.682  16.158   4.605  0.00  0.00     0.032 A 
HETATM   10  C   UNK N   1      30.001  15.220   5.610  0.00  0.00     0.018 A 
HETATM   11  C   UNK N   1      31.192  15.364   6.349  0.00  0.00     0.026 A 
HETATM   12  C   UNK N   1      32.045  16.447   6.077  0.00  0.00     0.079 A 
HETATM   13  C   UNK N   1      31.726  17.342   5.059  0.00  0.00     0.026 A 
HETATM   14  C   UNK N   1      30.558  17.204   4.338  0.00  0.00     0.018 A 
BRANCH  12  15
HETATM   15  S   UNK N   1      33.561  16.808   6.957  0.00  0.00     0.256 S 
HETATM   16  O   UNK N   1      35.050  16.537   6.695  0.00  0.00    -0.201 OA
HETATM   17  O   UNK N   1      33.703  17.683   5.708  0.00  0.00    -0.201 OA
BRANCH  15  18
HETATM   18  N   UNK N   1      33.444  18.311   7.865  0.00  0.00    -0.324 N 
HETATM   19  H   UNK N   1      32.994  18.505   8.759  0.00  0.00     0.169 HD
HETATM   20  H   UNK N   1      33.898  19.113   7.428  0.00  0.00     0.169 HD
ENDBRANCH  15  18
ENDBRANCH  12  15
ENDBRANCH   6   9
ENDBRANCH   4   5
ENDBRANCH   3   4
ENDBRANCH   2   3
ENDBRANCH   1   2
BRANCH   1  21
HETATM   21  C   UNK N   1      21.951  15.530   6.815  0.00  0.00     0.193 C 
BRANCH  21  22
HETATM   22  O   UNK N   1      21.728  16.569   5.906  0.00  0.00    -0.387 OA
BRANCH  22  23
HETATM   23  C   UNK N   1      21.090  16.000   4.799  0.00  0.00     0.187 C 
BRANCH  23  24
HETATM   24  C   UNK N   1      21.706  16.559   3.524  0.00  0.00     0.148 C 
BRANCH  24  25
HETATM   25  N   UNK N   1      21.363  17.956   3.394  0.00  0.00    -0.357 N 
HETATM   26  C   UNK N   1      22.246  18.968   3.603  0.00  0.00     0.240 C 
HETATM   27  O   UNK N   1      21.846  20.120   3.535  0.00  0.00    -0.271 OA
HETATM   28  H   UNK N   1      20.440  18.187   3.141  0.00  0.00     0.162 HD
BRANCH  26  29
HETATM   29  C   UNK N   1      23.701  18.714   3.927  0.00  0.00     0.171 C 
BRANCH  29  30
HETATM   30  N   UNK N   1      23.820  18.394   5.344  0.00  0.00    -0.418 N 
HETATM   31  H   UNK N   1      23.346  18.382   6.247  0.00  0.00     0.150 HD
HETATM   32  H   UNK N   1      24.762  18.034   5.494  0.00  0.00     0.150 HD
ENDBRANCH  29  30
BRANCH  29  33
HETATM   33  C   UNK N   1      24.531  19.940   3.515  0.00  0.00     0.072 C 
BRANCH  33  34
HETATM   34  C   UNK N   1      25.784  20.181   4.294  0.00  0.00    -0.056 A 
HETATM   35  C   UNK N   1      25.744  21.012   5.416  0.00  0.00     0.007 A 
HETATM   36  C   UNK N   1      26.910  21.261   6.144  0.00  0.00     0.001 A 
HETATM   37  C   UNK N   1      28.119  20.678   5.750  0.00  0.00     0.000 A 
HETATM   38  C   UNK N   1      28.162  19.851   4.623  0.00  0.00     0.001 A 
HETATM   39  C   UNK N   1      26.998  19.606   3.892  0.00  0.00     0.007 A 
ENDBRANCH  33  34
ENDBRANCH  29  33
ENDBRANCH  26  29
ENDBRANCH  24  25
ENDBRANCH  23  24
ENDBRANCH  22  23
ENDBRANCH  21  22
ENDBRANCH   1  21
TORSDOF 16
ENDMDL
