REMARK  16 active torsions:
REMARK  status: ('A' for Active; 'I' for Inactive)
REMARK    1  A    between atoms: S_1  and  N_4 
REMARK    2  A    between atoms: S_1  and  C_8 
REMARK    3  A    between atoms: C_5  and  C_11 
REMARK       I    between atoms: C_11  and  N_13 
REMARK    4  A    between atoms: N_13  and  C_14 
REMARK    5  A    between atoms: C_14  and  C_15 
REMARK    6  A    between atoms: C_15  and  O_16 
REMARK    7  A    between atoms: O_16  and  C_17 
REMARK    8  A    between atoms: C_17  and  C_18 
REMARK    9  A    between atoms: C_18  and  O_19 
REMARK   10  A    between atoms: O_19  and  C_20 
REMARK   11  A    between atoms: C_20  and  C_21 
REMARK   12  A    between atoms: C_21  and  N_22 
REMARK       I    between atoms: N_22  and  C_23 
REMARK   13  A    between atoms: C_23  and  C_25 
REMARK   14  A    between atoms: C_25  and  N_26 
REMARK   15  A    between atoms: C_25  and  C_27 
REMARK   16  A    between atoms: C_27  and  C_28 
ROOT
HETATM    1  C   UNK N   1      -1.278   0.094   0.169  0.00  0.00     0.193 C 
ENDROOT
BRANCH   1   2
HETATM    2  O   UNK N   1      -1.051  -0.524  -1.072  0.00  0.00    -0.387 OA
BRANCH   2   3
HETATM    3  C   UNK N   1      -2.035  -1.506  -1.346  0.00  0.00     0.187 C 
BRANCH   3   4
HETATM    4  C   UNK N   1      -2.562  -2.318  -0.150  0.00  0.00     0.149 C 
BRANCH   4   5
HETATM    5  N   UNK N   1      -3.689  -1.578   0.337  0.00  0.00    -0.355 N 
HETATM    6  C   UNK N   1      -4.971  -1.980   0.131  0.00  0.00     0.251 C 
HETATM    7  O   UNK N   1      -5.217  -3.099  -0.269  0.00  0.00    -0.268 OA
HETATM    8  H   UNK N   1      -3.529  -0.747   0.840  0.00  0.00     0.162 HD
BRANCH   6   9
HETATM    9  C   UNK N   1      -6.017  -0.944   0.185  0.00  0.00     0.032 A 
HETATM   10  C   UNK N   1      -7.318  -1.183  -0.308  0.00  0.00     0.018 A 
HETATM   11  C   UNK N   1      -8.217  -0.109  -0.462  0.00  0.00     0.026 A 
HETATM   12  C   UNK N   1      -7.801   1.191  -0.127  0.00  0.00     0.079 A 
HETATM   13  C   UNK N   1      -6.524   1.399   0.388  0.00  0.00     0.026 A 
HETATM   14  C   UNK N   1      -5.642   0.349   0.535  0.00  0.00     0.018 A 
BRANCH  12  15
HETATM   15  S   UNK N   1      -8.793   2.668  -0.316  0.00  0.00     0.256 S 
HETATM   16  O   UNK N   1     -10.286   2.940  -0.556  0.00  0.00    -0.201 OA
HETATM   17  O   UNK N   1      -9.312   2.105   1.011  0.00  0.00    -0.201 OA
BRANCH  15  18
HETATM   18  N   UNK N   1      -8.152   4.008   0.627  0.00  0.00    -0.324 N 
HETATM   19  H   UNK N   1      -7.294   4.075   1.174  0.00  0.00     0.169 HD
HETATM   20  H   UNK N   1      -8.729   4.849   0.627  0.00  0.00     0.169 HD
ENDBRANCH  15  18
ENDBRANCH  12  15
ENDBRANCH   6   9
ENDBRANCH   4   5
ENDBRANCH   3   4
ENDBRANCH   2   3
ENDBRANCH   1   2
BRANCH   1  21
HETATM   21  C   UNK N   1      -0.252  -0.449   1.158  0.00  0.00     0.193 C 
BRANCH  21  22
HETATM   22  O   UNK N   1       0.961   0.240   1.057  0.00  0.00    -0.387 OA
BRANCH  22  23
HETATM   23  C   UNK N   1       1.592  -0.231  -0.099  0.00  0.00     0.187 C 
BRANCH  23  24
HETATM   24  C   UNK N   1       2.110   0.952  -0.905  0.00  0.00     0.148 C 
BRANCH  24  25
HETATM   25  N   UNK N   1       3.077   1.684  -0.120  0.00  0.00    -0.357 N 
HETATM   26  C   UNK N   1       4.283   1.177   0.248  0.00  0.00     0.240 C 
HETATM   27  O   UNK N   1       5.007   1.846   0.969  0.00  0.00    -0.271 OA
HETATM   28  H   UNK N   1       2.850   2.599   0.164  0.00  0.00     0.162 HD
BRANCH  26  29
HETATM   29  C   UNK N   1       4.752  -0.191  -0.196  0.00  0.00     0.171 C 
BRANCH  29  30
HETATM   30  N   UNK N   1       4.918  -1.037   0.979  0.00  0.00    -0.418 N 
HETATM   31  H   UNK N   1       4.464  -1.434   1.801  0.00  0.00     0.150 HD
HETATM   32  H   UNK N   1       5.883  -1.367   0.979  0.00  0.00     0.150 HD
ENDBRANCH  29  30
BRANCH  29  33
HETATM   33  C   UNK N   1       6.042  -0.040  -1.017  0.00  0.00     0.072 C 
BRANCH  33  34
HETATM   34  C   UNK N   1       7.251  -0.737  -0.481  0.00  0.00    -0.056 A 
HETATM   35  C   UNK N   1       8.361   0.018  -0.093  0.00  0.00     0.007 A 
HETATM   36  C   UNK N   1       9.505  -0.620   0.394  0.00  0.00     0.001 A 
HETATM   37  C   UNK N   1       9.539  -2.015   0.493  0.00  0.00     0.000 A 
HETATM   38  C   UNK N   1       8.432  -2.772   0.099  0.00  0.00     0.001 A 
HETATM   39  C   UNK N   1       7.290  -2.135  -0.393  0.00  0.00     0.007 A 
ENDBRANCH  33  34
ENDBRANCH  29  33
ENDBRANCH  26  29
ENDBRANCH  24  25
ENDBRANCH  23  24
ENDBRANCH  22  23
ENDBRANCH  21  22
ENDBRANCH   1  21
TORSDOF 16
