MODEL 1
REMARK VINA RESULT:      -5.8      0.000      0.000
REMARK  9 active torsions:
REMARK  status: ('A' for Active; 'I' for Inactive)
REMARK    1  A    between atoms: C_1  and  N_15 
REMARK    2  A    between atoms: C_13  and  N_10 
REMARK    3  A    between atoms: C_14  and  C_13 
REMARK    4  A    between atoms: C_21  and  C_13 
REMARK    5  A    between atoms: C_16  and  C_14 
REMARK    6  A    between atoms: C_17  and  C_16 
REMARK    7  A    between atoms: C_18  and  C_17 
REMARK    8  A    between atoms: C_19  and  C_18 
REMARK    9  A    between atoms: C_21  and  O_22 
ROOT
HETATM    1  C   UNK N   1      34.478  14.750  11.060  0.00  0.00     0.131 A 
HETATM    2  C   UNK N   1      33.631  14.887   9.972  0.00  0.00     0.122 A 
HETATM    3  C   UNK N   1      33.612  16.035   9.262  0.00  0.00     0.141 A 
HETATM    4  C   UNK N   1      35.245  16.969  10.651  0.00  0.00     0.183 A 
HETATM    5  C   UNK N   1      32.241  14.653   8.368  0.00  0.00     0.185 A 
HETATM    6  N   UNK N   1      34.407  17.087   9.574  0.00  0.00    -0.336 N 
ATOM      7  HN  UNK N   1      34.383  17.944   9.021  1.00  0.00     0.168 HD
HETATM    8  N   UNK N   1      35.279  15.807  11.385  0.00  0.00    -0.337 N 
ATOM      9  HN  UNK N   1      35.911  15.733  12.182  1.00  0.00     0.168 HD
HETATM   10  N   UNK N   1      32.741  15.913   8.241  0.00  0.00    -0.320 N 
HETATM   11  N   UNK N   1      32.774  14.003   9.438  0.00  0.00    -0.346 N 
ATOM     12  HN  UNK N   1      32.567  13.058   9.763  1.00  0.00     0.167 HD
ENDROOT
BRANCH  10  13
HETATM   13  C   UNK N   1      32.405  16.844   7.141  0.00  0.00     0.120 C 
BRANCH  13  14
HETATM   14  C   UNK N   1      31.147  16.424   6.360  0.00  0.00     0.028 C 
BRANCH  14  15
HETATM   15  C   UNK N   1      30.021  17.455   6.349  0.00  0.00     0.002 C 
BRANCH  15  16
HETATM   16  C   UNK N   1      29.163  17.303   7.597  0.00  0.00     0.000 C 
BRANCH  16  17
HETATM   17  C   UNK N   1      29.037  18.630   8.331  0.00  0.00    -0.000 C 
BRANCH  17  18
HETATM   18  C   UNK N   1      29.531  18.493   9.752  0.00  0.00    -0.005 C 
HETATM   19  C   UNK N   1      29.307  17.067  10.205  0.00  0.00     0.005 C 
ENDBRANCH  17  18
ENDBRANCH  16  17
ENDBRANCH  15  16
ENDBRANCH  14  15
ENDBRANCH  13  14
BRANCH  13  20
HETATM   20  C   UNK N   1      33.617  17.104   6.209  0.00  0.00     0.137 C 
HETATM   21  C   UNK N   1      33.162  17.483   4.807  0.00  0.00     0.041 C 
BRANCH  20  22
HETATM   22  O   UNK N   1      34.394  18.153   6.703  0.00  0.00    -0.394 OA
HETATM   23  H   UNK N   1      34.119  19.074   6.566  0.00  0.00     0.210 HD
ENDBRANCH  20  22
ENDBRANCH  13  20
ENDBRANCH  10  13
BRANCH   1  24
HETATM   24  N   UNK N   1      34.528  13.553  11.803  0.00  0.00    -0.383 N 
HETATM   25  H   UNK N   1      33.722  12.997  11.904  0.00  0.00     0.157 HD
HETATM   26  H   UNK N   1      35.373  13.272  12.222  0.00  0.00     0.157 HD
ENDBRANCH   1  24
TORSDOF 9
ENDMDL
MODEL 2
REMARK VINA RESULT:      -5.8      1.122      1.673
REMARK  9 active torsions:
REMARK  status: ('A' for Active; 'I' for Inactive)
REMARK    1  A    between atoms: C_1  and  N_15 
REMARK    2  A    between atoms: C_13  and  N_10 
REMARK    3  A    between atoms: C_14  and  C_13 
REMARK    4  A    between atoms: C_21  and  C_13 
REMARK    5  A    between atoms: C_16  and  C_14 
REMARK    6  A    between atoms: C_17  and  C_16 
REMARK    7  A    between atoms: C_18  and  C_17 
REMARK    8  A    between atoms: C_19  and  C_18 
REMARK    9  A    between atoms: C_21  and  O_22 
ROOT
HETATM    1  C   UNK N   1      34.560  14.551  11.152  0.00  0.00     0.131 A 
HETATM    2  C   UNK N   1      33.714  14.759  10.075  0.00  0.00     0.122 A 
HETATM    3  C   UNK N   1      33.706  15.945   9.431  0.00  0.00     0.141 A 
HETATM    4  C   UNK N   1      35.350  16.781  10.868  0.00  0.00     0.183 A 
HETATM    5  C   UNK N   1      32.320  14.631   8.463  0.00  0.00     0.185 A 
HETATM    6  N   UNK N   1      34.513  16.969   9.801  0.00  0.00    -0.336 N 
ATOM      7  HN  UNK N   1      34.496  17.857   9.298  1.00  0.00     0.168 HD
HETATM    8  N   UNK N   1      35.373  15.579  11.535  0.00  0.00    -0.337 N 
ATOM      9  HN  UNK N   1      36.005  15.454  12.325  1.00  0.00     0.168 HD
HETATM   10  N   UNK N   1      32.833  15.890   8.406  0.00  0.00    -0.320 N 
HETATM   11  N   UNK N   1      32.846  13.916   9.493  0.00  0.00    -0.346 N 
ATOM     12  HN  UNK N   1      32.630  12.956   9.764  1.00  0.00     0.167 HD
ENDROOT
BRANCH  10  13
HETATM   13  C   UNK N   1      32.505  16.886   7.362  0.00  0.00     0.120 C 
BRANCH  13  14
HETATM   14  C   UNK N   1      31.223  16.542   6.583  0.00  0.00     0.028 C 
BRANCH  14  15
HETATM   15  C   UNK N   1      29.942  17.151   7.149  0.00  0.00     0.002 C 
BRANCH  15  16
HETATM   16  C   UNK N   1      29.125  17.781   6.029  0.00  0.00     0.000 C 
BRANCH  16  17
HETATM   17  C   UNK N   1      27.792  18.292   6.555  0.00  0.00    -0.000 C 
BRANCH  17  18
HETATM   18  C   UNK N   1      27.914  19.736   6.984  0.00  0.00    -0.005 C 
HETATM   19  C   UNK N   1      27.470  20.618   5.837  0.00  0.00     0.005 C 
ENDBRANCH  17  18
ENDBRANCH  16  17
ENDBRANCH  15  16
ENDBRANCH  14  15
ENDBRANCH  13  14
BRANCH  13  20
HETATM   20  C   UNK N   1      33.708  17.160   6.422  0.00  0.00     0.137 C 
HETATM   21  C   UNK N   1      33.240  17.562   5.031  0.00  0.00     0.041 C 
BRANCH  20  22
HETATM   22  O   UNK N   1      34.491  18.200   6.926  0.00  0.00    -0.394 OA
HETATM   23  H   UNK N   1      35.283  18.007   7.453  0.00  0.00     0.210 HD
ENDBRANCH  20  22
ENDBRANCH  13  20
ENDBRANCH  10  13
BRANCH   1  24
HETATM   24  N   UNK N   1      34.598  13.313  11.826  0.00  0.00    -0.383 N 
HETATM   25  H   UNK N   1      34.987  13.251  12.728  0.00  0.00     0.157 HD
HETATM   26  H   UNK N   1      34.234  12.508  11.391  0.00  0.00     0.157 HD
ENDBRANCH   1  24
TORSDOF 9
ENDMDL
MODEL 3
REMARK VINA RESULT:      -5.4      3.764      7.392
REMARK  9 active torsions:
REMARK  status: ('A' for Active; 'I' for Inactive)
REMARK    1  A    between atoms: C_1  and  N_15 
REMARK    2  A    between atoms: C_13  and  N_10 
REMARK    3  A    between atoms: C_14  and  C_13 
REMARK    4  A    between atoms: C_21  and  C_13 
REMARK    5  A    between atoms: C_16  and  C_14 
REMARK    6  A    between atoms: C_17  and  C_16 
REMARK    7  A    between atoms: C_18  and  C_17 
REMARK    8  A    between atoms: C_19  and  C_18 
REMARK    9  A    between atoms: C_21  and  O_22 
ROOT
HETATM    1  C   UNK N   1      33.576  17.235   8.797  0.00  0.00     0.131 A 
HETATM    2  C   UNK N   1      34.351  16.659   9.791  0.00  0.00     0.122 A 
HETATM    3  C   UNK N   1      33.964  15.506  10.376  0.00  0.00     0.141 A 
HETATM    4  C   UNK N   1      32.042  15.428   9.047  0.00  0.00     0.183 A 
HETATM    5  C   UNK N   1      35.844  16.102  11.211  0.00  0.00     0.185 A 
HETATM    6  N   UNK N   1      32.822  14.868  10.024  0.00  0.00    -0.336 N 
ATOM      7  HN  UNK N   1      32.550  13.994  10.474  1.00  0.00     0.168 HD
HETATM    8  N   UNK N   1      32.420  16.602   8.439  0.00  0.00    -0.337 N 
ATOM      9  HN  UNK N   1      31.830  17.004   7.711  1.00  0.00     0.168 HD
HETATM   10  N   UNK N   1      34.893  15.132  11.278  0.00  0.00    -0.320 N 
HETATM   11  N   UNK N   1      35.525  17.062  10.302  0.00  0.00    -0.346 N 
ATOM     12  HN  UNK N   1      36.057  17.900  10.062  1.00  0.00     0.167 HD
ENDROOT
BRANCH  10  13
HETATM   13  C   UNK N   1      34.983  13.923  12.127  0.00  0.00     0.120 C 
BRANCH  13  14
HETATM   14  C   UNK N   1      36.089  14.017  13.194  0.00  0.00     0.028 C 
BRANCH  14  15
HETATM   15  C   UNK N   1      35.640  13.689  14.616  0.00  0.00     0.002 C 
BRANCH  15  16
HETATM   16  C   UNK N   1      36.217  12.348  15.049  0.00  0.00     0.000 C 
BRANCH  16  17
HETATM   17  C   UNK N   1      35.818  12.026  16.482  0.00  0.00    -0.000 C 
BRANCH  17  18
HETATM   18  C   UNK N   1      34.866  13.074  17.009  0.00  0.00    -0.005 C 
HETATM   19  C   UNK N   1      35.202  13.344  18.460  0.00  0.00     0.005 C 
ENDBRANCH  17  18
ENDBRANCH  16  17
ENDBRANCH  15  16
ENDBRANCH  14  15
ENDBRANCH  13  14
BRANCH  13  20
HETATM   20  C   UNK N   1      35.090  12.626  11.282  0.00  0.00     0.137 C 
HETATM   21  C   UNK N   1      36.531  12.141  11.199  0.00  0.00     0.041 C 
BRANCH  20  22
HETATM   22  O   UNK N   1      34.329  11.608  11.857  0.00  0.00    -0.394 OA
HETATM   23  H   UNK N   1      33.538  11.820  12.378  0.00  0.00     0.210 HD
ENDBRANCH  20  22
ENDBRANCH  13  20
ENDBRANCH  10  13
BRANCH   1  24
HETATM   24  N   UNK N   1      33.971  18.429   8.159  0.00  0.00    -0.383 N 
HETATM   25  H   UNK N   1      33.968  19.279   8.653  0.00  0.00     0.157 HD
HETATM   26  H   UNK N   1      34.250  18.409   7.216  0.00  0.00     0.157 HD
ENDBRANCH   1  24
TORSDOF 9
ENDMDL
MODEL 4
REMARK VINA RESULT:      -5.4     11.547     13.472
REMARK  9 active torsions:
REMARK  status: ('A' for Active; 'I' for Inactive)
REMARK    1  A    between atoms: C_1  and  N_15 
REMARK    2  A    between atoms: C_13  and  N_10 
REMARK    3  A    between atoms: C_14  and  C_13 
REMARK    4  A    between atoms: C_21  and  C_13 
REMARK    5  A    between atoms: C_16  and  C_14 
REMARK    6  A    between atoms: C_17  and  C_16 
REMARK    7  A    between atoms: C_18  and  C_17 
REMARK    8  A    between atoms: C_19  and  C_18 
REMARK    9  A    between atoms: C_21  and  O_22 
ROOT
HETATM    1  C   UNK N   1      19.855  17.639   1.894  0.00  0.00     0.131 A 
HETATM    2  C   UNK N   1      19.973  16.875   3.043  0.00  0.00     0.122 A 
HETATM    3  C   UNK N   1      20.584  17.377   4.137  0.00  0.00     0.141 A 
HETATM    4  C   UNK N   1      20.996  19.395   3.031  0.00  0.00     0.183 A 
HETATM    5  C   UNK N   1      19.887  15.402   4.587  0.00  0.00     0.185 A 
HETATM    6  N   UNK N   1      21.099  18.630   4.162  0.00  0.00    -0.336 N 
ATOM      7  HN  UNK N   1      21.552  18.994   5.001  1.00  0.00     0.168 HD
HETATM    8  N   UNK N   1      20.375  18.901   1.908  0.00  0.00    -0.337 N 
ATOM      9  HN  UNK N   1      20.303  19.485   1.074  1.00  0.00     0.168 HD
HETATM   10  N   UNK N   1      20.542  16.465   5.128  0.00  0.00    -0.320 N 
HETATM   11  N   UNK N   1      19.532  15.632   3.294  0.00  0.00    -0.346 N 
ATOM     12  HN  UNK N   1      19.043  15.002   2.657  1.00  0.00     0.167 HD
ENDROOT
BRANCH  10  13
HETATM   13  C   UNK N   1      21.000  16.544   6.534  0.00  0.00     0.120 C 
BRANCH  13  14
HETATM   14  C   UNK N   1      21.069  15.169   7.222  0.00  0.00     0.028 C 
BRANCH  14  15
HETATM   15  C   UNK N   1      22.481  14.624   7.430  0.00  0.00     0.002 C 
BRANCH  15  16
HETATM   16  C   UNK N   1      22.485  13.606   8.563  0.00  0.00     0.000 C 
BRANCH  16  17
HETATM   17  C   UNK N   1      21.275  13.797   9.465  0.00  0.00    -0.000 C 
BRANCH  17  18
HETATM   18  C   UNK N   1      21.242  12.727  10.532  0.00  0.00    -0.005 C 
HETATM   19  C   UNK N   1      22.452  11.835  10.358  0.00  0.00     0.005 C 
ENDBRANCH  17  18
ENDBRANCH  16  17
ENDBRANCH  15  16
ENDBRANCH  14  15
ENDBRANCH  13  14
BRANCH  13  20
HETATM   20  C   UNK N   1      20.178  17.572   7.355  0.00  0.00     0.137 C 
HETATM   21  C   UNK N   1      19.963  17.090   8.783  0.00  0.00     0.041 C 
BRANCH  20  22
HETATM   22  O   UNK N   1      20.851  18.794   7.415  0.00  0.00    -0.394 OA
HETATM   23  H   UNK N   1      20.734  19.381   8.178  0.00  0.00     0.210 HD
ENDBRANCH  20  22
ENDBRANCH  13  20
ENDBRANCH  10  13
BRANCH   1  24
HETATM   24  N   UNK N   1      19.203  17.141   0.747  0.00  0.00    -0.383 N 
HETATM   25  H   UNK N   1      19.479  16.283   0.352  0.00  0.00     0.157 HD
HETATM   26  H   UNK N   1      18.469  17.654   0.340  0.00  0.00     0.157 HD
ENDBRANCH   1  24
TORSDOF 9
ENDMDL
MODEL 5
REMARK VINA RESULT:      -5.3      3.147      4.699
REMARK  9 active torsions:
REMARK  status: ('A' for Active; 'I' for Inactive)
REMARK    1  A    between atoms: C_1  and  N_15 
REMARK    2  A    between atoms: C_13  and  N_10 
REMARK    3  A    between atoms: C_14  and  C_13 
REMARK    4  A    between atoms: C_21  and  C_13 
REMARK    5  A    between atoms: C_16  and  C_14 
REMARK    6  A    between atoms: C_17  and  C_16 
REMARK    7  A    between atoms: C_18  and  C_17 
REMARK    8  A    between atoms: C_19  and  C_18 
REMARK    9  A    between atoms: C_21  and  O_22 
ROOT
HETATM    1  C   UNK N   1      33.595  17.201   8.470  0.00  0.00     0.131 A 
HETATM    2  C   UNK N   1      32.228  17.354   8.312  0.00  0.00     0.122 A 
HETATM    3  C   UNK N   1      31.678  17.346   7.079  0.00  0.00     0.141 A 
HETATM    4  C   UNK N   1      33.780  17.042   6.100  0.00  0.00     0.183 A 
HETATM    5  C   UNK N   1      30.114  17.562   8.525  0.00  0.00     0.185 A 
HETATM    6  N   UNK N   1      32.425  17.188   5.959  0.00  0.00    -0.336 N 
ATOM      7  HN  UNK N   1      31.990  17.178   5.036  1.00  0.00     0.168 HD
HETATM    8  N   UNK N   1      34.357  17.046   7.347  0.00  0.00    -0.337 N 
ATOM      9  HN  UNK N   1      35.367  16.933   7.435  1.00  0.00     0.168 HD
HETATM   10  N   UNK N   1      30.341  17.474   7.187  0.00  0.00    -0.320 N 
HETATM   11  N   UNK N   1      31.269  17.497   9.240  0.00  0.00    -0.346 N 
ATOM     12  HN  UNK N   1      31.383  17.547  10.253  1.00  0.00     0.167 HD
ENDROOT
BRANCH  10  13
HETATM   13  C   UNK N   1      29.282  17.452   6.153  0.00  0.00     0.120 C 
BRANCH  13  14
HETATM   14  C   UNK N   1      27.957  18.069   6.636  0.00  0.00     0.028 C 
BRANCH  14  15
HETATM   15  C   UNK N   1      27.648  19.454   6.072  0.00  0.00     0.002 C 
BRANCH  15  16
HETATM   16  C   UNK N   1      28.047  19.520   4.604  0.00  0.00     0.000 C 
BRANCH  16  17
HETATM   17  C   UNK N   1      27.001  20.270   3.794  0.00  0.00    -0.000 C 
BRANCH  17  18
HETATM   18  C   UNK N   1      25.839  19.360   3.466  0.00  0.00    -0.005 C 
HETATM   19  C   UNK N   1      24.572  20.187   3.437  0.00  0.00     0.005 C 
ENDBRANCH  17  18
ENDBRANCH  16  17
ENDBRANCH  15  16
ENDBRANCH  14  15
ENDBRANCH  13  14
BRANCH  13  20
HETATM   20  C   UNK N   1      29.087  16.035   5.552  0.00  0.00     0.137 C 
HETATM   21  C   UNK N   1      27.643  15.813   5.123  0.00  0.00     0.041 C 
BRANCH  20  22
HETATM   22  O   UNK N   1      29.896  15.870   4.427  0.00  0.00    -0.394 OA
HETATM   23  H   UNK N   1      29.515  15.561   3.590  0.00  0.00     0.210 HD
ENDBRANCH  20  22
ENDBRANCH  13  20
ENDBRANCH  10  13
BRANCH   1  24
HETATM   24  N   UNK N   1      34.188  17.188   9.750  0.00  0.00    -0.383 N 
HETATM   25  H   UNK N   1      35.061  17.617   9.897  0.00  0.00     0.157 HD
HETATM   26  H   UNK N   1      33.725  16.747  10.498  0.00  0.00     0.157 HD
ENDBRANCH   1  24
TORSDOF 9
ENDMDL
MODEL 6
REMARK VINA RESULT:      -5.1      2.393      4.572
REMARK  9 active torsions:
REMARK  status: ('A' for Active; 'I' for Inactive)
REMARK    1  A    between atoms: C_1  and  N_15 
REMARK    2  A    between atoms: C_13  and  N_10 
REMARK    3  A    between atoms: C_14  and  C_13 
REMARK    4  A    between atoms: C_21  and  C_13 
REMARK    5  A    between atoms: C_16  and  C_14 
REMARK    6  A    between atoms: C_17  and  C_16 
REMARK    7  A    between atoms: C_18  and  C_17 
REMARK    8  A    between atoms: C_19  and  C_18 
REMARK    9  A    between atoms: C_21  and  O_22 
ROOT
HETATM    1  C   UNK N   1      36.186  13.884  13.279  0.00  0.00     0.131 A 
HETATM    2  C   UNK N   1      35.831  14.724  12.236  0.00  0.00     0.122 A 
HETATM    3  C   UNK N   1      35.007  14.289  11.259  0.00  0.00     0.141 A 
HETATM    4  C   UNK N   1      34.841  12.191  12.277  0.00  0.00     0.183 A 
HETATM    5  C   UNK N   1      35.508  16.336  10.874  0.00  0.00     0.185 A 
HETATM    6  N   UNK N   1      34.495  13.035  11.256  0.00  0.00    -0.336 N 
ATOM      7  HN  UNK N   1      33.868  12.727  10.512  1.00  0.00     0.168 HD
HETATM    8  N   UNK N   1      35.678  12.616  13.281  0.00  0.00    -0.337 N 
ATOM      9  HN  UNK N   1      35.923  11.977  14.037  1.00  0.00     0.168 HD
HETATM   10  N   UNK N   1      34.785  15.291  10.386  0.00  0.00    -0.320 N 
HETATM   11  N   UNK N   1      36.170  16.004  12.015  0.00  0.00    -0.346 N 
ATOM     12  HN  UNK N   1      36.784  16.594  12.577  1.00  0.00     0.167 HD
ENDROOT
BRANCH  10  13
HETATM   13  C   UNK N   1      33.911  15.357   9.193  0.00  0.00     0.120 C 
BRANCH  13  14
HETATM   14  C   UNK N   1      34.021  16.695   8.440  0.00  0.00     0.028 C 
BRANCH  14  15
HETATM   15  C   UNK N   1      34.416  16.575   6.970  0.00  0.00     0.002 C 
BRANCH  15  16
HETATM   16  C   UNK N   1      33.719  17.655   6.153  0.00  0.00     0.000 C 
BRANCH  16  17
HETATM   17  C   UNK N   1      32.597  17.058   5.316  0.00  0.00    -0.000 C 
BRANCH  17  18
HETATM   18  C   UNK N   1      32.706  17.523   3.882  0.00  0.00    -0.005 C 
HETATM   19  C   UNK N   1      32.602  16.317   2.975  0.00  0.00     0.005 C 
ENDBRANCH  17  18
ENDBRANCH  16  17
ENDBRANCH  15  16
ENDBRANCH  14  15
ENDBRANCH  13  14
BRANCH  13  20
HETATM   20  C   UNK N   1      32.442  14.990   9.529  0.00  0.00     0.137 C 
HETATM   21  C   UNK N   1      31.466  15.883   8.777  0.00  0.00     0.041 C 
BRANCH  20  22
HETATM   22  O   UNK N   1      32.177  13.669   9.166  0.00  0.00    -0.394 OA
HETATM   23  H   UNK N   1      32.883  13.002   9.189  0.00  0.00     0.210 HD
ENDBRANCH  20  22
ENDBRANCH  13  20
ENDBRANCH  10  13
BRANCH   1  24
HETATM   24  N   UNK N   1      37.030  14.324  14.320  0.00  0.00    -0.383 N 
HETATM   25  H   UNK N   1      37.721  13.726  14.684  0.00  0.00     0.157 HD
HETATM   26  H   UNK N   1      36.926  15.233  14.683  0.00  0.00     0.157 HD
ENDBRANCH   1  24
TORSDOF 9
ENDMDL
MODEL 7
REMARK VINA RESULT:      -5.1      3.034      5.743
REMARK  9 active torsions:
REMARK  status: ('A' for Active; 'I' for Inactive)
REMARK    1  A    between atoms: C_1  and  N_15 
REMARK    2  A    between atoms: C_13  and  N_10 
REMARK    3  A    between atoms: C_14  and  C_13 
REMARK    4  A    between atoms: C_21  and  C_13 
REMARK    5  A    between atoms: C_16  and  C_14 
REMARK    6  A    between atoms: C_17  and  C_16 
REMARK    7  A    between atoms: C_18  and  C_17 
REMARK    8  A    between atoms: C_19  and  C_18 
REMARK    9  A    between atoms: C_21  and  O_22 
ROOT
HETATM    1  C   UNK N   1      27.825  18.705   7.153  0.00  0.00     0.131 A 
HETATM    2  C   UNK N   1      28.914  18.129   6.520  0.00  0.00     0.122 A 
HETATM    3  C   UNK N   1      29.964  17.682   7.240  0.00  0.00     0.141 A 
HETATM    4  C   UNK N   1      28.932  18.343   9.232  0.00  0.00     0.183 A 
HETATM    5  C   UNK N   1      30.331  17.277   5.169  0.00  0.00     0.185 A 
HETATM    6  N   UNK N   1      30.000  17.771   8.592  0.00  0.00    -0.336 N 
ATOM      7  HN  UNK N   1      30.800  17.421   9.119  1.00  0.00     0.168 HD
HETATM    8  N   UNK N   1      27.854  18.803   8.515  0.00  0.00    -0.337 N 
ATOM      9  HN  UNK N   1      27.065  19.224   9.006  1.00  0.00     0.168 HD
HETATM   10  N   UNK N   1      30.874  17.137   6.409  0.00  0.00    -0.320 N 
HETATM   11  N   UNK N   1      29.121  17.896   5.214  0.00  0.00    -0.346 N 
ATOM     12  HN  UNK N   1      28.508  18.131   4.433  1.00  0.00     0.167 HD
ENDROOT
BRANCH  10  13
HETATM   13  C   UNK N   1      32.153  16.449   6.694  0.00  0.00     0.120 C 
BRANCH  13  14
HETATM   14  C   UNK N   1      33.385  17.335   6.435  0.00  0.00     0.028 C 
BRANCH  14  15
HETATM   15  C   UNK N   1      33.880  18.120   7.647  0.00  0.00     0.002 C 
BRANCH  15  16
HETATM   16  C   UNK N   1      33.593  17.343   8.925  0.00  0.00     0.000 C 
BRANCH  16  17
HETATM   17  C   UNK N   1      34.869  16.735   9.486  0.00  0.00    -0.000 C 
BRANCH  17  18
HETATM   18  C   UNK N   1      34.878  15.239   9.270  0.00  0.00    -0.005 C 
HETATM   19  C   UNK N   1      33.538  14.683   9.700  0.00  0.00     0.005 C 
ENDBRANCH  17  18
ENDBRANCH  16  17
ENDBRANCH  15  16
ENDBRANCH  14  15
ENDBRANCH  13  14
BRANCH  13  20
HETATM   20  C   UNK N   1      32.251  15.080   5.970  0.00  0.00     0.137 C 
HETATM   21  C   UNK N   1      33.701  14.692   5.719  0.00  0.00     0.041 C 
BRANCH  20  22
HETATM   22  O   UNK N   1      31.669  14.078   6.748  0.00  0.00    -0.394 OA
HETATM   23  H   UNK N   1      32.216  13.370   7.125  0.00  0.00     0.210 HD
ENDBRANCH  20  22
ENDBRANCH  13  20
ENDBRANCH  10  13
BRANCH   1  24
HETATM   24  N   UNK N   1      26.709  19.161   6.421  0.00  0.00    -0.383 N 
HETATM   25  H   UNK N   1      25.860  19.354   6.880  0.00  0.00     0.157 HD
HETATM   26  H   UNK N   1      26.781  19.287   5.448  0.00  0.00     0.157 HD
ENDBRANCH   1  24
TORSDOF 9
ENDMDL
MODEL 8
REMARK VINA RESULT:      -5.0      3.400      4.997
REMARK  9 active torsions:
REMARK  status: ('A' for Active; 'I' for Inactive)
REMARK    1  A    between atoms: C_1  and  N_15 
REMARK    2  A    between atoms: C_13  and  N_10 
REMARK    3  A    between atoms: C_14  and  C_13 
REMARK    4  A    between atoms: C_21  and  C_13 
REMARK    5  A    between atoms: C_16  and  C_14 
REMARK    6  A    between atoms: C_17  and  C_16 
REMARK    7  A    between atoms: C_18  and  C_17 
REMARK    8  A    between atoms: C_19  and  C_18 
REMARK    9  A    between atoms: C_21  and  O_22 
ROOT
HETATM    1  C   UNK N   1      32.403  17.259   7.644  0.00  0.00     0.131 A 
HETATM    2  C   UNK N   1      31.106  17.219   7.156  0.00  0.00     0.122 A 
HETATM    3  C   UNK N   1      30.873  17.304   5.830  0.00  0.00     0.141 A 
HETATM    4  C   UNK N   1      33.164  17.477   5.396  0.00  0.00     0.183 A 
HETATM    5  C   UNK N   1      29.001  17.062   6.841  0.00  0.00     0.185 A 
HETATM    6  N   UNK N   1      31.877  17.429   4.929  0.00  0.00    -0.336 N 
ATOM      7  HN  UNK N   1      31.680  17.486   3.929  1.00  0.00     0.168 HD
HETATM    8  N   UNK N   1      33.421  17.390   6.744  0.00  0.00    -0.337 N 
ATOM      9  HN  UNK N   1      34.385  17.423   7.075  1.00  0.00     0.168 HD
HETATM   10  N   UNK N   1      29.548  17.206   5.604  0.00  0.00    -0.320 N 
HETATM   11  N   UNK N   1      29.948  17.074   7.818  0.00  0.00    -0.346 N 
ATOM     12  HN  UNK N   1      29.809  16.993   8.826  1.00  0.00     0.167 HD
ENDROOT
BRANCH  10  13
HETATM   13  C   UNK N   1      28.784  17.170   4.337  0.00  0.00     0.120 C 
BRANCH  13  14
HETATM   14  C   UNK N   1      27.273  16.966   4.550  0.00  0.00     0.028 C 
BRANCH  14  15
HETATM   15  C   UNK N   1      26.390  18.095   4.024  0.00  0.00     0.002 C 
BRANCH  15  16
HETATM   16  C   UNK N   1      27.232  19.336   3.761  0.00  0.00     0.000 C 
BRANCH  16  17
HETATM   17  C   UNK N   1      26.532  20.583   4.279  0.00  0.00    -0.000 C 
BRANCH  17  18
HETATM   18  C   UNK N   1      26.326  20.487   5.773  0.00  0.00    -0.005 C 
HETATM   19  C   UNK N   1      27.617  20.872   6.463  0.00  0.00     0.005 C 
ENDBRANCH  17  18
ENDBRANCH  16  17
ENDBRANCH  15  16
ENDBRANCH  14  15
ENDBRANCH  13  14
BRANCH  13  20
HETATM   20  C   UNK N   1      29.378  16.151   3.329  0.00  0.00     0.137 C 
HETATM   21  C   UNK N   1      28.280  15.449   2.544  0.00  0.00     0.041 C 
BRANCH  20  22
HETATM   22  O   UNK N   1      30.207  16.802   2.414  0.00  0.00    -0.394 OA
HETATM   23  H   UNK N   1      29.945  16.879   1.483  0.00  0.00     0.210 HD
ENDBRANCH  20  22
ENDBRANCH  13  20
ENDBRANCH  10  13
BRANCH   1  24
HETATM   24  N   UNK N   1      32.670  17.152   9.024  0.00  0.00    -0.383 N 
HETATM   25  H   UNK N   1      31.935  17.007   9.662  0.00  0.00     0.157 HD
HETATM   26  H   UNK N   1      33.596  17.222   9.349  0.00  0.00     0.157 HD
ENDBRANCH   1  24
TORSDOF 9
ENDMDL
MODEL 9
REMARK VINA RESULT:      -5.0      3.072      4.897
REMARK  9 active torsions:
REMARK  status: ('A' for Active; 'I' for Inactive)
REMARK    1  A    between atoms: C_1  and  N_15 
REMARK    2  A    between atoms: C_13  and  N_10 
REMARK    3  A    between atoms: C_14  and  C_13 
REMARK    4  A    between atoms: C_21  and  C_13 
REMARK    5  A    between atoms: C_16  and  C_14 
REMARK    6  A    between atoms: C_17  and  C_16 
REMARK    7  A    between atoms: C_18  and  C_17 
REMARK    8  A    between atoms: C_19  and  C_18 
REMARK    9  A    between atoms: C_21  and  O_22 
ROOT
HETATM    1  C   UNK N   1      35.191  12.667  14.774  0.00  0.00     0.131 A 
HETATM    2  C   UNK N   1      35.164  12.894  13.407  0.00  0.00     0.122 A 
HETATM    3  C   UNK N   1      35.916  13.874  12.862  0.00  0.00     0.141 A 
HETATM    4  C   UNK N   1      36.753  14.457  14.966  0.00  0.00     0.183 A 
HETATM    5  C   UNK N   1      34.866  12.862  11.293  0.00  0.00     0.185 A 
HETATM    6  N   UNK N   1      36.720  14.665  13.613  0.00  0.00    -0.336 N 
ATOM      7  HN  UNK N   1      37.285  15.396  13.181  1.00  0.00     0.168 HD
HETATM    8  N   UNK N   1      35.995  13.463  15.539  0.00  0.00    -0.337 N 
ATOM      9  HN  UNK N   1      36.033  13.319  16.548  1.00  0.00     0.168 HD
HETATM   10  N   UNK N   1      35.746  13.873  11.525  0.00  0.00    -0.320 N 
HETATM   11  N   UNK N   1      34.486  12.247  12.446  0.00  0.00    -0.346 N 
ATOM     12  HN  UNK N   1      33.834  11.470  12.556  1.00  0.00     0.167 HD
ENDROOT
BRANCH  10  13
HETATM   13  C   UNK N   1      36.387  14.688  10.470  0.00  0.00     0.120 C 
BRANCH  13  14
HETATM   14  C   UNK N   1      35.433  15.036   9.313  0.00  0.00     0.028 C 
BRANCH  14  15
HETATM   15  C   UNK N   1      34.526  16.238   9.567  0.00  0.00     0.002 C 
BRANCH  15  16
HETATM   16  C   UNK N   1      33.454  16.319   8.487  0.00  0.00     0.000 C 
BRANCH  16  17
HETATM   17  C   UNK N   1      32.747  17.665   8.530  0.00  0.00    -0.000 C 
BRANCH  17  18
HETATM   18  C   UNK N   1      31.282  17.499   8.197  0.00  0.00    -0.005 C 
HETATM   19  C   UNK N   1      30.488  18.510   8.996  0.00  0.00     0.005 C 
ENDBRANCH  17  18
ENDBRANCH  16  17
ENDBRANCH  15  16
ENDBRANCH  14  15
ENDBRANCH  13  14
BRANCH  13  20
HETATM   20  C   UNK N   1      37.711  14.053   9.969  0.00  0.00     0.137 C 
HETATM   21  C   UNK N   1      37.576  13.557   8.537  0.00  0.00     0.041 C 
BRANCH  20  22
HETATM   22  O   UNK N   1      38.743  14.992  10.000  0.00  0.00    -0.394 OA
HETATM   23  H   UNK N   1      38.928  15.543   9.223  0.00  0.00     0.210 HD
ENDBRANCH  20  22
ENDBRANCH  13  20
ENDBRANCH  10  13
BRANCH   1  24
HETATM   24  N   UNK N   1      34.428  11.637  15.361  0.00  0.00    -0.383 N 
HETATM   25  H   UNK N   1      33.500  11.804  15.640  0.00  0.00     0.157 HD
HETATM   26  H   UNK N   1      34.828  10.747  15.492  0.00  0.00     0.157 HD
ENDBRANCH   1  24
TORSDOF 9
ENDMDL
