MODEL 1
REMARK VINA RESULT:      -6.5      0.000      0.000
REMARK  4 active torsions:
REMARK  status: ('A' for Active; 'I' for Inactive)
REMARK    1  A    between atoms: C_2  and  C_3 
REMARK    2  A    between atoms: C_6  and  O_7 
REMARK    3  A    between atoms: N_13  and  C_14 
REMARK    4  A    between atoms: C_17  and  O_18 
ROOT
HETATM    1  C   UNK N   1      28.539  18.037   5.686  0.00  0.00     0.047 A 
HETATM    2  C   UNK N   1      29.118  17.818   6.917  0.00  0.00     0.019 A 
HETATM    3  C   UNK N   1      30.221  17.069   7.319  0.00  0.00     0.052 A 
HETATM    4  C   UNK N   1      30.548  17.059   8.683  0.00  0.00     0.066 A 
HETATM    5  C   UNK N   1      29.770  17.794   9.609  0.00  0.00     0.039 A 
HETATM    6  C   UNK N   1      28.658  18.544   9.173  0.00  0.00     0.034 A 
HETATM    7  C   UNK N   1      28.365  18.529   7.810  0.00  0.00     0.061 A 
HETATM    8  N   UNK N   1      27.364  19.161   7.168  0.00  0.00    -0.293 N 
ATOM      9  HN  UNK N   1      26.655  19.759   7.595  1.00  0.00     0.187 HD
HETATM   10  N   UNK N   1      27.469  18.862   5.871  0.00  0.00    -0.259 N 
ENDROOT
BRANCH  10  11
HETATM   11  C   UNK N   1      26.563  19.361   4.863  0.00  0.00     0.056 A 
HETATM   12  C   UNK N   1      26.989  20.327   3.937  0.00  0.00     0.034 A 
HETATM   13  C   UNK N   1      26.126  20.817   2.960  0.00  0.00     0.039 A 
HETATM   14  C   UNK N   1      24.817  20.347   2.893  0.00  0.00     0.065 A 
HETATM   15  C   UNK N   1      24.371  19.385   3.806  0.00  0.00     0.039 A 
HETATM   16  C   UNK N   1      25.241  18.892   4.789  0.00  0.00     0.034 A 
BRANCH  14  17
HETATM   17  O   UNK N   1      23.988  20.821   1.950  0.00  0.00    -0.361 OA
HETATM   18  H   UNK N   1      23.401  20.240   1.506  0.00  0.00     0.217 HD
ENDBRANCH  14  17
ENDBRANCH  10  11
BRANCH   1  19
HETATM   19  C   UNK N   1      28.975  17.485   4.349  0.00  0.00     0.056 C 
HETATM   20  C   UNK N   1      28.206  16.268   3.872  0.00  0.00     0.011 C 
ENDBRANCH   1  19
BRANCH   4  21
HETATM   21  O   UNK N   1      31.605  16.348   9.108  0.00  0.00    -0.361 OA
HETATM   22  H   UNK N   1      31.796  16.295  10.024  0.00  0.00     0.217 HD
ENDBRANCH   4  21
TORSDOF 4
ENDMDL
MODEL 2
REMARK VINA RESULT:      -6.3      1.228      6.674
REMARK  4 active torsions:
REMARK  status: ('A' for Active; 'I' for Inactive)
REMARK    1  A    between atoms: C_2  and  C_3 
REMARK    2  A    between atoms: C_6  and  O_7 
REMARK    3  A    between atoms: N_13  and  C_14 
REMARK    4  A    between atoms: C_17  and  O_18 
ROOT
HETATM    1  C   UNK N   1      26.812  19.493   5.290  0.00  0.00     0.047 A 
HETATM    2  C   UNK N   1      25.594  19.387   4.653  0.00  0.00     0.019 A 
HETATM    3  C   UNK N   1      24.875  20.263   3.845  0.00  0.00     0.052 A 
HETATM    4  C   UNK N   1      23.637  19.832   3.346  0.00  0.00     0.066 A 
HETATM    5  C   UNK N   1      23.149  18.542   3.664  0.00  0.00     0.039 A 
HETATM    6  C   UNK N   1      23.900  17.676   4.485  0.00  0.00     0.034 A 
HETATM    7  C   UNK N   1      25.125  18.140   4.962  0.00  0.00     0.061 A 
HETATM    8  N   UNK N   1      26.007  17.499   5.753  0.00  0.00    -0.293 N 
ATOM      9  HN  UNK N   1      25.905  16.556   6.129  1.00  0.00     0.187 HD
HETATM   10  N   UNK N   1      27.037  18.324   5.954  0.00  0.00    -0.259 N 
ENDROOT
BRANCH  10  11
HETATM   11  C   UNK N   1      28.186  17.981   6.759  0.00  0.00     0.056 A 
HETATM   12  C   UNK N   1      28.241  18.345   8.115  0.00  0.00     0.034 A 
HETATM   13  C   UNK N   1      29.343  18.020   8.902  0.00  0.00     0.039 A 
HETATM   14  C   UNK N   1      30.412  17.324   8.345  0.00  0.00     0.065 A 
HETATM   15  C   UNK N   1      30.378  16.951   6.996  0.00  0.00     0.039 A 
HETATM   16  C   UNK N   1      29.268  17.278   6.204  0.00  0.00     0.034 A 
BRANCH  14  17
HETATM   17  O   UNK N   1      31.473  17.012   9.107  0.00  0.00    -0.361 OA
HETATM   18  H   UNK N   1      31.830  17.649   9.695  0.00  0.00     0.217 HD
ENDBRANCH  14  17
ENDBRANCH  10  11
BRANCH   1  19
HETATM   19  C   UNK N   1      27.758  20.671   5.282  0.00  0.00     0.056 C 
HETATM   20  C   UNK N   1      27.483  21.726   6.336  0.00  0.00     0.011 C 
ENDBRANCH   1  19
BRANCH   4  21
HETATM   21  O   UNK N   1      22.915  20.650   2.563  0.00  0.00    -0.361 OA
HETATM   22  H   UNK N   1      22.271  20.294   1.982  0.00  0.00     0.217 HD
ENDBRANCH   4  21
TORSDOF 4
ENDMDL
MODEL 3
REMARK VINA RESULT:      -6.1      3.115      5.830
REMARK  4 active torsions:
REMARK  status: ('A' for Active; 'I' for Inactive)
REMARK    1  A    between atoms: C_2  and  C_3 
REMARK    2  A    between atoms: C_6  and  O_7 
REMARK    3  A    between atoms: N_13  and  C_14 
REMARK    4  A    between atoms: C_17  and  O_18 
ROOT
HETATM    1  C   UNK N   1      29.226  17.966   6.178  0.00  0.00     0.047 A 
HETATM    2  C   UNK N   1      28.274  18.952   6.326  0.00  0.00     0.019 A 
HETATM    3  C   UNK N   1      27.585  19.436   7.433  0.00  0.00     0.052 A 
HETATM    4  C   UNK N   1      26.661  20.473   7.232  0.00  0.00     0.066 A 
HETATM    5  C   UNK N   1      26.447  20.997   5.934  0.00  0.00     0.039 A 
HETATM    6  C   UNK N   1      27.160  20.485   4.830  0.00  0.00     0.034 A 
HETATM    7  C   UNK N   1      28.070  19.456   5.071  0.00  0.00     0.061 A 
HETATM    8  N   UNK N   1      28.856  18.817   4.183  0.00  0.00    -0.293 N 
ATOM      9  HN  UNK N   1      28.902  18.996   3.180  1.00  0.00     0.187 HD
HETATM   10  N   UNK N   1      29.562  17.907   4.858  0.00  0.00    -0.259 N 
ENDROOT
BRANCH  10  11
HETATM   11  C   UNK N   1      30.520  17.023   4.237  0.00  0.00     0.056 A 
HETATM   12  C   UNK N   1      31.850  17.434   4.043  0.00  0.00     0.034 A 
HETATM   13  C   UNK N   1      32.783  16.591   3.446  0.00  0.00     0.039 A 
HETATM   14  C   UNK N   1      32.402  15.319   3.029  0.00  0.00     0.065 A 
HETATM   15  C   UNK N   1      31.083  14.888   3.212  0.00  0.00     0.039 A 
HETATM   16  C   UNK N   1      30.143  15.737   3.814  0.00  0.00     0.034 A 
BRANCH  14  17
HETATM   17  O   UNK N   1      33.305  14.509   2.454  0.00  0.00    -0.361 OA
HETATM   18  H   UNK N   1      34.079  14.262   2.921  0.00  0.00     0.217 HD
ENDBRANCH  14  17
ENDBRANCH  10  11
BRANCH   1  19
HETATM   19  C   UNK N   1      29.819  17.086   7.254  0.00  0.00     0.056 C 
HETATM   20  C   UNK N   1      31.089  17.616   7.892  0.00  0.00     0.011 C 
ENDBRANCH   1  19
BRANCH   4  21
HETATM   21  O   UNK N   1      25.977  20.966   8.277  0.00  0.00    -0.361 OA
HETATM   22  H   UNK N   1      25.582  20.383   8.896  0.00  0.00     0.217 HD
ENDBRANCH   4  21
TORSDOF 4
ENDMDL
MODEL 4
REMARK VINA RESULT:      -6.0      2.772      7.515
REMARK  4 active torsions:
REMARK  status: ('A' for Active; 'I' for Inactive)
REMARK    1  A    between atoms: C_2  and  C_3 
REMARK    2  A    between atoms: C_6  and  O_7 
REMARK    3  A    between atoms: N_13  and  C_14 
REMARK    4  A    between atoms: C_17  and  O_18 
ROOT
HETATM    1  C   UNK N   1      29.939  17.862   7.811  0.00  0.00     0.047 A 
HETATM    2  C   UNK N   1      29.030  17.922   6.777  0.00  0.00     0.019 A 
HETATM    3  C   UNK N   1      27.707  18.349   6.710  0.00  0.00     0.052 A 
HETATM    4  C   UNK N   1      27.053  18.275   5.471  0.00  0.00     0.066 A 
HETATM    5  C   UNK N   1      27.734  17.778   4.333  0.00  0.00     0.039 A 
HETATM    6  C   UNK N   1      29.075  17.353   4.432  0.00  0.00     0.034 A 
HETATM    7  C   UNK N   1      29.690  17.442   5.679  0.00  0.00     0.061 A 
HETATM    8  N   UNK N   1      30.949  17.099   6.012  0.00  0.00    -0.293 N 
ATOM      9  HN  UNK N   1      31.656  16.715   5.384  1.00  0.00     0.187 HD
HETATM   10  N   UNK N   1      31.103  17.356   7.314  0.00  0.00    -0.259 N 
ENDROOT
BRANCH  10  11
HETATM   11  C   UNK N   1      32.332  17.114   8.033  0.00  0.00     0.056 A 
HETATM   12  C   UNK N   1      33.366  18.065   8.016  0.00  0.00     0.034 A 
HETATM   13  C   UNK N   1      34.556  17.845   8.705  0.00  0.00     0.039 A 
HETATM   14  C   UNK N   1      34.732  16.666   9.425  0.00  0.00     0.065 A 
HETATM   15  C   UNK N   1      33.715  15.706   9.456  0.00  0.00     0.039 A 
HETATM   16  C   UNK N   1      32.517  15.928   8.761  0.00  0.00     0.034 A 
BRANCH  14  17
HETATM   17  O   UNK N   1      35.881  16.457  10.088  0.00  0.00    -0.361 OA
HETATM   18  H   UNK N   1      36.241  17.135  10.627  0.00  0.00     0.217 HD
ENDBRANCH  14  17
ENDBRANCH  10  11
BRANCH   1  19
HETATM   19  C   UNK N   1      29.728  18.273   9.250  0.00  0.00     0.056 C 
HETATM   20  C   UNK N   1      29.095  17.217  10.135  0.00  0.00     0.011 C 
ENDBRANCH   1  19
BRANCH   4  21
HETATM   21  O   UNK N   1      25.776  18.677   5.368  0.00  0.00    -0.361 OA
HETATM   22  H   UNK N   1      25.158  18.447   6.033  0.00  0.00     0.217 HD
ENDBRANCH   4  21
TORSDOF 4
ENDMDL
MODEL 5
REMARK VINA RESULT:      -6.0      2.137      3.193
REMARK  4 active torsions:
REMARK  status: ('A' for Active; 'I' for Inactive)
REMARK    1  A    between atoms: C_2  and  C_3 
REMARK    2  A    between atoms: C_6  and  O_7 
REMARK    3  A    between atoms: N_13  and  C_14 
REMARK    4  A    between atoms: C_17  and  O_18 
ROOT
HETATM    1  C   UNK N   1      29.599  17.533   6.187  0.00  0.00     0.047 A 
HETATM    2  C   UNK N   1      30.916  17.126   6.199  0.00  0.00     0.019 A 
HETATM    3  C   UNK N   1      31.717  16.558   7.184  0.00  0.00     0.052 A 
HETATM    4  C   UNK N   1      33.049  16.258   6.859  0.00  0.00     0.066 A 
HETATM    5  C   UNK N   1      33.546  16.532   5.562  0.00  0.00     0.039 A 
HETATM    6  C   UNK N   1      32.710  17.109   4.583  0.00  0.00     0.034 A 
HETATM    7  C   UNK N   1      31.394  17.392   4.945  0.00  0.00     0.061 A 
HETATM    8  N   UNK N   1      30.422  17.937   4.188  0.00  0.00    -0.293 N 
ATOM      9  HN  UNK N   1      30.509  18.231   3.214  1.00  0.00     0.187 HD
HETATM   10  N   UNK N   1      29.326  18.024   4.945  0.00  0.00    -0.259 N 
ENDROOT
BRANCH  10  11
HETATM   11  C   UNK N   1      28.072  18.562   4.472  0.00  0.00     0.056 A 
HETATM   12  C   UNK N   1      27.808  19.939   4.563  0.00  0.00     0.034 A 
HETATM   13  C   UNK N   1      26.603  20.471   4.110  0.00  0.00     0.039 A 
HETATM   14  C   UNK N   1      25.639  19.632   3.558  0.00  0.00     0.065 A 
HETATM   15  C   UNK N   1      25.881  18.257   3.458  0.00  0.00     0.039 A 
HETATM   16  C   UNK N   1      27.095  17.722   3.914  0.00  0.00     0.034 A 
BRANCH  14  17
HETATM   17  O   UNK N   1      24.479  20.148   3.123  0.00  0.00    -0.361 OA
HETATM   18  H   UNK N   1      23.673  19.906   3.537  0.00  0.00     0.217 HD
ENDBRANCH  14  17
ENDBRANCH  10  11
BRANCH   1  19
HETATM   19  C   UNK N   1      28.603  17.465   7.321  0.00  0.00     0.056 C 
HETATM   20  C   UNK N   1      28.563  18.688   8.218  0.00  0.00     0.011 C 
ENDBRANCH   1  19
BRANCH   4  21
HETATM   21  O   UNK N   1      33.852  15.709   7.784  0.00  0.00    -0.361 OA
HETATM   22  H   UNK N   1      33.887  14.777   7.881  0.00  0.00     0.217 HD
ENDBRANCH   4  21
TORSDOF 4
ENDMDL
MODEL 6
REMARK VINA RESULT:      -6.0      3.826      6.120
REMARK  4 active torsions:
REMARK  status: ('A' for Active; 'I' for Inactive)
REMARK    1  A    between atoms: C_2  and  C_3 
REMARK    2  A    between atoms: C_6  and  O_7 
REMARK    3  A    between atoms: N_13  and  C_14 
REMARK    4  A    between atoms: C_17  and  O_18 
ROOT
HETATM    1  C   UNK N   1      30.029  16.455   5.894  0.00  0.00     0.047 A 
HETATM    2  C   UNK N   1      29.678  17.103   7.059  0.00  0.00     0.019 A 
HETATM    3  C   UNK N   1      28.448  17.384   7.646  0.00  0.00     0.052 A 
HETATM    4  C   UNK N   1      28.444  18.077   8.866  0.00  0.00     0.066 A 
HETATM    5  C   UNK N   1      29.663  18.470   9.468  0.00  0.00     0.039 A 
HETATM    6  C   UNK N   1      30.895  18.171   8.850  0.00  0.00     0.034 A 
HETATM    7  C   UNK N   1      30.858  17.482   7.639  0.00  0.00     0.061 A 
HETATM    8  N   UNK N   1      31.894  17.090   6.873  0.00  0.00    -0.293 N 
ATOM      9  HN  UNK N   1      32.884  17.244   7.071  1.00  0.00     0.187 HD
HETATM   10  N   UNK N   1      31.390  16.463   5.807  0.00  0.00    -0.259 N 
ENDROOT
BRANCH  10  11
HETATM   11  C   UNK N   1      32.204  15.900   4.756  0.00  0.00     0.056 A 
HETATM   12  C   UNK N   1      32.598  16.686   3.660  0.00  0.00     0.034 A 
HETATM   13  C   UNK N   1      33.383  16.156   2.640  0.00  0.00     0.039 A 
HETATM   14  C   UNK N   1      33.788  14.825   2.698  0.00  0.00     0.065 A 
HETATM   15  C   UNK N   1      33.408  14.023   3.780  0.00  0.00     0.039 A 
HETATM   16  C   UNK N   1      32.617  14.559   4.808  0.00  0.00     0.034 A 
BRANCH  14  17
HETATM   17  O   UNK N   1      34.545  14.317   1.712  0.00  0.00    -0.361 OA
HETATM   18  H   UNK N   1      35.341  13.865   1.917  0.00  0.00     0.217 HD
ENDBRANCH  14  17
ENDBRANCH  10  11
BRANCH   1  19
HETATM   19  C   UNK N   1      29.108  15.834   4.870  0.00  0.00     0.056 C 
HETATM   20  C   UNK N   1      28.702  16.749   3.730  0.00  0.00     0.011 C 
ENDBRANCH   1  19
BRANCH   4  21
HETATM   21  O   UNK N   1      27.275  18.366   9.462  0.00  0.00    -0.361 OA
HETATM   22  H   UNK N   1      26.538  18.628   8.945  0.00  0.00     0.217 HD
ENDBRANCH   4  21
TORSDOF 4
ENDMDL
MODEL 7
REMARK VINA RESULT:      -5.9     11.328     15.075
REMARK  4 active torsions:
REMARK  status: ('A' for Active; 'I' for Inactive)
REMARK    1  A    between atoms: C_2  and  C_3 
REMARK    2  A    between atoms: C_6  and  O_7 
REMARK    3  A    between atoms: N_13  and  C_14 
REMARK    4  A    between atoms: C_17  and  O_18 
ROOT
HETATM    1  C   UNK N   1      34.947  11.997  14.750  0.00  0.00     0.047 A 
HETATM    2  C   UNK N   1      35.172  12.773  13.634  0.00  0.00     0.019 A 
HETATM    3  C   UNK N   1      34.801  12.634  12.300  0.00  0.00     0.052 A 
HETATM    4  C   UNK N   1      35.205  13.629  11.397  0.00  0.00     0.066 A 
HETATM    5  C   UNK N   1      35.967  14.734  11.847  0.00  0.00     0.039 A 
HETATM    6  C   UNK N   1      36.329  14.848  13.205  0.00  0.00     0.034 A 
HETATM    7  C   UNK N   1      35.909  13.840  14.071  0.00  0.00     0.061 A 
HETATM    8  N   UNK N   1      36.131  13.735  15.395  0.00  0.00    -0.293 N 
ATOM      9  HN  UNK N   1      36.653  14.394  15.973  1.00  0.00     0.187 HD
HETATM   10  N   UNK N   1      35.544  12.610  15.811  0.00  0.00    -0.259 N 
ENDROOT
BRANCH  10  11
HETATM   11  C   UNK N   1      35.570  12.160  17.183  0.00  0.00     0.056 A 
HETATM   12  C   UNK N   1      35.150  13.009  18.220  0.00  0.00     0.034 A 
HETATM   13  C   UNK N   1      35.170  12.588  19.547  0.00  0.00     0.039 A 
HETATM   14  C   UNK N   1      35.610  11.305  19.861  0.00  0.00     0.065 A 
HETATM   15  C   UNK N   1      36.033  10.441  18.843  0.00  0.00     0.039 A 
HETATM   16  C   UNK N   1      36.013  10.867  17.507  0.00  0.00     0.034 A 
BRANCH  14  17
HETATM   17  O   UNK N   1      35.628  10.901  21.141  0.00  0.00    -0.361 OA
HETATM   18  H   UNK N   1      36.098  10.128  21.383  0.00  0.00     0.217 HD
ENDBRANCH  14  17
ENDBRANCH  10  11
BRANCH   1  19
HETATM   19  C   UNK N   1      34.181  10.696  14.831  0.00  0.00     0.056 C 
HETATM   20  C   UNK N   1      34.910   9.485  14.280  0.00  0.00     0.011 C 
ENDBRANCH   1  19
BRANCH   4  21
HETATM   21  O   UNK N   1      34.865  13.529  10.102  0.00  0.00    -0.361 OA
HETATM   22  H   UNK N   1      34.041  13.151   9.862  0.00  0.00     0.217 HD
ENDBRANCH   4  21
TORSDOF 4
ENDMDL
MODEL 8
REMARK VINA RESULT:      -5.8      5.028      6.849
REMARK  4 active torsions:
REMARK  status: ('A' for Active; 'I' for Inactive)
REMARK    1  A    between atoms: C_2  and  C_3 
REMARK    2  A    between atoms: C_6  and  O_7 
REMARK    3  A    between atoms: N_13  and  C_14 
REMARK    4  A    between atoms: C_17  and  O_18 
ROOT
HETATM    1  C   UNK N   1      33.707  16.744   7.917  0.00  0.00     0.047 A 
HETATM    2  C   UNK N   1      34.649  16.140   8.723  0.00  0.00     0.019 A 
HETATM    3  C   UNK N   1      35.189  16.484   9.959  0.00  0.00     0.052 A 
HETATM    4  C   UNK N   1      36.152  15.629  10.517  0.00  0.00     0.066 A 
HETATM    5  C   UNK N   1      36.550  14.457   9.829  0.00  0.00     0.039 A 
HETATM    6  C   UNK N   1      35.985  14.135   8.578  0.00  0.00     0.034 A 
HETATM    7  C   UNK N   1      35.032  15.009   8.057  0.00  0.00     0.061 A 
HETATM    8  N   UNK N   1      34.363  14.911   6.892  0.00  0.00    -0.293 N 
ATOM      9  HN  UNK N   1      34.457  14.164   6.203  1.00  0.00     0.187 HD
HETATM   10  N   UNK N   1      33.554  15.969   6.805  0.00  0.00    -0.259 N 
ENDROOT
BRANCH  10  11
HETATM   11  C   UNK N   1      32.673  16.208   5.686  0.00  0.00     0.056 A 
HETATM   12  C   UNK N   1      33.058  17.073   4.648  0.00  0.00     0.034 A 
HETATM   13  C   UNK N   1      32.218  17.312   3.563  0.00  0.00     0.039 A 
HETATM   14  C   UNK N   1      30.975  16.689   3.498  0.00  0.00     0.065 A 
HETATM   15  C   UNK N   1      30.571  15.823   4.521  0.00  0.00     0.039 A 
HETATM   16  C   UNK N   1      31.417  15.583   5.613  0.00  0.00     0.034 A 
BRANCH  14  17
HETATM   17  O   UNK N   1      30.168  16.921   2.450  0.00  0.00    -0.361 OA
HETATM   18  H   UNK N   1      29.949  17.802   2.214  0.00  0.00     0.217 HD
ENDBRANCH  14  17
ENDBRANCH  10  11
BRANCH   1  19
HETATM   19  C   UNK N   1      32.957  18.029   8.177  0.00  0.00     0.056 C 
HETATM   20  C   UNK N   1      31.505  17.857   8.581  0.00  0.00     0.011 C 
ENDBRANCH   1  19
BRANCH   4  21
HETATM   21  O   UNK N   1      36.695  15.927  11.708  0.00  0.00    -0.361 OA
HETATM   22  H   UNK N   1      37.403  16.540  11.760  0.00  0.00     0.217 HD
ENDBRANCH   4  21
TORSDOF 4
ENDMDL
MODEL 9
REMARK VINA RESULT:      -5.8     11.425     13.349
REMARK  4 active torsions:
REMARK  status: ('A' for Active; 'I' for Inactive)
REMARK    1  A    between atoms: C_2  and  C_3 
REMARK    2  A    between atoms: C_6  and  O_7 
REMARK    3  A    between atoms: N_13  and  C_14 
REMARK    4  A    between atoms: C_17  and  O_18 
ROOT
HETATM    1  C   UNK N   1      35.278  12.635  14.558  0.00  0.00     0.047 A 
HETATM    2  C   UNK N   1      35.578  13.391  15.671  0.00  0.00     0.019 A 
HETATM    3  C   UNK N   1      35.048  13.423  16.957  0.00  0.00     0.052 A 
HETATM    4  C   UNK N   1      35.598  14.334  17.873  0.00  0.00     0.066 A 
HETATM    5  C   UNK N   1      36.657  15.187  17.482  0.00  0.00     0.039 A 
HETATM    6  C   UNK N   1      37.174  15.132  16.170  0.00  0.00     0.034 A 
HETATM    7  C   UNK N   1      36.602  14.214  15.291  0.00  0.00     0.061 A 
HETATM    8  N   UNK N   1      36.925  13.984  14.004  0.00  0.00    -0.293 N 
ATOM      9  HN  UNK N   1      37.654  14.459  13.470  1.00  0.00     0.187 HD
HETATM   10  N   UNK N   1      36.117  13.020  13.555  0.00  0.00    -0.259 N 
ENDROOT
BRANCH  10  11
HETATM   11  C   UNK N   1      36.167  12.502  12.208  0.00  0.00     0.056 A 
HETATM   12  C   UNK N   1      37.010  11.424  11.889  0.00  0.00     0.034 A 
HETATM   13  C   UNK N   1      37.068  10.916  10.594  0.00  0.00     0.039 A 
HETATM   14  C   UNK N   1      36.282  11.479   9.592  0.00  0.00     0.065 A 
HETATM   15  C   UNK N   1      35.435  12.553   9.887  0.00  0.00     0.039 A 
HETATM   16  C   UNK N   1      35.377  13.065  11.192  0.00  0.00     0.034 A 
BRANCH  14  17
HETATM   17  O   UNK N   1      36.340  10.986   8.345  0.00  0.00    -0.361 OA
HETATM   18  H   UNK N   1      36.795  11.458   7.675  0.00  0.00     0.217 HD
ENDBRANCH  14  17
ENDBRANCH  10  11
BRANCH   1  19
HETATM   19  C   UNK N   1      34.219  11.565  14.427  0.00  0.00     0.056 C 
HETATM   20  C   UNK N   1      34.601  10.209  14.991  0.00  0.00     0.011 C 
ENDBRANCH   1  19
BRANCH   4  21
HETATM   21  O   UNK N   1      35.112  14.394  19.123  0.00  0.00    -0.361 OA
HETATM   22  H   UNK N   1      35.030  13.610  19.631  0.00  0.00     0.217 HD
ENDBRANCH   4  21
TORSDOF 4
ENDMDL
