REMARK  4 active torsions:
REMARK  status: ('A' for Active; 'I' for Inactive)
REMARK    1  A    between atoms: C_2  and  C_3 
REMARK    2  A    between atoms: C_6  and  O_7 
REMARK    3  A    between atoms: N_13  and  C_14 
REMARK    4  A    between atoms: C_17  and  O_18 
ROOT
HETATM    1  C   UNK N   1       0.506  -0.610  -0.000  0.00  0.00     0.047 A 
HETATM    2  C   UNK N   1       1.821  -0.197  -0.000  0.00  0.00     0.019 A 
HETATM    3  C   UNK N   1       3.026  -0.893  -0.000  0.00  0.00     0.052 A 
HETATM    4  C   UNK N   1       4.216  -0.149   0.000  0.00  0.00     0.066 A 
HETATM    5  C   UNK N   1       4.173   1.266   0.000  0.00  0.00     0.039 A 
HETATM    6  C   UNK N   1       2.936   1.944   0.000  0.00  0.00     0.034 A 
HETATM    7  C   UNK N   1       1.777   1.170   0.000  0.00  0.00     0.061 A 
HETATM    8  N   UNK N   1       0.497   1.590   0.000  0.00  0.00    -0.293 N 
ATOM      9  HN  UNK N   1       0.180   2.560   0.000  1.00  0.00     0.187 HD
HETATM   10  N   UNK N   1      -0.280   0.504  -0.000  0.00  0.00    -0.259 N 
ENDROOT
BRANCH  10  11
HETATM   11  C   UNK N   1      -1.723   0.558  -0.000  0.00  0.00     0.056 A 
HETATM   12  C   UNK N   1      -2.481  -0.625  -0.000  0.00  0.00     0.034 A 
HETATM   13  C   UNK N   1      -3.873  -0.587  -0.000  0.00  0.00     0.039 A 
HETATM   14  C   UNK N   1      -4.533   0.639   0.000  0.00  0.00     0.065 A 
HETATM   15  C   UNK N   1      -3.798   1.830  -0.000  0.00  0.00     0.039 A 
HETATM   16  C   UNK N   1      -2.396   1.791  -0.000  0.00  0.00     0.034 A 
BRANCH  14  17
HETATM   17  O   UNK N   1      -5.875   0.672   0.000  0.00  0.00    -0.361 OA
HETATM   18  H   UNK N   1      -6.324   1.495   0.000  0.00  0.00     0.217 HD
ENDBRANCH  14  17
ENDBRANCH  10  11
BRANCH   1  19
HETATM   19  C   UNK N   1      -0.016  -2.028  -0.000  0.00  0.00     0.056 C 
HETATM   20  C   UNK N   1       1.050  -3.107   0.000  0.00  0.00     0.011 C 
ENDBRANCH   1  19
BRANCH   4  21
HETATM   21  O   UNK N   1       5.398  -0.786   0.000  0.00  0.00    -0.361 OA
HETATM   22  H   UNK N   1       5.425  -1.723   0.000  0.00  0.00     0.217 HD
ENDBRANCH   4  21
TORSDOF 4
