REMARK  9 active torsions:
REMARK  status: ('A' for Active; 'I' for Inactive)
REMARK    1  A    between atoms: C_1  and  C_9 
REMARK    2  A    between atoms: C_4  and  O_7 
REMARK    3  A    between atoms: C_12  and  S_15 
REMARK    4  A    between atoms: S_15  and  N_18 
REMARK    5  A    between atoms: C_19  and  N_18 
REMARK    6  A    between atoms: C_19  and  C_20 
REMARK    7  A    between atoms: C_19  and  P_23 
REMARK    8  A    between atoms: P_23  and  O_25 
REMARK    9  A    between atoms: P_23  and  O_26 
ROOT
HETATM    1  S   UNK N   1      -0.868  -2.659   0.336  0.00  0.00     0.259 S 
HETATM    2  O   UNK N   1      -1.413  -3.204  -0.994  0.00  0.00    -0.201 OA
HETATM    3  O   UNK N   1      -2.026  -3.007   1.284  0.00  0.00    -0.201 OA
ENDROOT
BRANCH   1   4
HETATM    4  C   UNK N   1      -0.589  -0.890   0.337  0.00  0.00     0.079 A 
HETATM    5  C   UNK N   1       0.570  -0.365  -0.235  0.00  0.00     0.026 A 
HETATM    6  C   UNK N   1       0.779   1.016  -0.260  0.00  0.00     0.014 A 
HETATM    7  C   UNK N   1      -0.178   1.890   0.282  0.00  0.00    -0.026 A 
HETATM    8  C   UNK N   1      -1.340   1.352   0.860  0.00  0.00     0.014 A 
HETATM    9  C   UNK N   1      -1.542  -0.030   0.890  0.00  0.00     0.026 A 
BRANCH   7  10
HETATM   10  C   UNK N   1       0.009   3.358   0.191  0.00  0.00    -0.026 A 
HETATM   11  C   UNK N   1      -1.000   4.231   0.628  0.00  0.00     0.015 A 
HETATM   12  C   UNK N   1      -0.857   5.612   0.473  0.00  0.00     0.037 A 
HETATM   13  C   UNK N   1       0.302   6.143  -0.120  0.00  0.00     0.068 A 
HETATM   14  C   UNK N   1       1.317   5.276  -0.535  0.00  0.00     0.037 A 
HETATM   15  C   UNK N   1       1.171   3.894  -0.386  0.00  0.00     0.015 A 
BRANCH  13  16
HETATM   16  O   UNK N   1       0.454   7.474  -0.313  0.00  0.00    -0.356 OA
HETATM   17  C   UNK N   1      -0.523   8.396  -0.011  0.00  0.00     0.210 C 
ENDBRANCH  13  16
ENDBRANCH   7  10
ENDBRANCH   1   4
BRANCH   1  18
HETATM   18  N   UNK N   1       0.439  -3.741   0.877  0.00  0.00    -0.299 N 
HETATM   19  H   UNK N   1       0.615  -3.960   1.857  0.00  0.00     0.173 HD
BRANCH  18  20
HETATM   20  C   UNK N   1       1.240  -4.286  -0.226  0.00  0.00     0.207 C 
BRANCH  20  21
HETATM   21  C   UNK N   1       1.299  -5.816  -0.085  0.00  0.00     0.012 C 
HETATM   22  C   UNK N   1       2.108  -6.465  -1.196  0.00  0.00     0.012 C 
HETATM   23  C   UNK N   1      -0.093  -6.425  -0.096  0.00  0.00     0.012 C 
ENDBRANCH  20  21
BRANCH  20  24
HETATM   24  P   UNK N   1       2.963  -3.561  -0.125  0.00  0.00     0.260 P 
HETATM   25  O   UNK N   1       3.627  -3.928   1.228  0.00  0.00    -0.652 OA
BRANCH  24  26
HETATM   26  O   UNK N   1       4.082  -4.149  -1.314  0.00  0.00    -0.328 OA
HETATM   27  H   UNK N   1       4.110  -4.855  -1.979  0.00  0.00     0.220 HD
ENDBRANCH  24  26
BRANCH  24  28
HETATM   28  O   UNK N   1       3.062  -1.831  -0.180  0.00  0.00    -0.328 OA
HETATM   29  H   UNK N   1       3.928  -1.395  -0.210  0.00  0.00     0.220 HD
ENDBRANCH  24  28
ENDBRANCH  20  24
ENDBRANCH  18  20
ENDBRANCH   1  18
TORSDOF 9
