MODEL 1
REMARK VINA RESULT:      -6.9      0.000      0.000
REMARK  9 active torsions:
REMARK  status: ('A' for Active; 'I' for Inactive)
REMARK    1  A    between atoms: C_1  and  C_9 
REMARK    2  A    between atoms: C_4  and  O_7 
REMARK    3  A    between atoms: C_12  and  S_15 
REMARK    4  A    between atoms: S_15  and  N_18 
REMARK    5  A    between atoms: C_19  and  N_18 
REMARK    6  A    between atoms: C_19  and  C_20 
REMARK    7  A    between atoms: C_19  and  P_23 
REMARK    8  A    between atoms: P_23  and  O_25 
REMARK    9  A    between atoms: P_23  and  O_26 
ROOT
HETATM    1  S   UNK N   1      34.144  17.529   8.138  0.00  0.00     0.259 S 
HETATM    2  O   UNK N   1      34.694  17.081   6.775  0.00  0.00    -0.201 OA
HETATM    3  O   UNK N   1      34.831  18.895   8.289  0.00  0.00    -0.201 OA
ENDROOT
BRANCH   1   4
HETATM    4  C   UNK N   1      34.607  16.460   9.497  0.00  0.00     0.079 A 
HETATM    5  C   UNK N   1      35.382  16.958  10.545  0.00  0.00     0.026 A 
HETATM    6  C   UNK N   1      35.724  16.134  11.621  0.00  0.00     0.014 A 
HETATM    7  C   UNK N   1      35.284  14.800  11.663  0.00  0.00    -0.026 A 
HETATM    8  C   UNK N   1      34.508  14.306  10.601  0.00  0.00     0.014 A 
HETATM    9  C   UNK N   1      34.175  15.131   9.523  0.00  0.00     0.026 A 
BRANCH   7  10
HETATM   10  C   UNK N   1      35.585  13.947  12.837  0.00  0.00    -0.026 A 
HETATM   11  C   UNK N   1      35.004  12.675  12.959  0.00  0.00     0.015 A 
HETATM   12  C   UNK N   1      35.226  11.901  14.101  0.00  0.00     0.037 A 
HETATM   13  C   UNK N   1      36.038  12.388  15.140  0.00  0.00     0.068 A 
HETATM   14  C   UNK N   1      36.635  13.645  15.011  0.00  0.00     0.037 A 
HETATM   15  C   UNK N   1      36.408  14.422  13.871  0.00  0.00     0.015 A 
BRANCH  13  16
HETATM   16  O   UNK N   1      36.245  11.675  16.272  0.00  0.00    -0.356 OA
HETATM   17  C   UNK N   1      36.436  10.312  16.280  0.00  0.00     0.210 C 
ENDBRANCH  13  16
ENDBRANCH   7  10
ENDBRANCH   1   4
BRANCH   1  18
HETATM   18  N   UNK N   1      32.429  17.959   7.921  0.00  0.00    -0.299 N 
HETATM   19  H   UNK N   1      32.116  18.886   7.635  0.00  0.00     0.173 HD
BRANCH  18  20
HETATM   20  C   UNK N   1      31.509  16.848   8.198  0.00  0.00     0.207 C 
BRANCH  20  21
HETATM   21  C   UNK N   1      31.085  16.213   6.863  0.00  0.00     0.012 C 
HETATM   22  C   UNK N   1      31.838  14.925   6.575  0.00  0.00     0.012 C 
HETATM   23  C   UNK N   1      31.315  17.166   5.702  0.00  0.00     0.012 C 
ENDBRANCH  20  21
BRANCH  20  24
HETATM   24  P   UNK N   1      30.013  17.525   9.096  0.00  0.00     0.260 P 
HETATM   25  O   UNK N   1      30.203  19.032   9.408  0.00  0.00    -0.652 OA
BRANCH  24  26
HETATM   26  O   UNK N   1      28.526  17.466   8.202  0.00  0.00    -0.328 OA
HETATM   27  H   UNK N   1      27.670  17.014   8.271  0.00  0.00     0.220 HD
ENDBRANCH  24  26
BRANCH  24  28
HETATM   28  O   UNK N   1      29.675  16.821  10.644  0.00  0.00    -0.328 OA
HETATM   29  H   UNK N   1      30.346  16.843  11.344  0.00  0.00     0.220 HD
ENDBRANCH  24  28
ENDBRANCH  20  24
ENDBRANCH  18  20
ENDBRANCH   1  18
TORSDOF 9
ENDMDL
MODEL 2
REMARK VINA RESULT:      -6.9      2.918      4.110
REMARK  9 active torsions:
REMARK  status: ('A' for Active; 'I' for Inactive)
REMARK    1  A    between atoms: C_1  and  C_9 
REMARK    2  A    between atoms: C_4  and  O_7 
REMARK    3  A    between atoms: C_12  and  S_15 
REMARK    4  A    between atoms: S_15  and  N_18 
REMARK    5  A    between atoms: C_19  and  N_18 
REMARK    6  A    between atoms: C_19  and  C_20 
REMARK    7  A    between atoms: C_19  and  P_23 
REMARK    8  A    between atoms: P_23  and  O_25 
REMARK    9  A    between atoms: P_23  and  O_26 
ROOT
HETATM    1  S   UNK N   1      35.647  15.137  10.664  0.00  0.00     0.259 S 
HETATM    2  O   UNK N   1      36.418  14.357   9.587  0.00  0.00    -0.201 OA
HETATM    3  O   UNK N   1      36.444  16.451  10.691  0.00  0.00    -0.201 OA
ENDROOT
BRANCH   1   4
HETATM    4  C   UNK N   1      35.680  14.370  12.282  0.00  0.00     0.079 A 
HETATM    5  C   UNK N   1      36.403  14.958  13.320  0.00  0.00     0.026 A 
HETATM    6  C   UNK N   1      36.410  14.377  14.590  0.00  0.00     0.014 A 
HETATM    7  C   UNK N   1      35.683  13.201  14.838  0.00  0.00    -0.026 A 
HETATM    8  C   UNK N   1      34.962  12.613  13.785  0.00  0.00     0.014 A 
HETATM    9  C   UNK N   1      34.963  13.193  12.514  0.00  0.00     0.026 A 
BRANCH   7  10
HETATM   10  C   UNK N   1      35.631  12.624  16.203  0.00  0.00    -0.026 A 
HETATM   11  C   UNK N   1      35.896  11.260  16.408  0.00  0.00     0.015 A 
HETATM   12  C   UNK N   1      35.773  10.699  17.681  0.00  0.00     0.037 A 
HETATM   13  C   UNK N   1      35.386  11.496  18.773  0.00  0.00     0.068 A 
HETATM   14  C   UNK N   1      35.144  12.859  18.574  0.00  0.00     0.037 A 
HETATM   15  C   UNK N   1      35.260  13.418  17.299  0.00  0.00     0.015 A 
BRANCH  13  16
HETATM   16  O   UNK N   1      35.227  10.974  20.012  0.00  0.00    -0.356 OA
HETATM   17  C   UNK N   1      34.428   9.883  20.273  0.00  0.00     0.210 C 
ENDBRANCH  13  16
ENDBRANCH   7  10
ENDBRANCH   1   4
BRANCH   1  18
HETATM   18  N   UNK N   1      34.081  15.626   9.971  0.00  0.00    -0.299 N 
HETATM   19  H   UNK N   1      33.296  15.950  10.534  0.00  0.00     0.173 HD
BRANCH  18  20
HETATM   20  C   UNK N   1      34.030  15.517   8.508  0.00  0.00     0.207 C 
BRANCH  20  21
HETATM   21  C   UNK N   1      33.337  16.767   7.942  0.00  0.00     0.012 C 
HETATM   22  C   UNK N   1      34.220  18.002   8.027  0.00  0.00     0.012 C 
HETATM   23  C   UNK N   1      32.041  17.060   8.679  0.00  0.00     0.012 C 
ENDBRANCH  20  21
BRANCH  20  24
HETATM   24  P   UNK N   1      33.059  13.981   8.059  0.00  0.00     0.260 P 
HETATM   25  O   UNK N   1      34.001  12.893   7.482  0.00  0.00    -0.652 OA
BRANCH  24  26
HETATM   26  O   UNK N   1      32.272  13.191   9.389  0.00  0.00    -0.328 OA
HETATM   27  H   UNK N   1      32.374  12.366   9.890  0.00  0.00     0.220 HD
ENDBRANCH  24  26
BRANCH  24  28
HETATM   28  O   UNK N   1      31.852  14.179   6.831  0.00  0.00    -0.328 OA
HETATM   29  H   UNK N   1      31.225  13.462   6.645  0.00  0.00     0.220 HD
ENDBRANCH  24  28
ENDBRANCH  20  24
ENDBRANCH  18  20
ENDBRANCH   1  18
TORSDOF 9
ENDMDL
MODEL 3
REMARK VINA RESULT:      -6.9      5.335     11.400
REMARK  9 active torsions:
REMARK  status: ('A' for Active; 'I' for Inactive)
REMARK    1  A    between atoms: C_1  and  C_9 
REMARK    2  A    between atoms: C_4  and  O_7 
REMARK    3  A    between atoms: C_12  and  S_15 
REMARK    4  A    between atoms: S_15  and  N_18 
REMARK    5  A    between atoms: C_19  and  N_18 
REMARK    6  A    between atoms: C_19  and  C_20 
REMARK    7  A    between atoms: C_19  and  P_23 
REMARK    8  A    between atoms: P_23  and  O_25 
REMARK    9  A    between atoms: P_23  and  O_26 
ROOT
HETATM    1  S   UNK N   1      30.042  17.523   8.454  0.00  0.00     0.259 S 
HETATM    2  O   UNK N   1      29.449  16.924   9.740  0.00  0.00    -0.201 OA
HETATM    3  O   UNK N   1      30.835  18.706   9.028  0.00  0.00    -0.201 OA
ENDROOT
BRANCH   1   4
HETATM    4  C   UNK N   1      28.812  18.117   7.295  0.00  0.00     0.079 A 
HETATM    5  C   UNK N   1      28.363  17.288   6.267  0.00  0.00     0.026 A 
HETATM    6  C   UNK N   1      27.384  17.739   5.377  0.00  0.00     0.014 A 
HETATM    7  C   UNK N   1      26.837  19.026   5.513  0.00  0.00    -0.026 A 
HETATM    8  C   UNK N   1      27.300  19.855   6.549  0.00  0.00     0.014 A 
HETATM    9  C   UNK N   1      28.283  19.404   7.432  0.00  0.00     0.026 A 
BRANCH   7  10
HETATM   10  C   UNK N   1      25.748  19.477   4.615  0.00  0.00    -0.026 A 
HETATM   11  C   UNK N   1      24.449  18.966   4.761  0.00  0.00     0.015 A 
HETATM   12  C   UNK N   1      23.439  19.333   3.868  0.00  0.00     0.037 A 
HETATM   13  C   UNK N   1      23.714  20.222   2.813  0.00  0.00     0.068 A 
HETATM   14  C   UNK N   1      25.001  20.749   2.680  0.00  0.00     0.037 A 
HETATM   15  C   UNK N   1      26.013  20.377   3.570  0.00  0.00     0.015 A 
BRANCH  13  16
HETATM   16  O   UNK N   1      22.764  20.569   1.914  0.00  0.00    -0.356 OA
HETATM   17  C   UNK N   1      21.414  20.463   2.163  0.00  0.00     0.210 C 
ENDBRANCH  13  16
ENDBRANCH   7  10
ENDBRANCH   1   4
BRANCH   1  18
HETATM   18  N   UNK N   1      31.316  16.422   7.874  0.00  0.00    -0.299 N 
HETATM   19  H   UNK N   1      31.161  15.716   7.156  0.00  0.00     0.173 HD
BRANCH  18  20
HETATM   20  C   UNK N   1      32.612  16.631   8.532  0.00  0.00     0.207 C 
BRANCH  20  21
HETATM   21  C   UNK N   1      33.636  17.079   7.476  0.00  0.00     0.012 C 
HETATM   22  C   UNK N   1      34.467  18.262   7.947  0.00  0.00     0.012 C 
HETATM   23  C   UNK N   1      32.953  17.469   6.176  0.00  0.00     0.012 C 
ENDBRANCH  20  21
BRANCH  20  24
HETATM   24  P   UNK N   1      33.151  15.016   9.310  0.00  0.00     0.260 P 
HETATM   25  O   UNK N   1      32.262  13.849   8.807  0.00  0.00    -0.652 OA
BRANCH  24  26
HETATM   26  O   UNK N   1      34.765  14.512   8.921  0.00  0.00    -0.328 OA
HETATM   27  H   UNK N   1      35.657  14.632   9.284  0.00  0.00     0.220 HD
ENDBRANCH  24  26
BRANCH  24  28
HETATM   28  O   UNK N   1      33.018  14.924  11.036  0.00  0.00    -0.328 OA
HETATM   29  H   UNK N   1      32.415  14.283  11.443  0.00  0.00     0.220 HD
ENDBRANCH  24  28
ENDBRANCH  20  24
ENDBRANCH  18  20
ENDBRANCH   1  18
TORSDOF 9
ENDMDL
MODEL 4
REMARK VINA RESULT:      -6.9      2.509      3.998
REMARK  9 active torsions:
REMARK  status: ('A' for Active; 'I' for Inactive)
REMARK    1  A    between atoms: C_1  and  C_9 
REMARK    2  A    between atoms: C_4  and  O_7 
REMARK    3  A    between atoms: C_12  and  S_15 
REMARK    4  A    between atoms: S_15  and  N_18 
REMARK    5  A    between atoms: C_19  and  N_18 
REMARK    6  A    between atoms: C_19  and  C_20 
REMARK    7  A    between atoms: C_19  and  P_23 
REMARK    8  A    between atoms: P_23  and  O_25 
REMARK    9  A    between atoms: P_23  and  O_26 
ROOT
HETATM    1  S   UNK N   1      36.277  15.273  10.358  0.00  0.00     0.259 S 
HETATM    2  O   UNK N   1      37.683  15.056   9.775  0.00  0.00    -0.201 OA
HETATM    3  O   UNK N   1      36.343  16.766  10.716  0.00  0.00    -0.201 OA
ENDROOT
BRANCH   1   4
HETATM    4  C   UNK N   1      35.942  14.307  11.828  0.00  0.00     0.079 A 
HETATM    5  C   UNK N   1      35.299  13.074  11.722  0.00  0.00     0.026 A 
HETATM    6  C   UNK N   1      35.059  12.305  12.864  0.00  0.00     0.014 A 
HETATM    7  C   UNK N   1      35.471  12.761  14.127  0.00  0.00    -0.026 A 
HETATM    8  C   UNK N   1      36.114  14.006  14.225  0.00  0.00     0.014 A 
HETATM    9  C   UNK N   1      36.345  14.776  13.082  0.00  0.00     0.026 A 
BRANCH   7  10
HETATM   10  C   UNK N   1      35.282  11.913  15.329  0.00  0.00    -0.026 A 
HETATM   11  C   UNK N   1      34.801  10.600  15.204  0.00  0.00     0.015 A 
HETATM   12  C   UNK N   1      34.551   9.827  16.340  0.00  0.00     0.037 A 
HETATM   13  C   UNK N   1      34.782  10.355  17.623  0.00  0.00     0.068 A 
HETATM   14  C   UNK N   1      35.283  11.654  17.748  0.00  0.00     0.037 A 
HETATM   15  C   UNK N   1      35.527  12.430  16.611  0.00  0.00     0.015 A 
BRANCH  13  16
HETATM   16  O   UNK N   1      34.518   9.641  18.742  0.00  0.00    -0.356 OA
HETATM   17  C   UNK N   1      34.652  10.155  20.013  0.00  0.00     0.210 C 
ENDBRANCH  13  16
ENDBRANCH   7  10
ENDBRANCH   1   4
BRANCH   1  18
HETATM   18  N   UNK N   1      35.113  15.230   9.011  0.00  0.00    -0.299 N 
HETATM   19  H   UNK N   1      35.241  14.656   8.178  0.00  0.00     0.173 HD
BRANCH  18  20
HETATM   20  C   UNK N   1      33.950  16.103   9.215  0.00  0.00     0.207 C 
BRANCH  20  21
HETATM   21  C   UNK N   1      32.684  15.350   8.776  0.00  0.00     0.012 C 
HETATM   22  C   UNK N   1      31.535  15.539   9.753  0.00  0.00     0.012 C 
HETATM   23  C   UNK N   1      32.947  13.860   8.639  0.00  0.00     0.012 C 
ENDBRANCH  20  21
BRANCH  20  24
HETATM   24  P   UNK N   1      34.176  17.646   8.180  0.00  0.00     0.260 P 
HETATM   25  O   UNK N   1      32.844  18.437   8.090  0.00  0.00    -0.652 OA
BRANCH  24  26
HETATM   26  O   UNK N   1      35.306  18.801   8.813  0.00  0.00    -0.328 OA
HETATM   27  H   UNK N   1      35.298  19.733   9.083  0.00  0.00     0.220 HD
ENDBRANCH  24  26
BRANCH  24  28
HETATM   28  O   UNK N   1      34.620  17.390   6.524  0.00  0.00    -0.328 OA
HETATM   29  H   UNK N   1      34.373  18.042   5.849  0.00  0.00     0.220 HD
ENDBRANCH  24  28
ENDBRANCH  20  24
ENDBRANCH  18  20
ENDBRANCH   1  18
TORSDOF 9
ENDMDL
MODEL 5
REMARK VINA RESULT:      -6.8      4.047      9.908
REMARK  9 active torsions:
REMARK  status: ('A' for Active; 'I' for Inactive)
REMARK    1  A    between atoms: C_1  and  C_9 
REMARK    2  A    between atoms: C_4  and  O_7 
REMARK    3  A    between atoms: C_12  and  S_15 
REMARK    4  A    between atoms: S_15  and  N_18 
REMARK    5  A    between atoms: C_19  and  N_18 
REMARK    6  A    between atoms: C_19  and  C_20 
REMARK    7  A    between atoms: C_19  and  P_23 
REMARK    8  A    between atoms: P_23  and  O_25 
REMARK    9  A    between atoms: P_23  and  O_26 
ROOT
HETATM    1  S   UNK N   1      33.952  16.521   7.086  0.00  0.00     0.259 S 
HETATM    2  O   UNK N   1      34.612  17.684   7.842  0.00  0.00    -0.201 OA
HETATM    3  O   UNK N   1      34.966  16.304   5.952  0.00  0.00    -0.201 OA
ENDROOT
BRANCH   1   4
HETATM    4  C   UNK N   1      32.346  16.918   6.400  0.00  0.00     0.079 A 
HETATM    5  C   UNK N   1      31.222  16.951   7.226  0.00  0.00     0.026 A 
HETATM    6  C   UNK N   1      29.972  17.287   6.700  0.00  0.00     0.014 A 
HETATM    7  C   UNK N   1      29.835  17.602   5.338  0.00  0.00    -0.026 A 
HETATM    8  C   UNK N   1      30.971  17.562   4.513  0.00  0.00     0.014 A 
HETATM    9  C   UNK N   1      32.218  17.219   5.041  0.00  0.00     0.026 A 
BRANCH   7  10
HETATM   10  C   UNK N   1      28.523  18.029   4.794  0.00  0.00    -0.026 A 
HETATM   11  C   UNK N   1      27.622  17.079   4.286  0.00  0.00     0.015 A 
HETATM   12  C   UNK N   1      26.419  17.486   3.704  0.00  0.00     0.037 A 
HETATM   13  C   UNK N   1      26.095  18.852   3.625  0.00  0.00     0.068 A 
HETATM   14  C   UNK N   1      26.981  19.797   4.151  0.00  0.00     0.037 A 
HETATM   15  C   UNK N   1      28.188  19.390   4.727  0.00  0.00     0.015 A 
BRANCH  13  16
HETATM   16  O   UNK N   1      24.952  19.277   3.038  0.00  0.00    -0.356 OA
HETATM   17  C   UNK N   1      24.518  20.582   3.091  0.00  0.00     0.210 C 
ENDBRANCH  13  16
ENDBRANCH   7  10
ENDBRANCH   1   4
BRANCH   1  18
HETATM   18  N   UNK N   1      34.129  15.052   8.077  0.00  0.00    -0.299 N 
HETATM   19  H   UNK N   1      33.432  14.309   8.107  0.00  0.00     0.173 HD
BRANCH  18  20
HETATM   20  C   UNK N   1      35.378  15.015   8.848  0.00  0.00     0.207 C 
BRANCH  20  21
HETATM   21  C   UNK N   1      35.941  13.585   8.809  0.00  0.00     0.012 C 
HETATM   22  C   UNK N   1      36.677  13.291   7.512  0.00  0.00     0.012 C 
HETATM   23  C   UNK N   1      34.837  12.553   8.970  0.00  0.00     0.012 C 
ENDBRANCH  20  21
BRANCH  20  24
HETATM   24  P   UNK N   1      35.003  15.514  10.612  0.00  0.00     0.260 P 
HETATM   25  O   UNK N   1      36.075  14.943  11.577  0.00  0.00    -0.652 OA
BRANCH  24  26
HETATM   26  O   UNK N   1      35.032  17.222  10.918  0.00  0.00    -0.328 OA
HETATM   27  H   UNK N   1      34.690  18.027  10.499  0.00  0.00     0.220 HD
ENDBRANCH  24  26
BRANCH  24  28
HETATM   28  O   UNK N   1      33.506  14.930  11.263  0.00  0.00    -0.328 OA
HETATM   29  H   UNK N   1      33.210  15.224  12.140  0.00  0.00     0.220 HD
ENDBRANCH  24  28
ENDBRANCH  20  24
ENDBRANCH  18  20
ENDBRANCH   1  18
TORSDOF 9
ENDMDL
MODEL 6
REMARK VINA RESULT:      -6.7      3.567      8.906
REMARK  9 active torsions:
REMARK  status: ('A' for Active; 'I' for Inactive)
REMARK    1  A    between atoms: C_1  and  C_9 
REMARK    2  A    between atoms: C_4  and  O_7 
REMARK    3  A    between atoms: C_12  and  S_15 
REMARK    4  A    between atoms: S_15  and  N_18 
REMARK    5  A    between atoms: C_19  and  N_18 
REMARK    6  A    between atoms: C_19  and  C_20 
REMARK    7  A    between atoms: C_19  and  P_23 
REMARK    8  A    between atoms: P_23  and  O_25 
REMARK    9  A    between atoms: P_23  and  O_26 
ROOT
HETATM    1  S   UNK N   1      35.521  15.284  10.067  0.00  0.00     0.259 S 
HETATM    2  O   UNK N   1      36.470  16.336  10.665  0.00  0.00    -0.201 OA
HETATM    3  O   UNK N   1      36.381  14.749   8.911  0.00  0.00    -0.201 OA
ENDROOT
BRANCH   1   4
HETATM    4  C   UNK N   1      33.993  15.964   9.427  0.00  0.00     0.079 A 
HETATM    5  C   UNK N   1      33.972  17.249   8.884  0.00  0.00     0.026 A 
HETATM    6  C   UNK N   1      32.788  17.772   8.360  0.00  0.00     0.014 A 
HETATM    7  C   UNK N   1      31.609  17.009   8.366  0.00  0.00    -0.026 A 
HETATM    8  C   UNK N   1      31.638  15.718   8.919  0.00  0.00     0.014 A 
HETATM    9  C   UNK N   1      32.822  15.200   9.449  0.00  0.00     0.026 A 
BRANCH   7  10
HETATM   10  C   UNK N   1      30.370  17.536   7.745  0.00  0.00    -0.026 A 
HETATM   11  C   UNK N   1      30.090  17.282   6.393  0.00  0.00     0.015 A 
HETATM   12  C   UNK N   1      28.962  17.841   5.787  0.00  0.00     0.037 A 
HETATM   13  C   UNK N   1      28.093  18.662   6.527  0.00  0.00     0.068 A 
HETATM   14  C   UNK N   1      28.359  18.897   7.879  0.00  0.00     0.037 A 
HETATM   15  C   UNK N   1      29.491  18.343   8.484  0.00  0.00     0.015 A 
BRANCH  13  16
HETATM   16  O   UNK N   1      27.011  19.243   5.958  0.00  0.00    -0.356 OA
HETATM   17  C   UNK N   1      26.746  20.592   6.047  0.00  0.00     0.210 C 
ENDBRANCH  13  16
ENDBRANCH   7  10
ENDBRANCH   1   4
BRANCH   1  18
HETATM   18  N   UNK N   1      35.451  13.906  11.192  0.00  0.00    -0.299 N 
HETATM   19  H   UNK N   1      34.598  13.381  11.382  0.00  0.00     0.173 HD
BRANCH  18  20
HETATM   20  C   UNK N   1      36.741  13.600  11.822  0.00  0.00     0.207 C 
BRANCH  20  21
HETATM   21  C   UNK N   1      37.172  12.185  11.403  0.00  0.00     0.012 C 
HETATM   22  C   UNK N   1      38.326  12.204  10.414  0.00  0.00     0.012 C 
HETATM   23  C   UNK N   1      36.020  11.422  10.771  0.00  0.00     0.012 C 
ENDBRANCH  20  21
BRANCH  20  24
HETATM   24  P   UNK N   1      36.532  13.688  13.680  0.00  0.00     0.260 P 
HETATM   25  O   UNK N   1      35.045  13.481  14.069  0.00  0.00    -0.652 OA
BRANCH  24  26
HETATM   26  O   UNK N   1      37.374  12.463  14.576  0.00  0.00    -0.328 OA
HETATM   27  H   UNK N   1      37.942  11.701  14.382  0.00  0.00     0.220 HD
ENDBRANCH  24  26
BRANCH  24  28
HETATM   28  O   UNK N   1      36.948  15.200  14.419  0.00  0.00    -0.328 OA
HETATM   29  H   UNK N   1      36.529  16.020  14.115  0.00  0.00     0.220 HD
ENDBRANCH  24  28
ENDBRANCH  20  24
ENDBRANCH  18  20
ENDBRANCH   1  18
TORSDOF 9
ENDMDL
MODEL 7
REMARK VINA RESULT:      -6.7      5.309      7.494
REMARK  9 active torsions:
REMARK  status: ('A' for Active; 'I' for Inactive)
REMARK    1  A    between atoms: C_1  and  C_9 
REMARK    2  A    between atoms: C_4  and  O_7 
REMARK    3  A    between atoms: C_12  and  S_15 
REMARK    4  A    between atoms: S_15  and  N_18 
REMARK    5  A    between atoms: C_19  and  N_18 
REMARK    6  A    between atoms: C_19  and  C_20 
REMARK    7  A    between atoms: C_19  and  P_23 
REMARK    8  A    between atoms: P_23  and  O_25 
REMARK    9  A    between atoms: P_23  and  O_26 
ROOT
HETATM    1  S   UNK N   1      36.180  13.713  13.644  0.00  0.00     0.259 S 
HETATM    2  O   UNK N   1      36.463  15.198  13.924  0.00  0.00    -0.201 OA
HETATM    3  O   UNK N   1      34.899  13.820  12.802  0.00  0.00    -0.201 OA
ENDROOT
BRANCH   1   4
HETATM    4  C   UNK N   1      35.864  12.743  15.116  0.00  0.00     0.079 A 
HETATM    5  C   UNK N   1      35.510  13.376  16.307  0.00  0.00     0.026 A 
HETATM    6  C   UNK N   1      35.237  12.621  17.451  0.00  0.00     0.014 A 
HETATM    7  C   UNK N   1      35.307  11.219  17.411  0.00  0.00    -0.026 A 
HETATM    8  C   UNK N   1      35.668  10.590  16.207  0.00  0.00     0.014 A 
HETATM    9  C   UNK N   1      35.948  11.349  15.068  0.00  0.00     0.026 A 
BRANCH   7  10
HETATM   10  C   UNK N   1      34.947  10.414  18.603  0.00  0.00    -0.026 A 
HETATM   11  C   UNK N   1      34.217   9.223  18.462  0.00  0.00     0.015 A 
HETATM   12  C   UNK N   1      33.811   8.505  19.590  0.00  0.00     0.037 A 
HETATM   13  C   UNK N   1      34.133   8.965  20.878  0.00  0.00     0.068 A 
HETATM   14  C   UNK N   1      34.879  10.139  21.019  0.00  0.00     0.037 A 
HETATM   15  C   UNK N   1      35.279  10.862  19.891  0.00  0.00     0.015 A 
BRANCH  13  16
HETATM   16  O   UNK N   1      33.726   8.308  21.989  0.00  0.00    -0.356 OA
HETATM   17  C   UNK N   1      32.422   7.922  22.201  0.00  0.00     0.210 C 
ENDBRANCH  13  16
ENDBRANCH   7  10
ENDBRANCH   1   4
BRANCH   1  18
HETATM   18  N   UNK N   1      37.390  13.137  12.471  0.00  0.00    -0.299 N 
HETATM   19  H   UNK N   1      38.373  12.998  12.704  0.00  0.00     0.173 HD
BRANCH  18  20
HETATM   20  C   UNK N   1      36.834  12.883  11.136  0.00  0.00     0.207 C 
BRANCH  20  21
HETATM   21  C   UNK N   1      37.532  11.651  10.537  0.00  0.00     0.012 C 
HETATM   22  C   UNK N   1      36.855  11.169   9.264  0.00  0.00     0.012 C 
HETATM   23  C   UNK N   1      37.557  10.497  11.525  0.00  0.00     0.012 C 
ENDBRANCH  20  21
BRANCH  20  24
HETATM   24  P   UNK N   1      37.147  14.387  10.066  0.00  0.00     0.260 P 
HETATM   25  O   UNK N   1      38.572  14.331   9.456  0.00  0.00    -0.652 OA
BRANCH  24  26
HETATM   26  O   UNK N   1      36.106  14.539   8.686  0.00  0.00    -0.328 OA
HETATM   27  H   UNK N   1      35.937  14.053   7.863  0.00  0.00     0.220 HD
ENDBRANCH  24  26
BRANCH  24  28
HETATM   28  O   UNK N   1      37.102  15.918  10.878  0.00  0.00    -0.328 OA
HETATM   29  H   UNK N   1      37.494  16.701  10.460  0.00  0.00     0.220 HD
ENDBRANCH  24  28
ENDBRANCH  20  24
ENDBRANCH  18  20
ENDBRANCH   1  18
TORSDOF 9
ENDMDL
MODEL 8
REMARK VINA RESULT:      -6.5      5.900     12.153
REMARK  9 active torsions:
REMARK  status: ('A' for Active; 'I' for Inactive)
REMARK    1  A    between atoms: C_1  and  C_9 
REMARK    2  A    between atoms: C_4  and  O_7 
REMARK    3  A    between atoms: C_12  and  S_15 
REMARK    4  A    between atoms: S_15  and  N_18 
REMARK    5  A    between atoms: C_19  and  N_18 
REMARK    6  A    between atoms: C_19  and  C_20 
REMARK    7  A    between atoms: C_19  and  P_23 
REMARK    8  A    between atoms: P_23  and  O_25 
REMARK    9  A    between atoms: P_23  and  O_26 
ROOT
HETATM    1  S   UNK N   1      30.207  16.656   5.099  0.00  0.00     0.259 S 
HETATM    2  O   UNK N   1      31.201  16.530   3.934  0.00  0.00    -0.201 OA
HETATM    3  O   UNK N   1      30.013  15.178   5.471  0.00  0.00    -0.201 OA
ENDROOT
BRANCH   1   4
HETATM    4  C   UNK N   1      28.635  17.381   4.640  0.00  0.00     0.079 A 
HETATM    5  C   UNK N   1      27.603  16.570   4.167  0.00  0.00     0.026 A 
HETATM    6  C   UNK N   1      26.367  17.127   3.832  0.00  0.00     0.014 A 
HETATM    7  C   UNK N   1      26.147  18.508   3.976  0.00  0.00    -0.026 A 
HETATM    8  C   UNK N   1      27.194  19.317   4.448  0.00  0.00     0.014 A 
HETATM    9  C   UNK N   1      28.431  18.757   4.774  0.00  0.00     0.026 A 
BRANCH   7  10
HETATM   10  C   UNK N   1      24.814  19.089   3.690  0.00  0.00    -0.026 A 
HETATM   11  C   UNK N   1      23.646  18.399   4.050  0.00  0.00     0.015 A 
HETATM   12  C   UNK N   1      22.390  18.909   3.714  0.00  0.00     0.037 A 
HETATM   13  C   UNK N   1      22.282  20.123   3.013  0.00  0.00     0.068 A 
HETATM   14  C   UNK N   1      23.444  20.823   2.674  0.00  0.00     0.037 A 
HETATM   15  C   UNK N   1      24.700  20.309   3.004  0.00  0.00     0.015 A 
BRANCH  13  16
HETATM   16  O   UNK N   1      21.080  20.626   2.645  0.00  0.00    -0.356 OA
HETATM   17  C   UNK N   1      20.712  20.815   1.332  0.00  0.00     0.210 C 
ENDBRANCH  13  16
ENDBRANCH   7  10
ENDBRANCH   1   4
BRANCH   1  18
HETATM   18  N   UNK N   1      31.087  17.315   6.501  0.00  0.00    -0.299 N 
HETATM   19  H   UNK N   1      30.840  18.195   6.953  0.00  0.00     0.173 HD
BRANCH  18  20
HETATM   20  C   UNK N   1      32.202  16.469   6.941  0.00  0.00     0.207 C 
BRANCH  20  21
HETATM   21  C   UNK N   1      32.203  16.412   8.478  0.00  0.00     0.012 C 
HETATM   22  C   UNK N   1      32.531  15.024   9.002  0.00  0.00     0.012 C 
HETATM   23  C   UNK N   1      30.857  16.827   9.046  0.00  0.00     0.012 C 
ENDBRANCH  20  21
BRANCH  20  24
HETATM   24  P   UNK N   1      33.800  17.220   6.321  0.00  0.00     0.260 P 
HETATM   25  O   UNK N   1      34.872  16.119   6.112  0.00  0.00    -0.652 OA
BRANCH  24  26
HETATM   26  O   UNK N   1      33.697  18.003   4.775  0.00  0.00    -0.328 OA
HETATM   27  H   UNK N   1      33.997  18.835   4.376  0.00  0.00     0.220 HD
ENDBRANCH  24  26
BRANCH  24  28
HETATM   28  O   UNK N   1      34.570  18.351   7.386  0.00  0.00    -0.328 OA
HETATM   29  H   UNK N   1      35.364  18.828   7.097  0.00  0.00     0.220 HD
ENDBRANCH  24  28
ENDBRANCH  20  24
ENDBRANCH  18  20
ENDBRANCH   1  18
TORSDOF 9
ENDMDL
MODEL 9
REMARK VINA RESULT:      -6.5      3.791      4.958
REMARK  9 active torsions:
REMARK  status: ('A' for Active; 'I' for Inactive)
REMARK    1  A    between atoms: C_1  and  C_9 
REMARK    2  A    between atoms: C_4  and  O_7 
REMARK    3  A    between atoms: C_12  and  S_15 
REMARK    4  A    between atoms: S_15  and  N_18 
REMARK    5  A    between atoms: C_19  and  N_18 
REMARK    6  A    between atoms: C_19  and  C_20 
REMARK    7  A    between atoms: C_19  and  P_23 
REMARK    8  A    between atoms: P_23  and  O_25 
REMARK    9  A    between atoms: P_23  and  O_26 
ROOT
HETATM    1  S   UNK N   1      37.071  13.854  10.424  0.00  0.00     0.259 S 
HETATM    2  O   UNK N   1      38.543  13.699  10.008  0.00  0.00    -0.201 OA
HETATM    3  O   UNK N   1      36.869  15.361  10.208  0.00  0.00    -0.201 OA
ENDROOT
BRANCH   1   4
HETATM    4  C   UNK N   1      36.752  13.434  12.136  0.00  0.00     0.079 A 
HETATM    5  C   UNK N   1      36.047  14.319  12.952  0.00  0.00     0.026 A 
HETATM    6  C   UNK N   1      35.772  13.984  14.280  0.00  0.00     0.014 A 
HETATM    7  C   UNK N   1      36.196  12.752  14.805  0.00  0.00    -0.026 A 
HETATM    8  C   UNK N   1      36.910  11.869  13.977  0.00  0.00     0.014 A 
HETATM    9  C   UNK N   1      37.189  12.211  12.651  0.00  0.00     0.026 A 
BRANCH   7  10
HETATM   10  C   UNK N   1      35.843  12.365  16.192  0.00  0.00    -0.026 A 
HETATM   11  C   UNK N   1      35.326  13.317  17.085  0.00  0.00     0.015 A 
HETATM   12  C   UNK N   1      35.064  12.972  18.413  0.00  0.00     0.037 A 
HETATM   13  C   UNK N   1      35.313  11.666  18.870  0.00  0.00     0.068 A 
HETATM   14  C   UNK N   1      35.806  10.711  17.976  0.00  0.00     0.037 A 
HETATM   15  C   UNK N   1      36.074  11.058  16.648  0.00  0.00     0.015 A 
BRANCH  13  16
HETATM   16  O   UNK N   1      35.100  11.312  20.159  0.00  0.00    -0.356 OA
HETATM   17  C   UNK N   1      34.350  10.217  20.526  0.00  0.00     0.210 C 
ENDBRANCH  13  16
ENDBRANCH   7  10
ENDBRANCH   1   4
BRANCH   1  18
HETATM   18  N   UNK N   1      36.062  13.122   9.152  0.00  0.00    -0.299 N 
HETATM   19  H   UNK N   1      36.388  12.968   8.198  0.00  0.00     0.173 HD
BRANCH  18  20
HETATM   20  C   UNK N   1      34.714  12.764   9.610  0.00  0.00     0.207 C 
BRANCH  20  21
HETATM   21  C   UNK N   1      34.184  11.615   8.736  0.00  0.00     0.012 C 
HETATM   22  C   UNK N   1      34.283  10.269   9.435  0.00  0.00     0.012 C 
HETATM   23  C   UNK N   1      34.945  11.524   7.424  0.00  0.00     0.012 C 
ENDBRANCH  20  21
BRANCH  20  24
HETATM   24  P   UNK N   1      33.610  14.267   9.440  0.00  0.00     0.260 P 
HETATM   25  O   UNK N   1      32.306  13.899   8.684  0.00  0.00    -0.652 OA
BRANCH  24  26
HETATM   26  O   UNK N   1      33.049  14.943  10.937  0.00  0.00    -0.328 OA
HETATM   27  H   UNK N   1      32.247  14.901  11.482  0.00  0.00     0.220 HD
ENDBRANCH  24  26
BRANCH  24  28
HETATM   28  O   UNK N   1      34.261  15.588   8.526  0.00  0.00    -0.328 OA
HETATM   29  H   UNK N   1      35.209  15.791   8.575  0.00  0.00     0.220 HD
ENDBRANCH  24  28
ENDBRANCH  20  24
ENDBRANCH  18  20
ENDBRANCH   1  18
TORSDOF 9
ENDMDL
