REMARK  7 active torsions:
REMARK  status: ('A' for Active; 'I' for Inactive)
REMARK    1  A    between atoms: C_11  and  C_14 
REMARK    2  A    between atoms: C_14  and  C_15 
REMARK    3  A    between atoms: C_15  and  C_16 
REMARK    4  A    between atoms: C_16  and  C_17 
REMARK    5  A    between atoms: C_17  and  C_18 
REMARK    6  A    between atoms: C_18  and  C_19 
REMARK    7  A    between atoms: C_19  and  O_21 
ROOT
HETATM    1  C   UNK N   1      -2.897  -3.619  -0.034  0.00  0.00     0.001 A 
HETATM    2  C   UNK N   1      -1.795  -2.766   0.062  0.00  0.00     0.016 A 
HETATM    3  C   UNK N   1      -1.977  -1.375   0.064  0.00  0.00     0.029 A 
HETATM    4  C   UNK N   1      -3.273  -0.841  -0.033  0.00  0.00     0.029 A 
HETATM    5  C   UNK N   1      -4.374  -1.704  -0.130  0.00  0.00     0.016 A 
HETATM    6  C   UNK N   1      -4.185  -3.089  -0.129  0.00  0.00     0.001 A 
HETATM    7  O   UNK N   1       0.313  -0.920   0.258  0.00  0.00    -0.287 OA
HETATM    8  C   UNK N   1      -0.818  -0.463   0.176  0.00  0.00     0.190 A 
HETATM    9  C   UNK N   1      -3.460   0.626  -0.024  0.00  0.00     0.189 A 
HETATM   10  C   UNK N   1      -2.282   1.526   0.113  0.00  0.00    -0.001 A 
HETATM   11  C   UNK N   1      -1.030   1.014   0.207  0.00  0.00     0.003 A 
HETATM   12  O   UNK N   1      -4.584   1.100  -0.116  0.00  0.00    -0.287 OA
HETATM   13  C   UNK N   1      -2.506   3.010   0.150  0.00  0.00     0.053 C 
ENDROOT
BRANCH  11  14
HETATM   14  C   UNK N   1       0.161   1.925   0.372  0.00  0.00     0.043 C 
BRANCH  14  15
HETATM   15  C   UNK N   1       1.080   1.850  -0.835  0.00  0.00     0.005 C 
BRANCH  15  16
HETATM   16  C   UNK N   1       2.507   2.174  -0.433  0.00  0.00     0.001 C 
BRANCH  16  17
HETATM   17  C   UNK N   1       3.176   0.930   0.118  0.00  0.00     0.010 C 
BRANCH  17  18
HETATM   18  C   UNK N   1       4.683   1.116   0.129  0.00  0.00     0.110 C 
BRANCH  18  19
HETATM   19  C   UNK N   1       5.409  -0.194   0.056  0.00  0.00     0.139 C 
HETATM   20  O   UNK N   1       6.628  -0.203   0.021  0.00  0.00    -0.650 OA
BRANCH  19  21
HETATM   21  O   UNK N   1       4.735  -1.361   0.009  0.00  0.00    -0.776 OA
HETATM   22  H   UNK N   1       3.798  -1.360  -0.023  0.00  0.00     0.167 HD
ENDBRANCH  19  21
ENDBRANCH  18  19
ENDBRANCH  17  18
ENDBRANCH  16  17
ENDBRANCH  15  16
ENDBRANCH  14  15
ENDBRANCH  11  14
TORSDOF 7
