MODEL 1
REMARK VINA RESULT:      -6.5      0.000      0.000
REMARK  7 active torsions:
REMARK  status: ('A' for Active; 'I' for Inactive)
REMARK    1  A    between atoms: C_11  and  C_14 
REMARK    2  A    between atoms: C_14  and  C_15 
REMARK    3  A    between atoms: C_15  and  C_16 
REMARK    4  A    between atoms: C_16  and  C_17 
REMARK    5  A    between atoms: C_17  and  C_18 
REMARK    6  A    between atoms: C_18  and  C_19 
REMARK    7  A    between atoms: C_19  and  O_21 
ROOT
HETATM    1  C   UNK N   1      23.249  11.768  10.433  0.00  0.00     0.001 A 
HETATM    2  C   UNK N   1      23.485  12.638   9.366  0.00  0.00     0.016 A 
HETATM    3  C   UNK N   1      22.492  13.542   8.960  0.00  0.00     0.029 A 
HETATM    4  C   UNK N   1      21.257  13.568   9.629  0.00  0.00     0.029 A 
HETATM    5  C   UNK N   1      21.027  12.691  10.699  0.00  0.00     0.016 A 
HETATM    6  C   UNK N   1      22.022  11.795  11.100  0.00  0.00     0.001 A 
HETATM    7  O   UNK N   1      23.806  14.456   7.249  0.00  0.00    -0.287 OA
HETATM    8  C   UNK N   1      22.735  14.475   7.838  0.00  0.00     0.190 A 
HETATM    9  C   UNK N   1      20.216  14.528   9.201  0.00  0.00     0.189 A 
HETATM   10  C   UNK N   1      20.489  15.474   8.085  0.00  0.00    -0.001 A 
HETATM   11  C   UNK N   1      21.680  15.451   7.437  0.00  0.00     0.003 A 
HETATM   12  O   UNK N   1      19.134  14.552   9.772  0.00  0.00    -0.287 OA
HETATM   13  C   UNK N   1      19.424  16.457   7.692  0.00  0.00     0.053 C 
ENDROOT
BRANCH  11  14
HETATM   14  C   UNK N   1      21.966  16.427   6.323  0.00  0.00     0.043 C 
BRANCH  14  15
HETATM   15  C   UNK N   1      21.437  15.915   4.995  0.00  0.00     0.005 C 
BRANCH  15  16
HETATM   16  C   UNK N   1      20.901  17.064   4.162  0.00  0.00     0.001 C 
BRANCH  16  17
HETATM   17  C   UNK N   1      21.585  18.354   4.572  0.00  0.00     0.010 C 
BRANCH  17  18
HETATM   18  C   UNK N   1      21.956  19.157   3.338  0.00  0.00     0.110 C 
BRANCH  18  19
HETATM   19  C   UNK N   1      21.221  20.463   3.279  0.00  0.00     0.139 C 
HETATM   20  O   UNK N   1      20.132  20.563   3.819  0.00  0.00    -0.650 OA
BRANCH  19  21
HETATM   21  O   UNK N   1      21.737  21.522   2.622  0.00  0.00    -0.776 OA
HETATM   22  H   UNK N   1      22.665  21.603   2.519  0.00  0.00     0.167 HD
ENDBRANCH  19  21
ENDBRANCH  18  19
ENDBRANCH  17  18
ENDBRANCH  16  17
ENDBRANCH  15  16
ENDBRANCH  14  15
ENDBRANCH  11  14
TORSDOF 7
ENDMDL
MODEL 2
REMARK VINA RESULT:      -6.4      1.125      2.652
REMARK  7 active torsions:
REMARK  status: ('A' for Active; 'I' for Inactive)
REMARK    1  A    between atoms: C_11  and  C_14 
REMARK    2  A    between atoms: C_14  and  C_15 
REMARK    3  A    between atoms: C_15  and  C_16 
REMARK    4  A    between atoms: C_16  and  C_17 
REMARK    5  A    between atoms: C_17  and  C_18 
REMARK    6  A    between atoms: C_18  and  C_19 
REMARK    7  A    between atoms: C_19  and  O_21 
ROOT
HETATM    1  C   UNK N   1      21.529  12.025  11.516  0.00  0.00     0.001 A 
HETATM    2  C   UNK N   1      20.894  12.858  10.592  0.00  0.00     0.016 A 
HETATM    3  C   UNK N   1      21.625  13.432   9.541  0.00  0.00     0.029 A 
HETATM    4  C   UNK N   1      23.000  13.168   9.421  0.00  0.00     0.029 A 
HETATM    5  C   UNK N   1      23.630  12.331  10.353  0.00  0.00     0.016 A 
HETATM    6  C   UNK N   1      22.895  11.761  11.397  0.00  0.00     0.001 A 
HETATM    7  O   UNK N   1      19.765  14.544   8.650  0.00  0.00    -0.287 OA
HETATM    8  C   UNK N   1      20.961  14.308   8.551  0.00  0.00     0.190 A 
HETATM    9  C   UNK N   1      23.764  13.771   8.308  0.00  0.00     0.189 A 
HETATM   10  C   UNK N   1      23.071  14.630   7.308  0.00  0.00    -0.001 A 
HETATM   11  C   UNK N   1      21.745  14.887   7.421  0.00  0.00     0.003 A 
HETATM   12  O   UNK N   1      24.963  13.553   8.200  0.00  0.00    -0.287 OA
HETATM   13  C   UNK N   1      23.867  15.203   6.172  0.00  0.00     0.053 C 
ENDROOT
BRANCH  11  14
HETATM   14  C   UNK N   1      21.038  15.736   6.394  0.00  0.00     0.043 C 
BRANCH  14  15
HETATM   15  C   UNK N   1      20.838  17.155   6.899  0.00  0.00     0.005 C 
BRANCH  15  16
HETATM   16  C   UNK N   1      21.388  18.154   5.898  0.00  0.00     0.001 C 
BRANCH  16  17
HETATM   17  C   UNK N   1      21.416  17.529   4.517  0.00  0.00     0.010 C 
BRANCH  17  18
HETATM   18  C   UNK N   1      20.634  18.393   3.544  0.00  0.00     0.110 C 
BRANCH  18  19
HETATM   19  C   UNK N   1      21.098  19.819   3.564  0.00  0.00     0.139 C 
HETATM   20  O   UNK N   1      20.299  20.706   3.814  0.00  0.00    -0.650 OA
BRANCH  19  21
HETATM   21  O   UNK N   1      22.380  20.137   3.292  0.00  0.00    -0.776 OA
HETATM   22  H   UNK N   1      23.014  19.459   3.164  0.00  0.00     0.167 HD
ENDBRANCH  19  21
ENDBRANCH  18  19
ENDBRANCH  17  18
ENDBRANCH  16  17
ENDBRANCH  15  16
ENDBRANCH  14  15
ENDBRANCH  11  14
TORSDOF 7
ENDMDL
MODEL 3
REMARK VINA RESULT:      -6.3     15.105     18.816
REMARK  7 active torsions:
REMARK  status: ('A' for Active; 'I' for Inactive)
REMARK    1  A    between atoms: C_11  and  C_14 
REMARK    2  A    between atoms: C_14  and  C_15 
REMARK    3  A    between atoms: C_15  and  C_16 
REMARK    4  A    between atoms: C_16  and  C_17 
REMARK    5  A    between atoms: C_17  and  C_18 
REMARK    6  A    between atoms: C_18  and  C_19 
REMARK    7  A    between atoms: C_19  and  O_21 
ROOT
HETATM    1  C   UNK N   1      26.227  29.495  -3.690  0.00  0.00     0.001 A 
HETATM    2  C   UNK N   1      25.706  28.346  -4.291  0.00  0.00     0.016 A 
HETATM    3  C   UNK N   1      26.234  27.884  -5.506  0.00  0.00     0.029 A 
HETATM    4  C   UNK N   1      27.289  28.581  -6.118  0.00  0.00     0.029 A 
HETATM    5  C   UNK N   1      27.806  29.733  -5.509  0.00  0.00     0.016 A 
HETATM    6  C   UNK N   1      27.276  30.187  -4.297  0.00  0.00     0.001 A 
HETATM    7  O   UNK N   1      24.777  26.053  -5.620  0.00  0.00    -0.287 OA
HETATM    8  C   UNK N   1      25.696  26.663  -6.145  0.00  0.00     0.190 A 
HETATM    9  C   UNK N   1      27.846  28.086  -7.395  0.00  0.00     0.189 A 
HETATM   10  C   UNK N   1      27.306  26.842  -8.011  0.00  0.00    -0.001 A 
HETATM   11  C   UNK N   1      26.288  26.167  -7.422  0.00  0.00     0.003 A 
HETATM   12  O   UNK N   1      28.759  28.691  -7.940  0.00  0.00    -0.287 OA
HETATM   13  C   UNK N   1      27.913  26.347  -9.292  0.00  0.00     0.053 C 
ENDROOT
BRANCH  11  14
HETATM   14  C   UNK N   1      25.759  24.892  -8.032  0.00  0.00     0.043 C 
BRANCH  14  15
HETATM   15  C   UNK N   1      26.688  23.724  -7.752  0.00  0.00     0.005 C 
BRANCH  15  16
HETATM   16  C   UNK N   1      26.640  23.352  -6.282  0.00  0.00     0.001 C 
BRANCH  16  17
HETATM   17  C   UNK N   1      28.033  23.438  -5.689  0.00  0.00     0.010 C 
BRANCH  17  18
HETATM   18  C   UNK N   1      28.073  24.514  -4.619  0.00  0.00     0.110 C 
BRANCH  18  19
HETATM   19  C   UNK N   1      27.851  23.949  -3.248  0.00  0.00     0.139 C 
HETATM   20  O   UNK N   1      26.779  24.124  -2.693  0.00  0.00    -0.650 OA
BRANCH  19  21
HETATM   21  O   UNK N   1      28.824  23.266  -2.611  0.00  0.00    -0.776 OA
HETATM   22  H   UNK N   1      28.794  22.329  -2.578  0.00  0.00     0.167 HD
ENDBRANCH  19  21
ENDBRANCH  18  19
ENDBRANCH  17  18
ENDBRANCH  16  17
ENDBRANCH  15  16
ENDBRANCH  14  15
ENDBRANCH  11  14
TORSDOF 7
ENDMDL
MODEL 4
REMARK VINA RESULT:      -6.2     16.320     17.219
REMARK  7 active torsions:
REMARK  status: ('A' for Active; 'I' for Inactive)
REMARK    1  A    between atoms: C_11  and  C_14 
REMARK    2  A    between atoms: C_14  and  C_15 
REMARK    3  A    between atoms: C_15  and  C_16 
REMARK    4  A    between atoms: C_16  and  C_17 
REMARK    5  A    between atoms: C_17  and  C_18 
REMARK    6  A    between atoms: C_18  and  C_19 
REMARK    7  A    between atoms: C_19  and  O_21 
ROOT
HETATM    1  C   UNK N   1      28.541  20.328  -8.475  0.00  0.00     0.001 A 
HETATM    2  C   UNK N   1      27.479  21.176  -8.150  0.00  0.00     0.016 A 
HETATM    3  C   UNK N   1      27.599  22.080  -7.084  0.00  0.00     0.029 A 
HETATM    4  C   UNK N   1      28.790  22.129  -6.341  0.00  0.00     0.029 A 
HETATM    5  C   UNK N   1      29.851  21.274  -6.673  0.00  0.00     0.016 A 
HETATM    6  C   UNK N   1      29.725  20.377  -7.738  0.00  0.00     0.001 A 
HETATM    7  O   UNK N   1      25.444  22.951  -7.379  0.00  0.00    -0.287 OA
HETATM    8  C   UNK N   1      26.485  22.990  -6.739  0.00  0.00     0.190 A 
HETATM    9  C   UNK N   1      28.913  23.088  -5.223  0.00  0.00     0.189 A 
HETATM   10  C   UNK N   1      27.789  24.011  -4.906  0.00  0.00    -0.001 A 
HETATM   11  C   UNK N   1      26.638  23.967  -5.621  0.00  0.00     0.003 A 
HETATM   12  O   UNK N   1      29.944  23.132  -4.565  0.00  0.00    -0.287 OA
HETATM   13  C   UNK N   1      27.955  24.995  -3.784  0.00  0.00     0.053 C 
ENDROOT
BRANCH  11  14
HETATM   14  C   UNK N   1      25.509  24.920  -5.317  0.00  0.00     0.043 C 
BRANCH  14  15
HETATM   15  C   UNK N   1      25.586  26.159  -6.192  0.00  0.00     0.005 C 
BRANCH  15  16
HETATM   16  C   UNK N   1      24.792  27.293  -5.572  0.00  0.00     0.001 C 
BRANCH  16  17
HETATM   17  C   UNK N   1      25.407  27.679  -4.241  0.00  0.00     0.010 C 
BRANCH  17  18
HETATM   18  C   UNK N   1      26.565  28.635  -4.466  0.00  0.00     0.110 C 
BRANCH  18  19
HETATM   19  C   UNK N   1      26.579  29.744  -3.457  0.00  0.00     0.139 C 
HETATM   20  O   UNK N   1      27.224  29.613  -2.430  0.00  0.00    -0.650 OA
BRANCH  19  21
HETATM   21  O   UNK N   1      25.874  30.876  -3.658  0.00  0.00    -0.776 OA
HETATM   22  H   UNK N   1      26.000  31.373  -4.443  0.00  0.00     0.167 HD
ENDBRANCH  19  21
ENDBRANCH  18  19
ENDBRANCH  17  18
ENDBRANCH  16  17
ENDBRANCH  15  16
ENDBRANCH  14  15
ENDBRANCH  11  14
TORSDOF 7
ENDMDL
MODEL 5
REMARK VINA RESULT:      -6.2     15.483     16.688
REMARK  7 active torsions:
REMARK  status: ('A' for Active; 'I' for Inactive)
REMARK    1  A    between atoms: C_11  and  C_14 
REMARK    2  A    between atoms: C_14  and  C_15 
REMARK    3  A    between atoms: C_15  and  C_16 
REMARK    4  A    between atoms: C_16  and  C_17 
REMARK    5  A    between atoms: C_17  and  C_18 
REMARK    6  A    between atoms: C_18  and  C_19 
REMARK    7  A    between atoms: C_19  and  O_21 
ROOT
HETATM    1  C   UNK N   1      30.725  22.922  -2.451  0.00  0.00     0.001 A 
HETATM    2  C   UNK N   1      29.561  23.575  -2.864  0.00  0.00     0.016 A 
HETATM    3  C   UNK N   1      29.006  23.300  -4.122  0.00  0.00     0.029 A 
HETATM    4  C   UNK N   1      29.626  22.366  -4.969  0.00  0.00     0.029 A 
HETATM    5  C   UNK N   1      30.794  21.715  -4.547  0.00  0.00     0.016 A 
HETATM    6  C   UNK N   1      31.340  21.993  -3.291  0.00  0.00     0.001 A 
HETATM    7  O   UNK N   1      27.225  24.795  -3.835  0.00  0.00    -0.287 OA
HETATM    8  C   UNK N   1      27.768  23.978  -4.565  0.00  0.00     0.190 A 
HETATM    9  C   UNK N   1      29.033  22.075  -6.292  0.00  0.00     0.189 A 
HETATM   10  C   UNK N   1      27.774  22.751  -6.709  0.00  0.00    -0.001 A 
HETATM   11  C   UNK N   1      27.173  23.653  -5.895  0.00  0.00     0.003 A 
HETATM   12  O   UNK N   1      29.570  21.268  -7.039  0.00  0.00    -0.287 OA
HETATM   13  C   UNK N   1      27.179  22.412  -8.045  0.00  0.00     0.053 C 
ENDROOT
BRANCH  11  14
HETATM   14  C   UNK N   1      25.883  24.319  -6.306  0.00  0.00     0.043 C 
BRANCH  14  15
HETATM   15  C   UNK N   1      26.145  25.664  -6.961  0.00  0.00     0.005 C 
BRANCH  15  16
HETATM   16  C   UNK N   1      25.342  26.752  -6.273  0.00  0.00     0.001 C 
BRANCH  16  17
HETATM   17  C   UNK N   1      26.283  27.757  -5.639  0.00  0.00     0.010 C 
BRANCH  17  18
HETATM   18  C   UNK N   1      25.632  28.372  -4.413  0.00  0.00     0.110 C 
BRANCH  18  19
HETATM   19  C   UNK N   1      26.376  28.033  -3.156  0.00  0.00     0.139 C 
HETATM   20  O   UNK N   1      27.362  28.682  -2.849  0.00  0.00    -0.650 OA
BRANCH  19  21
HETATM   21  O   UNK N   1      25.984  27.010  -2.370  0.00  0.00    -0.776 OA
HETATM   22  H   UNK N   1      25.094  26.957  -2.078  0.00  0.00     0.167 HD
ENDBRANCH  19  21
ENDBRANCH  18  19
ENDBRANCH  17  18
ENDBRANCH  16  17
ENDBRANCH  15  16
ENDBRANCH  14  15
ENDBRANCH  11  14
TORSDOF 7
ENDMDL
MODEL 6
REMARK VINA RESULT:      -6.1     14.901     16.135
REMARK  7 active torsions:
REMARK  status: ('A' for Active; 'I' for Inactive)
REMARK    1  A    between atoms: C_11  and  C_14 
REMARK    2  A    between atoms: C_14  and  C_15 
REMARK    3  A    between atoms: C_15  and  C_16 
REMARK    4  A    between atoms: C_16  and  C_17 
REMARK    5  A    between atoms: C_17  and  C_18 
REMARK    6  A    between atoms: C_18  and  C_19 
REMARK    7  A    between atoms: C_19  and  O_21 
ROOT
HETATM    1  C   UNK N   1      35.164  13.458  18.151  0.00  0.00     0.001 A 
HETATM    2  C   UNK N   1      35.144  13.600  16.762  0.00  0.00     0.016 A 
HETATM    3  C   UNK N   1      35.183  12.467  15.935  0.00  0.00     0.029 A 
HETATM    4  C   UNK N   1      35.245  11.186  16.510  0.00  0.00     0.029 A 
HETATM    5  C   UNK N   1      35.266  11.052  17.906  0.00  0.00     0.016 A 
HETATM    6  C   UNK N   1      35.224  12.186  18.723  0.00  0.00     0.001 A 
HETATM    7  O   UNK N   1      35.101  13.717  13.956  0.00  0.00    -0.287 OA
HETATM    8  C   UNK N   1      35.152  12.606  14.463  0.00  0.00     0.190 A 
HETATM    9  C   UNK N   1      35.280   9.995  15.635  0.00  0.00     0.189 A 
HETATM   10  C   UNK N   1      35.223  10.155  14.156  0.00  0.00    -0.001 A 
HETATM   11  C   UNK N   1      35.164  11.390  13.598  0.00  0.00     0.003 A 
HETATM   12  O   UNK N   1      35.341   8.876  16.127  0.00  0.00    -0.287 OA
HETATM   13  C   UNK N   1      35.229   8.926  13.294  0.00  0.00     0.053 C 
ENDROOT
BRANCH  11  14
HETATM   14  C   UNK N   1      35.080  11.551  12.101  0.00  0.00     0.043 C 
BRANCH  14  15
HETATM   15  C   UNK N   1      36.456  11.460  11.462  0.00  0.00     0.005 C 
BRANCH  15  16
HETATM   16  C   UNK N   1      36.810  12.770  10.782  0.00  0.00     0.001 C 
BRANCH  16  17
HETATM   17  C   UNK N   1      35.545  13.555  10.498  0.00  0.00     0.010 C 
BRANCH  17  18
HETATM   18  C   UNK N   1      35.897  14.895   9.878  0.00  0.00     0.110 C 
BRANCH  18  19
HETATM   19  C   UNK N   1      35.911  15.997  10.895  0.00  0.00     0.139 C 
HETATM   20  O   UNK N   1      35.696  17.144  10.540  0.00  0.00    -0.650 OA
BRANCH  19  21
HETATM   21  O   UNK N   1      36.176  15.742  12.192  0.00  0.00    -0.776 OA
HETATM   22  H   UNK N   1      35.472  15.599  12.795  0.00  0.00     0.167 HD
ENDBRANCH  19  21
ENDBRANCH  18  19
ENDBRANCH  17  18
ENDBRANCH  16  17
ENDBRANCH  15  16
ENDBRANCH  14  15
ENDBRANCH  11  14
TORSDOF 7
ENDMDL
MODEL 7
REMARK VINA RESULT:      -6.0     15.380     19.251
REMARK  7 active torsions:
REMARK  status: ('A' for Active; 'I' for Inactive)
REMARK    1  A    between atoms: C_11  and  C_14 
REMARK    2  A    between atoms: C_14  and  C_15 
REMARK    3  A    between atoms: C_15  and  C_16 
REMARK    4  A    between atoms: C_16  and  C_17 
REMARK    5  A    between atoms: C_17  and  C_18 
REMARK    6  A    between atoms: C_18  and  C_19 
REMARK    7  A    between atoms: C_19  and  O_21 
ROOT
HETATM    1  C   UNK N   1      29.554  29.118  -8.899  0.00  0.00     0.001 A 
HETATM    2  C   UNK N   1      28.720  28.036  -8.608  0.00  0.00     0.016 A 
HETATM    3  C   UNK N   1      27.978  28.017  -7.417  0.00  0.00     0.029 A 
HETATM    4  C   UNK N   1      28.079  29.090  -6.515  0.00  0.00     0.029 A 
HETATM    5  C   UNK N   1      28.920  30.171  -6.814  0.00  0.00     0.016 A 
HETATM    6  C   UNK N   1      29.654  30.184  -8.004  0.00  0.00     0.001 A 
HETATM    7  O   UNK N   1      26.992  25.943  -7.883  0.00  0.00    -0.287 OA
HETATM    8  C   UNK N   1      27.083  26.882  -7.104  0.00  0.00     0.190 A 
HETATM    9  C   UNK N   1      27.291  29.067  -5.264  0.00  0.00     0.189 A 
HETATM   10  C   UNK N   1      26.378  27.926  -4.979  0.00  0.00    -0.001 A 
HETATM   11  C   UNK N   1      26.278  26.889  -5.848  0.00  0.00     0.003 A 
HETATM   12  O   UNK N   1      27.378  29.993  -4.470  0.00  0.00    -0.287 OA
HETATM   13  C   UNK N   1      25.567  27.946  -3.716  0.00  0.00     0.053 C 
ENDROOT
BRANCH  11  14
HETATM   14  C   UNK N   1      25.334  25.746  -5.571  0.00  0.00     0.043 C 
BRANCH  14  15
HETATM   15  C   UNK N   1      26.092  24.444  -5.375  0.00  0.00     0.005 C 
BRANCH  15  16
HETATM   16  C   UNK N   1      26.896  24.490  -4.088  0.00  0.00     0.001 C 
BRANCH  16  17
HETATM   17  C   UNK N   1      28.236  23.814  -4.300  0.00  0.00     0.010 C 
BRANCH  17  18
HETATM   18  C   UNK N   1      29.228  24.294  -3.256  0.00  0.00     0.110 C 
BRANCH  18  19
HETATM   19  C   UNK N   1      30.062  23.171  -2.717  0.00  0.00     0.139 C 
HETATM   20  O   UNK N   1      30.287  23.112  -1.520  0.00  0.00    -0.650 OA
BRANCH  19  21
HETATM   21  O   UNK N   1      30.582  22.235  -3.537  0.00  0.00    -0.776 OA
HETATM   22  H   UNK N   1      31.463  22.320  -3.845  0.00  0.00     0.167 HD
ENDBRANCH  19  21
ENDBRANCH  18  19
ENDBRANCH  17  18
ENDBRANCH  16  17
ENDBRANCH  15  16
ENDBRANCH  14  15
ENDBRANCH  11  14
TORSDOF 7
ENDMDL
MODEL 8
REMARK VINA RESULT:      -5.8     14.182     16.913
REMARK  7 active torsions:
REMARK  status: ('A' for Active; 'I' for Inactive)
REMARK    1  A    between atoms: C_11  and  C_14 
REMARK    2  A    between atoms: C_14  and  C_15 
REMARK    3  A    between atoms: C_15  and  C_16 
REMARK    4  A    between atoms: C_16  and  C_17 
REMARK    5  A    between atoms: C_17  and  C_18 
REMARK    6  A    between atoms: C_18  and  C_19 
REMARK    7  A    between atoms: C_19  and  O_21 
ROOT
HETATM    1  C   UNK N   1      35.075   8.031  19.221  0.00  0.00     0.001 A 
HETATM    2  C   UNK N   1      34.973   8.731  18.016  0.00  0.00     0.016 A 
HETATM    3  C   UNK N   1      35.056  10.132  18.005  0.00  0.00     0.029 A 
HETATM    4  C   UNK N   1      35.240  10.830  19.210  0.00  0.00     0.029 A 
HETATM    5  C   UNK N   1      35.341  10.119  20.415  0.00  0.00     0.016 A 
HETATM    6  C   UNK N   1      35.259   8.724  20.419  0.00  0.00     0.001 A 
HETATM    7  O   UNK N   1      34.797  10.283  15.681  0.00  0.00    -0.287 OA
HETATM    8  C   UNK N   1      34.960  10.882  16.734  0.00  0.00     0.190 A 
HETATM    9  C   UNK N   1      35.333  12.305  19.192  0.00  0.00     0.189 A 
HETATM   10  C   UNK N   1      35.257  13.040  17.899  0.00  0.00    -0.001 A 
HETATM   11  C   UNK N   1      35.080  12.370  16.734  0.00  0.00     0.003 A 
HETATM   12  O   UNK N   1      35.486  12.922  20.238  0.00  0.00    -0.287 OA
HETATM   13  C   UNK N   1      35.386  14.536  17.909  0.00  0.00     0.053 C 
ENDROOT
BRANCH  11  14
HETATM   14  C   UNK N   1      35.029  13.113  15.422  0.00  0.00     0.043 C 
BRANCH  14  15
HETATM   15  C   UNK N   1      36.400  13.170  14.771  0.00  0.00     0.005 C 
BRANCH  15  16
HETATM   16  C   UNK N   1      36.265  13.307  13.266  0.00  0.00     0.001 C 
BRANCH  16  17
HETATM   17  C   UNK N   1      35.981  14.752  12.909  0.00  0.00     0.010 C 
BRANCH  17  18
HETATM   18  C   UNK N   1      36.112  14.949  11.409  0.00  0.00     0.110 C 
BRANCH  18  19
HETATM   19  C   UNK N   1      34.779  14.916  10.722  0.00  0.00     0.139 C 
HETATM   20  O   UNK N   1      34.729  15.001   9.507  0.00  0.00    -0.650 OA
BRANCH  19  21
HETATM   21  O   UNK N   1      33.635  14.811  11.428  0.00  0.00    -0.776 OA
HETATM   22  H   UNK N   1      32.964  14.219  11.149  0.00  0.00     0.167 HD
ENDBRANCH  19  21
ENDBRANCH  18  19
ENDBRANCH  17  18
ENDBRANCH  16  17
ENDBRANCH  15  16
ENDBRANCH  14  15
ENDBRANCH  11  14
TORSDOF 7
ENDMDL
MODEL 9
REMARK VINA RESULT:      -5.8     14.796     17.128
REMARK  7 active torsions:
REMARK  status: ('A' for Active; 'I' for Inactive)
REMARK    1  A    between atoms: C_11  and  C_14 
REMARK    2  A    between atoms: C_14  and  C_15 
REMARK    3  A    between atoms: C_15  and  C_16 
REMARK    4  A    between atoms: C_16  and  C_17 
REMARK    5  A    between atoms: C_17  and  C_18 
REMARK    6  A    between atoms: C_18  and  C_19 
REMARK    7  A    between atoms: C_19  and  O_21 
ROOT
HETATM    1  C   UNK N   1      31.329  23.218  -3.262  0.00  0.00     0.001 A 
HETATM    2  C   UNK N   1      30.976  24.042  -4.333  0.00  0.00     0.016 A 
HETATM    3  C   UNK N   1      29.643  24.442  -4.507  0.00  0.00     0.029 A 
HETATM    4  C   UNK N   1      28.661  24.010  -3.599  0.00  0.00     0.029 A 
HETATM    5  C   UNK N   1      29.024  23.182  -2.526  0.00  0.00     0.016 A 
HETATM    6  C   UNK N   1      30.355  22.790  -2.359  0.00  0.00     0.001 A 
HETATM    7  O   UNK N   1      30.107  25.701  -6.427  0.00  0.00    -0.287 OA
HETATM    8  C   UNK N   1      29.260  25.323  -5.631  0.00  0.00     0.190 A 
HETATM    9  C   UNK N   1      27.258  24.440  -3.782  0.00  0.00     0.189 A 
HETATM   10  C   UNK N   1      26.898  25.345  -4.908  0.00  0.00    -0.001 A 
HETATM   11  C   UNK N   1      27.842  25.764  -5.785  0.00  0.00     0.003 A 
HETATM   12  O   UNK N   1      26.395  24.062  -3.001  0.00  0.00    -0.287 OA
HETATM   13  C   UNK N   1      25.471  25.789  -5.050  0.00  0.00     0.053 C 
ENDROOT
BRANCH  11  14
HETATM   14  C   UNK N   1      27.482  26.703  -6.910  0.00  0.00     0.043 C 
BRANCH  14  15
HETATM   15  C   UNK N   1      27.338  25.954  -8.224  0.00  0.00     0.005 C 
BRANCH  15  16
HETATM   16  C   UNK N   1      25.891  25.965  -8.681  0.00  0.00     0.001 C 
BRANCH  16  17
HETATM   17  C   UNK N   1      25.499  24.582  -9.164  0.00  0.00     0.010 C 
BRANCH  17  18
HETATM   18  C   UNK N   1      25.625  23.583  -8.028  0.00  0.00     0.110 C 
BRANCH  18  19
HETATM   19  C   UNK N   1      25.012  22.259  -8.376  0.00  0.00     0.139 C 
HETATM   20  O   UNK N   1      25.654  21.456  -9.031  0.00  0.00    -0.650 OA
BRANCH  19  21
HETATM   21  O   UNK N   1      23.757  21.951  -7.992  0.00  0.00    -0.776 OA
HETATM   22  H   UNK N   1      23.466  21.060  -8.012  0.00  0.00     0.167 HD
ENDBRANCH  19  21
ENDBRANCH  18  19
ENDBRANCH  17  18
ENDBRANCH  16  17
ENDBRANCH  15  16
ENDBRANCH  14  15
ENDBRANCH  11  14
TORSDOF 7
ENDMDL
