MODEL 1
REMARK VINA RESULT:      -8.6      0.000      0.000
REMARK  4 active torsions:
REMARK  status: ('A' for Active; 'I' for Inactive)
REMARK    1  A    between atoms: C_2  and  O_1 
REMARK    2  A    between atoms: C_19  and  O_20 
REMARK    3  A    between atoms: C_28  and  C_29 
REMARK    4  A    between atoms: C_29  and  O_30 
ROOT
HETATM    1  C   UNK N   1      26.466  20.007   4.669  0.00  0.00     0.171 C 
HETATM    2  C   UNK N   1      26.500  18.669   3.973  0.00  0.00     0.003 C 
HETATM    3  C   UNK N   1      27.553  17.851   3.852  0.00  0.00    -0.025 C 
HETATM    4  C   UNK N   1      28.919  18.155   4.377  0.00  0.00     0.061 C 
HETATM    5  C   UNK N   1      29.150  17.540   5.761  0.00  0.00     0.158 C 
HETATM    6  O   UNK N   1      30.526  17.633   6.052  0.00  0.00    -0.374 OA
HETATM    7  C   UNK N   1      30.897  16.600   6.955  0.00  0.00     0.157 C 
HETATM    8  C   UNK N   1      32.149  15.890   6.458  0.00  0.00     0.069 C 
HETATM    9  C   UNK N   1      33.342  16.839   6.521  0.00  0.00     0.156 C 
HETATM   10  O   UNK N   1      34.547  16.208   6.101  0.00  0.00    -0.375 OA
HETATM   11  C   UNK N   1      34.972  15.201   7.011  0.00  0.00     0.157 C 
HETATM   12  C   UNK N   1      36.197  14.503   6.412  0.00  0.00     0.061 C 
HETATM   13  C   UNK N   1      36.655  13.241   7.120  0.00  0.00    -0.026 C 
HETATM   14  C   UNK N   1      36.301  12.857   8.359  0.00  0.00    -0.005 C 
HETATM   15  C   UNK N   1      35.388  13.661   9.232  0.00  0.00     0.195 C 
HETATM   16  O   UNK N   1      35.896  14.964   9.353  0.00  0.00    -0.377 OA
HETATM   17  C   UNK N   1      35.308  15.838   8.396  0.00  0.00     0.182 C 
HETATM   18  C   UNK N   1      34.031  16.475   8.961  0.00  0.00     0.181 C 
HETATM   19  C   UNK N   1      33.466  17.476   7.927  0.00  0.00     0.182 C 
HETATM   20  O   UNK N   1      32.245  18.094   8.346  0.00  0.00    -0.369 OA
HETATM   21  C   UNK N   1      31.140  17.194   8.334  0.00  0.00     0.173 C 
HETATM   22  C   UNK N   1      29.913  17.885   8.884  0.00  0.00     0.006 C 
HETATM   23  C   UNK N   1      28.760  18.257   8.283  0.00  0.00     0.006 C 
HETATM   24  C   UNK N   1      28.275  18.239   6.838  0.00  0.00     0.174 C 
HETATM   25  O   UNK N   1      28.066  19.595   6.474  0.00  0.00    -0.369 OA
HETATM   26  C   UNK N   1      26.704  19.905   6.193  0.00  0.00     0.178 C 
ENDROOT
BRANCH  26  27
HETATM   27  C   UNK N   1      26.392  21.240   6.861  0.00  0.00     0.199 C 
BRANCH  27  28
HETATM   28  O   UNK N   1      25.903  21.030   8.152  0.00  0.00    -0.398 OA
HETATM   29  H   UNK N   1      26.385  20.531   8.829  0.00  0.00     0.209 HD
ENDBRANCH  27  28
ENDBRANCH  26  27
BRANCH   1  30
HETATM   30  O   UNK N   1      25.195  20.541   4.441  0.00  0.00    -0.389 OA
HETATM   31  H   UNK N   1      24.598  20.720   5.184  0.00  0.00     0.210 HD
ENDBRANCH   1  30
BRANCH  18  32
HETATM   32  O   UNK N   1      34.311  17.138  10.159  0.00  0.00    -0.390 OA
HETATM   33  H   UNK N   1      34.961  16.806  10.799  0.00  0.00     0.210 HD
ENDBRANCH  18  32
TORSDOF 4
ENDMDL
MODEL 2
REMARK VINA RESULT:      -7.8      3.656      9.416
REMARK  4 active torsions:
REMARK  status: ('A' for Active; 'I' for Inactive)
REMARK    1  A    between atoms: C_2  and  O_1 
REMARK    2  A    between atoms: C_19  and  O_20 
REMARK    3  A    between atoms: C_28  and  C_29 
REMARK    4  A    between atoms: C_29  and  O_30 
ROOT
HETATM    1  C   UNK N   1      36.863  11.715  13.744  0.00  0.00     0.171 C 
HETATM    2  C   UNK N   1      37.442  11.076  12.505  0.00  0.00     0.003 C 
HETATM    3  C   UNK N   1      36.918  11.087  11.273  0.00  0.00    -0.025 C 
HETATM    4  C   UNK N   1      35.614  11.728  10.920  0.00  0.00     0.061 C 
HETATM    5  C   UNK N   1      35.803  13.150  10.382  0.00  0.00     0.158 C 
HETATM    6  O   UNK N   1      34.579  13.567   9.820  0.00  0.00    -0.374 OA
HETATM    7  C   UNK N   1      34.819  14.539   8.812  0.00  0.00     0.157 C 
HETATM    8  C   UNK N   1      34.044  14.190   7.549  0.00  0.00     0.069 C 
HETATM    9  C   UNK N   1      32.547  14.330   7.804  0.00  0.00     0.156 C 
HETATM   10  O   UNK N   1      31.779  14.052   6.638  0.00  0.00    -0.375 OA
HETATM   11  C   UNK N   1      31.960  15.034   5.627  0.00  0.00     0.157 C 
HETATM   12  C   UNK N   1      31.197  14.582   4.379  0.00  0.00     0.061 C 
HETATM   13  C   UNK N   1      31.460  15.377   3.114  0.00  0.00    -0.026 C 
HETATM   14  C   UNK N   1      32.035  16.590   3.049  0.00  0.00    -0.005 C 
HETATM   15  C   UNK N   1      32.493  17.342   4.259  0.00  0.00     0.195 C 
HETATM   16  O   UNK N   1      31.423  17.461   5.160  0.00  0.00    -0.377 OA
HETATM   17  C   UNK N   1      31.446  16.421   6.130  0.00  0.00     0.182 C 
HETATM   18  C   UNK N   1      32.282  16.836   7.348  0.00  0.00     0.181 C 
HETATM   19  C   UNK N   1      32.218  15.716   8.412  0.00  0.00     0.182 C 
HETATM   20  O   UNK N   1      33.006  15.994   9.574  0.00  0.00    -0.369 OA
HETATM   21  C   UNK N   1      34.407  15.911   9.322  0.00  0.00     0.173 C 
HETATM   22  C   UNK N   1      35.172  16.316  10.561  0.00  0.00     0.006 C 
HETATM   23  C   UNK N   1      35.956  15.594  11.395  0.00  0.00     0.006 C 
HETATM   24  C   UNK N   1      36.292  14.112  11.499  0.00  0.00     0.174 C 
HETATM   25  O   UNK N   1      35.789  13.679  12.754  0.00  0.00    -0.369 OA
HETATM   26  C   UNK N   1      36.804  13.258  13.660  0.00  0.00     0.178 C 
ENDROOT
BRANCH  26  27
HETATM   27  C   UNK N   1      36.467  13.842  15.028  0.00  0.00     0.199 C 
BRANCH  27  28
HETATM   28  O   UNK N   1      37.599  14.432  15.592  0.00  0.00    -0.398 OA
HETATM   29  H   UNK N   1      38.135  15.099  15.135  0.00  0.00     0.209 HD
ENDBRANCH  27  28
ENDBRANCH  26  27
BRANCH   1  30
HETATM   30  O   UNK N   1      37.693  11.347  14.805  0.00  0.00    -0.389 OA
HETATM   31  H   UNK N   1      37.774  10.416  15.065  0.00  0.00     0.210 HD
ENDBRANCH   1  30
BRANCH  18  32
HETATM   32  O   UNK N   1      31.792  18.030   7.885  0.00  0.00    -0.390 OA
HETATM   33  H   UNK N   1      31.966  18.300   8.801  0.00  0.00     0.210 HD
ENDBRANCH  18  32
TORSDOF 4
ENDMDL
MODEL 3
REMARK VINA RESULT:      -7.7      1.788      2.307
REMARK  4 active torsions:
REMARK  status: ('A' for Active; 'I' for Inactive)
REMARK    1  A    between atoms: C_2  and  O_1 
REMARK    2  A    between atoms: C_19  and  O_20 
REMARK    3  A    between atoms: C_28  and  C_29 
REMARK    4  A    between atoms: C_29  and  O_30 
ROOT
HETATM    1  C   UNK N   1      27.432  17.532   4.030  0.00  0.00     0.171 C 
HETATM    2  C   UNK N   1      27.256  16.059   4.308  0.00  0.00     0.003 C 
HETATM    3  C   UNK N   1      28.196  15.201   4.726  0.00  0.00    -0.025 C 
HETATM    4  C   UNK N   1      29.625  15.569   4.964  0.00  0.00     0.061 C 
HETATM    5  C   UNK N   1      29.892  15.904   6.435  0.00  0.00     0.158 C 
HETATM    6  O   UNK N   1      31.289  15.963   6.619  0.00  0.00    -0.374 OA
HETATM    7  C   UNK N   1      31.609  15.659   7.969  0.00  0.00     0.157 C 
HETATM    8  C   UNK N   1      32.728  14.628   8.026  0.00  0.00     0.069 C 
HETATM    9  C   UNK N   1      34.023  15.239   7.501  0.00  0.00     0.156 C 
HETATM   10  O   UNK N   1      35.110  14.323   7.571  0.00  0.00    -0.375 OA
HETATM   11  C   UNK N   1      35.487  14.036   8.911  0.00  0.00     0.157 C 
HETATM   12  C   UNK N   1      36.572  12.955   8.882  0.00  0.00     0.061 C 
HETATM   13  C   UNK N   1      36.936  12.342  10.221  0.00  0.00    -0.026 C 
HETATM   14  C   UNK N   1      36.641  12.850  11.429  0.00  0.00    -0.005 C 
HETATM   15  C   UNK N   1      35.898  14.137  11.613  0.00  0.00     0.195 C 
HETATM   16  O   UNK N   1      36.560  15.156  10.909  0.00  0.00    -0.377 OA
HETATM   17  C   UNK N   1      36.003  15.333   9.612  0.00  0.00     0.182 C 
HETATM   18  C   UNK N   1      34.857  16.352   9.652  0.00  0.00     0.181 C 
HETATM   19  C   UNK N   1      34.331  16.578   8.215  0.00  0.00     0.182 C 
HETATM   20  O   UNK N   1      33.226  17.486   8.154  0.00  0.00    -0.369 OA
HETATM   21  C   UNK N   1      32.027  16.932   8.690  0.00  0.00     0.173 C 
HETATM   22  C   UNK N   1      30.936  17.977   8.687  0.00  0.00     0.006 C 
HETATM   23  C   UNK N   1      29.788  18.060   7.974  0.00  0.00     0.006 C 
HETATM   24  C   UNK N   1      29.192  17.229   6.844  0.00  0.00     0.174 C 
HETATM   25  O   UNK N   1      29.112  18.092   5.719  0.00  0.00    -0.369 OA
HETATM   26  C   UNK N   1      27.777  18.351   5.295  0.00  0.00     0.178 C 
ENDROOT
BRANCH  26  27
HETATM   27  C   UNK N   1      27.675  19.843   4.994  0.00  0.00     0.199 C 
BRANCH  27  28
HETATM   28  O   UNK N   1      27.922  20.079   3.640  0.00  0.00    -0.398 OA
HETATM   29  H   UNK N   1      28.814  20.116   3.261  0.00  0.00     0.209 HD
ENDBRANCH  27  28
ENDBRANCH  26  27
BRANCH   1  30
HETATM   30  O   UNK N   1      26.217  17.985   3.510  0.00  0.00    -0.389 OA
HETATM   31  H   UNK N   1      25.453  17.390   3.459  0.00  0.00     0.210 HD
ENDBRANCH   1  30
BRANCH  18  32
HETATM   32  O   UNK N   1      35.306  17.562  10.188  0.00  0.00    -0.390 OA
HETATM   33  H   UNK N   1      34.736  18.140  10.720  0.00  0.00     0.210 HD
ENDBRANCH  18  32
TORSDOF 4
ENDMDL
MODEL 4
REMARK VINA RESULT:      -7.7      1.472      8.684
REMARK  4 active torsions:
REMARK  status: ('A' for Active; 'I' for Inactive)
REMARK    1  A    between atoms: C_2  and  O_1 
REMARK    2  A    between atoms: C_19  and  O_20 
REMARK    3  A    between atoms: C_28  and  C_29 
REMARK    4  A    between atoms: C_29  and  O_30 
ROOT
HETATM    1  C   UNK N   1      36.637  13.299   7.639  0.00  0.00     0.171 C 
HETATM    2  C   UNK N   1      36.723  13.778   6.211  0.00  0.00     0.003 C 
HETATM    3  C   UNK N   1      35.719  14.240   5.454  0.00  0.00    -0.025 C 
HETATM    4  C   UNK N   1      34.297  14.328   5.907  0.00  0.00     0.061 C 
HETATM    5  C   UNK N   1      33.955  15.721   6.446  0.00  0.00     0.158 C 
HETATM    6  O   UNK N   1      32.553  15.799   6.584  0.00  0.00    -0.374 OA
HETATM    7  C   UNK N   1      32.135  17.152   6.477  0.00  0.00     0.157 C 
HETATM    8  C   UNK N   1      30.966  17.267   5.507  0.00  0.00     0.069 C 
HETATM    9  C   UNK N   1      29.738  16.579   6.093  0.00  0.00     0.156 C 
HETATM   10  O   UNK N   1      28.605  16.693   5.238  0.00  0.00    -0.375 OA
HETATM   11  C   UNK N   1      28.131  18.030   5.148  0.00  0.00     0.157 C 
HETATM   12  C   UNK N   1      26.999  18.067   4.117  0.00  0.00     0.061 C 
HETATM   13  C   UNK N   1      26.522  19.447   3.703  0.00  0.00    -0.026 C 
HETATM   14  C   UNK N   1      26.765  20.596   4.356  0.00  0.00    -0.005 C 
HETATM   15  C   UNK N   1      27.556  20.660   5.626  0.00  0.00     0.195 C 
HETATM   16  O   UNK N   1      26.990  19.785   6.567  0.00  0.00    -0.377 OA
HETATM   17  C   UNK N   1      27.635  18.518   6.546  0.00  0.00     0.182 C 
HETATM   18  C   UNK N   1      28.825  18.503   7.516  0.00  0.00     0.181 C 
HETATM   19  C   UNK N   1      29.451  17.089   7.527  0.00  0.00     0.182 C 
HETATM   20  O   UNK N   1      30.600  16.985   8.374  0.00  0.00    -0.369 OA
HETATM   21  C   UNK N   1      31.734  17.671   7.849  0.00  0.00     0.173 C 
HETATM   22  C   UNK N   1      32.873  17.605   8.841  0.00  0.00     0.006 C 
HETATM   23  C   UNK N   1      34.065  16.969   8.782  0.00  0.00     0.006 C 
HETATM   24  C   UNK N   1      34.691  16.000   7.785  0.00  0.00     0.174 C 
HETATM   25  O   UNK N   1      34.883  14.781   8.486  0.00  0.00    -0.369 OA
HETATM   26  C   UNK N   1      36.253  14.419   8.633  0.00  0.00     0.178 C 
ENDROOT
BRANCH  26  27
HETATM   27  C   UNK N   1      36.446  13.934  10.066  0.00  0.00     0.199 C 
BRANCH  27  28
HETATM   28  O   UNK N   1      37.696  14.332  10.545  0.00  0.00    -0.398 OA
HETATM   29  H   UNK N   1      38.517  14.230  10.040  0.00  0.00     0.209 HD
ENDBRANCH  27  28
ENDBRANCH  26  27
BRANCH   1  30
HETATM   30  O   UNK N   1      37.903  12.809   7.970  0.00  0.00    -0.389 OA
HETATM   31  H   UNK N   1      38.603  12.768   7.301  0.00  0.00     0.210 HD
ENDBRANCH   1  30
BRANCH  18  32
HETATM   32  O   UNK N   1      28.402  18.845   8.804  0.00  0.00    -0.390 OA
HETATM   33  H   UNK N   1      27.899  19.653   8.990  0.00  0.00     0.210 HD
ENDBRANCH  18  32
TORSDOF 4
ENDMDL
MODEL 5
REMARK VINA RESULT:      -7.6      3.956     10.237
REMARK  4 active torsions:
REMARK  status: ('A' for Active; 'I' for Inactive)
REMARK    1  A    between atoms: C_2  and  O_1 
REMARK    2  A    between atoms: C_19  and  O_20 
REMARK    3  A    between atoms: C_28  and  C_29 
REMARK    4  A    between atoms: C_29  and  O_30 
ROOT
HETATM    1  C   UNK N   1      35.930   9.047  14.038  0.00  0.00     0.171 C 
HETATM    2  C   UNK N   1      35.323   8.390  12.822  0.00  0.00     0.003 C 
HETATM    3  C   UNK N   1      34.558   8.973  11.891  0.00  0.00    -0.025 C 
HETATM    4  C   UNK N   1      34.139  10.408  11.922  0.00  0.00     0.061 C 
HETATM    5  C   UNK N   1      35.071  11.293  11.089  0.00  0.00     0.158 C 
HETATM    6  O   UNK N   1      34.456  12.554  10.945  0.00  0.00    -0.374 OA
HETATM    7  C   UNK N   1      34.911  13.177   9.752  0.00  0.00     0.157 C 
HETATM    8  C   UNK N   1      33.730  13.710   8.953  0.00  0.00     0.069 C 
HETATM    9  C   UNK N   1      33.072  14.861   9.706  0.00  0.00     0.156 C 
HETATM   10  O   UNK N   1      31.982  15.420   8.980  0.00  0.00    -0.375 OA
HETATM   11  C   UNK N   1      32.409  16.094   7.803  0.00  0.00     0.157 C 
HETATM   12  C   UNK N   1      31.165  16.548   7.034  0.00  0.00     0.061 C 
HETATM   13  C   UNK N   1      31.406  17.076   5.632  0.00  0.00    -0.026 C 
HETATM   14  C   UNK N   1      32.589  17.468   5.128  0.00  0.00    -0.005 C 
HETATM   15  C   UNK N   1      33.861  17.442   5.917  0.00  0.00     0.195 C 
HETATM   16  O   UNK N   1      33.680  18.167   7.106  0.00  0.00    -0.377 OA
HETATM   17  C   UNK N   1      33.312  17.311   8.181  0.00  0.00     0.182 C 
HETATM   18  C   UNK N   1      34.560  16.785   8.903  0.00  0.00     0.181 C 
HETATM   19  C   UNK N   1      34.120  15.926  10.112  0.00  0.00     0.182 C 
HETATM   20  O   UNK N   1      35.219  15.352  10.828  0.00  0.00    -0.369 OA
HETATM   21  C   UNK N   1      35.865  14.309  10.102  0.00  0.00     0.173 C 
HETATM   22  C   UNK N   1      37.072  13.824  10.871  0.00  0.00     0.006 C 
HETATM   23  C   UNK N   1      37.318  12.643  11.483  0.00  0.00     0.006 C 
HETATM   24  C   UNK N   1      36.477  11.398  11.741  0.00  0.00     0.174 C 
HETATM   25  O   UNK N   1      36.357  11.287  13.151  0.00  0.00    -0.369 OA
HETATM   26  C   UNK N   1      36.982  10.124  13.686  0.00  0.00     0.178 C 
ENDROOT
BRANCH  26  27
HETATM   27  C   UNK N   1      37.736  10.547  14.942  0.00  0.00     0.199 C 
BRANCH  27  28
HETATM   28  O   UNK N   1      36.846  10.714  16.005  0.00  0.00    -0.398 OA
HETATM   29  H   UNK N   1      36.547   9.983  16.568  0.00  0.00     0.209 HD
ENDBRANCH  27  28
ENDBRANCH  26  27
BRANCH   1  30
HETATM   30  O   UNK N   1      36.547   8.030  14.772  0.00  0.00    -0.389 OA
HETATM   31  H   UNK N   1      36.418   7.101  14.525  0.00  0.00     0.210 HD
ENDBRANCH   1  30
BRANCH  18  32
HETATM   32  O   UNK N   1      35.350  17.852   9.342  0.00  0.00    -0.390 OA
HETATM   33  H   UNK N   1      35.992  17.763  10.064  0.00  0.00     0.210 HD
ENDBRANCH  18  32
TORSDOF 4
ENDMDL
MODEL 6
REMARK VINA RESULT:      -7.5      4.202      9.090
REMARK  4 active torsions:
REMARK  status: ('A' for Active; 'I' for Inactive)
REMARK    1  A    between atoms: C_2  and  O_1 
REMARK    2  A    between atoms: C_19  and  O_20 
REMARK    3  A    between atoms: C_28  and  C_29 
REMARK    4  A    between atoms: C_29  and  O_30 
ROOT
HETATM    1  C   UNK N   1      33.432  17.023   6.002  0.00  0.00     0.171 C 
HETATM    2  C   UNK N   1      33.219  17.670   4.655  0.00  0.00     0.003 C 
HETATM    3  C   UNK N   1      32.304  17.335   3.736  0.00  0.00    -0.025 C 
HETATM    4  C   UNK N   1      31.334  16.207   3.888  0.00  0.00     0.061 C 
HETATM    5  C   UNK N   1      29.983  16.684   4.430  0.00  0.00     0.158 C 
HETATM    6  O   UNK N   1      29.059  15.630   4.277  0.00  0.00    -0.374 OA
HETATM    7  C   UNK N   1      27.744  16.155   4.170  0.00  0.00     0.157 C 
HETATM    8  C   UNK N   1      27.020  15.526   2.988  0.00  0.00     0.069 C 
HETATM    9  C   UNK N   1      26.771  14.046   3.261  0.00  0.00     0.156 C 
HETATM   10  O   UNK N   1      26.060  13.420   2.198  0.00  0.00    -0.375 OA
HETATM   11  C   UNK N   1      24.723  13.890   2.095  0.00  0.00     0.157 C 
HETATM   12  C   UNK N   1      24.087  13.253   0.855  0.00  0.00     0.061 C 
HETATM   13  C   UNK N   1      22.740  13.812   0.438  0.00  0.00    -0.026 C 
HETATM   14  C   UNK N   1      21.928  14.567   1.197  0.00  0.00    -0.005 C 
HETATM   15  C   UNK N   1      22.257  14.956   2.605  0.00  0.00     0.195 C 
HETATM   16  O   UNK N   1      22.530  13.798   3.351  0.00  0.00    -0.377 OA
HETATM   17  C   UNK N   1      23.925  13.524   3.387  0.00  0.00     0.182 C 
HETATM   18  C   UNK N   1      24.583  14.231   4.580  0.00  0.00     0.181 C 
HETATM   19  C   UNK N   1      26.080  13.847   4.633  0.00  0.00     0.182 C 
HETATM   20  O   UNK N   1      26.793  14.493   5.692  0.00  0.00    -0.369 OA
HETATM   21  C   UNK N   1      26.982  15.887   5.459  0.00  0.00     0.173 C 
HETATM   22  C   UNK N   1      27.647  16.519   6.660  0.00  0.00     0.006 C 
HETATM   23  C   UNK N   1      28.879  17.057   6.811  0.00  0.00     0.006 C 
HETATM   24  C   UNK N   1      30.103  17.148   5.907  0.00  0.00     0.174 C 
HETATM   25  O   UNK N   1      31.129  16.410   6.555  0.00  0.00    -0.369 OA
HETATM   26  C   UNK N   1      32.235  17.210   6.962  0.00  0.00     0.178 C 
ENDROOT
BRANCH  26  27
HETATM   27  C   UNK N   1      32.623  16.772   8.370  0.00  0.00     0.199 C 
BRANCH  27  28
HETATM   28  O   UNK N   1      33.204  17.837   9.062  0.00  0.00    -0.398 OA
HETATM   29  H   UNK N   1      33.466  18.668   8.637  0.00  0.00     0.209 HD
ENDBRANCH  27  28
ENDBRANCH  26  27
BRANCH   1  30
HETATM   30  O   UNK N   1      34.562  17.627   6.558  0.00  0.00    -0.389 OA
HETATM   31  H   UNK N   1      35.416  17.166   6.556  0.00  0.00     0.210 HD
ENDBRANCH   1  30
BRANCH  18  32
HETATM   32  O   UNK N   1      23.954  13.855   5.770  0.00  0.00    -0.390 OA
HETATM   33  H   UNK N   1      23.645  14.502   6.424  0.00  0.00     0.210 HD
ENDBRANCH  18  32
TORSDOF 4
ENDMDL
MODEL 7
REMARK VINA RESULT:      -7.5     11.561     15.896
REMARK  4 active torsions:
REMARK  status: ('A' for Active; 'I' for Inactive)
REMARK    1  A    between atoms: C_2  and  O_1 
REMARK    2  A    between atoms: C_19  and  O_20 
REMARK    3  A    between atoms: C_28  and  C_29 
REMARK    4  A    between atoms: C_29  and  O_30 
ROOT
HETATM    1  C   UNK N   1      35.039  20.382  -5.370  0.00  0.00     0.171 C 
HETATM    2  C   UNK N   1      35.677  21.723  -5.102  0.00  0.00     0.003 C 
HETATM    3  C   UNK N   1      35.104  22.927  -5.224  0.00  0.00    -0.025 C 
HETATM    4  C   UNK N   1      33.701  23.147  -5.691  0.00  0.00     0.061 C 
HETATM    5  C   UNK N   1      32.722  23.279  -4.520  0.00  0.00     0.158 C 
HETATM    6  O   UNK N   1      31.497  23.756  -5.031  0.00  0.00    -0.374 OA
HETATM    7  C   UNK N   1      30.794  24.459  -4.016  0.00  0.00     0.157 C 
HETATM    8  C   UNK N   1      30.302  25.798  -4.547  0.00  0.00     0.069 C 
HETATM    9  C   UNK N   1      29.229  25.572  -5.607  0.00  0.00     0.156 C 
HETATM   10  O   UNK N   1      28.708  26.799  -6.108  0.00  0.00    -0.375 OA
HETATM   11  C   UNK N   1      27.956  27.504  -5.129  0.00  0.00     0.157 C 
HETATM   12  C   UNK N   1      27.548  28.856  -5.722  0.00  0.00     0.061 C 
HETATM   13  C   UNK N   1      26.944  29.853  -4.751  0.00  0.00    -0.026 C 
HETATM   14  C   UNK N   1      26.457  29.571  -3.530  0.00  0.00    -0.005 C 
HETATM   15  C   UNK N   1      26.438  28.188  -2.960  0.00  0.00     0.195 C 
HETATM   16  O   UNK N   1      25.779  27.329  -3.854  0.00  0.00    -0.377 OA
HETATM   17  C   UNK N   1      26.703  26.671  -4.713  0.00  0.00     0.182 C 
HETATM   18  C   UNK N   1      27.181  25.355  -4.084  0.00  0.00     0.181 C 
HETATM   19  C   UNK N   1      28.119  24.631  -5.077  0.00  0.00     0.182 C 
HETATM   20  O   UNK N   1      28.654  23.408  -4.561  0.00  0.00    -0.369 OA
HETATM   21  C   UNK N   1      29.621  23.618  -3.535  0.00  0.00     0.173 C 
HETATM   22  C   UNK N   1      30.062  22.288  -2.970  0.00  0.00     0.006 C 
HETATM   23  C   UNK N   1      31.252  21.647  -3.036  0.00  0.00     0.006 C 
HETATM   24  C   UNK N   1      32.557  21.929  -3.771  0.00  0.00     0.174 C 
HETATM   25  O   UNK N   1      32.738  20.855  -4.681  0.00  0.00    -0.369 OA
HETATM   26  C   UNK N   1      33.883  20.055  -4.398  0.00  0.00     0.178 C 
ENDROOT
BRANCH  26  27
HETATM   27  C   UNK N   1      33.470  18.595  -4.551  0.00  0.00     0.199 C 
BRANCH  27  28
HETATM   28  O   UNK N   1      33.940  17.845  -3.472  0.00  0.00    -0.398 OA
HETATM   29  H   UNK N   1      34.852  17.521  -3.407  0.00  0.00     0.209 HD
ENDBRANCH  27  28
ENDBRANCH  26  27
BRANCH   1  30
HETATM   30  O   UNK N   1      36.046  19.426  -5.221  0.00  0.00    -0.389 OA
HETATM   31  H   UNK N   1      36.221  18.784  -5.926  0.00  0.00     0.210 HD
ENDBRANCH   1  30
BRANCH  18  32
HETATM   32  O   UNK N   1      26.088  24.539  -3.782  0.00  0.00    -0.390 OA
HETATM   33  H   UNK N   1      25.653  24.548  -2.914  0.00  0.00     0.210 HD
ENDBRANCH  18  32
TORSDOF 4
ENDMDL
MODEL 8
REMARK VINA RESULT:      -7.3      5.017      8.603
REMARK  4 active torsions:
REMARK  status: ('A' for Active; 'I' for Inactive)
REMARK    1  A    between atoms: C_2  and  O_1 
REMARK    2  A    between atoms: C_19  and  O_20 
REMARK    3  A    between atoms: C_28  and  C_29 
REMARK    4  A    between atoms: C_29  and  O_30 
ROOT
HETATM    1  C   UNK N   1      20.107  14.141   0.726  0.00  0.00     0.171 C 
HETATM    2  C   UNK N   1      20.433  13.149   1.816  0.00  0.00     0.003 C 
HETATM    3  C   UNK N   1      21.540  13.115   2.568  0.00  0.00    -0.025 C 
HETATM    4  C   UNK N   1      22.685  14.066   2.425  0.00  0.00     0.061 C 
HETATM    5  C   UNK N   1      22.579  15.240   3.403  0.00  0.00     0.158 C 
HETATM    6  O   UNK N   1      23.814  15.921   3.397  0.00  0.00    -0.374 OA
HETATM    7  C   UNK N   1      24.006  16.579   4.641  0.00  0.00     0.157 C 
HETATM    8  C   UNK N   1      25.397  16.284   5.184  0.00  0.00     0.069 C 
HETATM    9  C   UNK N   1      26.450  16.933   4.293  0.00  0.00     0.156 C 
HETATM   10  O   UNK N   1      27.770  16.717   4.782  0.00  0.00    -0.375 OA
HETATM   11  C   UNK N   1      28.010  17.403   6.004  0.00  0.00     0.157 C 
HETATM   12  C   UNK N   1      29.401  17.009   6.508  0.00  0.00     0.061 C 
HETATM   13  C   UNK N   1      29.747  17.451   7.918  0.00  0.00    -0.026 C 
HETATM   14  C   UNK N   1      29.103  18.389   8.632  0.00  0.00    -0.005 C 
HETATM   15  C   UNK N   1      27.928  19.151   8.105  0.00  0.00     0.195 C 
HETATM   16  O   UNK N   1      28.280  19.757   6.888  0.00  0.00    -0.377 OA
HETATM   17  C   UNK N   1      27.907  18.945   5.781  0.00  0.00     0.182 C 
HETATM   18  C   UNK N   1      26.479  19.276   5.326  0.00  0.00     0.181 C 
HETATM   19  C   UNK N   1      26.139  18.434   4.074  0.00  0.00     0.182 C 
HETATM   20  O   UNK N   1      24.805  18.642   3.598  0.00  0.00    -0.369 OA
HETATM   21  C   UNK N   1      23.819  18.077   4.457  0.00  0.00     0.173 C 
HETATM   22  C   UNK N   1      22.439  18.424   3.947  0.00  0.00     0.006 C 
HETATM   23  C   UNK N   1      21.466  17.645   3.421  0.00  0.00     0.006 C 
HETATM   24  C   UNK N   1      21.394  16.173   3.033  0.00  0.00     0.174 C 
HETATM   25  O   UNK N   1      21.186  16.144   1.629  0.00  0.00    -0.369 OA
HETATM   26  C   UNK N   1      19.931  15.584   1.251  0.00  0.00     0.178 C 
ENDROOT
BRANCH  26  27
HETATM   27  C   UNK N   1      19.347  16.470   0.156  0.00  0.00     0.199 C 
BRANCH  27  28
HETATM   28  O   UNK N   1      20.243  17.491  -0.166  0.00  0.00    -0.398 OA
HETATM   29  H   UNK N   1      21.156  17.520   0.159  0.00  0.00     0.209 HD
ENDBRANCH  27  28
ENDBRANCH  26  27
BRANCH   1  30
HETATM   30  O   UNK N   1      18.908  13.716   0.148  0.00  0.00    -0.389 OA
HETATM   31  H   UNK N   1      18.880  12.903  -0.380  0.00  0.00     0.210 HD
ENDBRANCH   1  30
BRANCH  18  32
HETATM   32  O   UNK N   1      26.372  20.637   5.025  0.00  0.00    -0.390 OA
HETATM   33  H   UNK N   1      26.594  20.998   4.152  0.00  0.00     0.210 HD
ENDBRANCH  18  32
TORSDOF 4
ENDMDL
MODEL 9
REMARK VINA RESULT:      -7.1      4.891      7.202
REMARK  4 active torsions:
REMARK  status: ('A' for Active; 'I' for Inactive)
REMARK    1  A    between atoms: C_2  and  O_1 
REMARK    2  A    between atoms: C_19  and  O_20 
REMARK    3  A    between atoms: C_28  and  C_29 
REMARK    4  A    between atoms: C_29  and  O_30 
ROOT
HETATM    1  C   UNK N   1      21.217  14.084   0.819  0.00  0.00     0.171 C 
HETATM    2  C   UNK N   1      22.320  13.148   0.387  0.00  0.00     0.003 C 
HETATM    3  C   UNK N   1      23.638  13.337   0.527  0.00  0.00    -0.025 C 
HETATM    4  C   UNK N   1      24.253  14.561   1.127  0.00  0.00     0.061 C 
HETATM    5  C   UNK N   1      24.559  14.376   2.616  0.00  0.00     0.158 C 
HETATM    6  O   UNK N   1      25.377  15.449   3.027  0.00  0.00    -0.374 OA
HETATM    7  C   UNK N   1      26.170  15.051   4.137  0.00  0.00     0.157 C 
HETATM    8  C   UNK N   1      27.625  15.439   3.911  0.00  0.00     0.069 C 
HETATM    9  C   UNK N   1      27.764  16.958   3.922  0.00  0.00     0.156 C 
HETATM   10  O   UNK N   1      29.116  17.370   3.753  0.00  0.00    -0.375 OA
HETATM   11  C   UNK N   1      29.927  17.030   4.870  0.00  0.00     0.157 C 
HETATM   12  C   UNK N   1      31.376  17.400   4.540  0.00  0.00     0.061 C 
HETATM   13  C   UNK N   1      32.428  16.897   5.510  0.00  0.00    -0.026 C 
HETATM   14  C   UNK N   1      32.203  16.443   6.754  0.00  0.00    -0.005 C 
HETATM   15  C   UNK N   1      30.838  16.384   7.366  0.00  0.00     0.195 C 
HETATM   16  O   UNK N   1      30.247  17.656   7.299  0.00  0.00    -0.377 OA
HETATM   17  C   UNK N   1      29.428  17.785   6.143  0.00  0.00     0.182 C 
HETATM   18  C   UNK N   1      27.994  17.333   6.445  0.00  0.00     0.181 C 
HETATM   19  C   UNK N   1      27.116  17.561   5.193  0.00  0.00     0.182 C 
HETATM   20  O   UNK N   1      25.763  17.128   5.363  0.00  0.00    -0.369 OA
HETATM   21  C   UNK N   1      25.639  15.709   5.401  0.00  0.00     0.173 C 
HETATM   22  C   UNK N   1      24.204  15.329   5.686  0.00  0.00     0.006 C 
HETATM   23  C   UNK N   1      23.277  14.722   4.910  0.00  0.00     0.006 C 
HETATM   24  C   UNK N   1      23.252  14.284   3.451  0.00  0.00     0.174 C 
HETATM   25  O   UNK N   1      22.234  15.049   2.825  0.00  0.00    -0.369 OA
HETATM   26  C   UNK N   1      21.142  14.265   2.352  0.00  0.00     0.178 C 
ENDROOT
BRANCH  26  27
HETATM   27  C   UNK N   1      19.857  14.997   2.728  0.00  0.00     0.199 C 
BRANCH  27  28
HETATM   28  O   UNK N   1      18.816  14.083   2.900  0.00  0.00    -0.398 OA
HETATM   29  H   UNK N   1      18.937  13.207   3.297  0.00  0.00     0.209 HD
ENDBRANCH  27  28
ENDBRANCH  26  27
BRANCH   1  30
HETATM   30  O   UNK N   1      20.021  13.523   0.366  0.00  0.00    -0.389 OA
HETATM   31  H   UNK N   1      19.414  14.042  -0.184  0.00  0.00     0.210 HD
ENDBRANCH   1  30
BRANCH  18  32
HETATM   32  O   UNK N   1      27.477  18.055   7.525  0.00  0.00    -0.390 OA
HETATM   33  H   UNK N   1      27.890  18.048   8.403  0.00  0.00     0.210 HD
ENDBRANCH  18  32
TORSDOF 4
ENDMDL
