MODEL 1
REMARK VINA RESULT:      -8.3      0.000      0.000
REMARK  6 active torsions:
REMARK  status: ('A' for Active; 'I' for Inactive)
REMARK    1  A    between atoms: C_8  and  C_9 
REMARK    2  A    between atoms: C_9  and  O_10 
REMARK    3  A    between atoms: O_10  and  C_11 
REMARK    4  A    between atoms: C_11  and  C_12 
REMARK    5  A    between atoms: C_13  and  C_12 
REMARK    6  A    between atoms: C_31  and  O_32 
ROOT
HETATM    1  C   UNK N   1      36.056  12.069  11.787  0.00  0.00    -0.009 C 
HETATM    2  C   UNK N   1      36.739  13.160  12.628  0.00  0.00     0.013 C 
HETATM    3  C   UNK N   1      35.713  13.821  13.576  0.00  0.00     0.007 C 
HETATM    4  C   UNK N   1      34.891  12.834  14.444  0.00  0.00    -0.002 C 
HETATM    5  C   UNK N   1      35.618  12.481  15.777  0.00  0.00    -0.036 C 
HETATM    6  C   UNK N   1      36.984  11.834  15.544  0.00  0.00     0.016 C 
HETATM    7  C   UNK N   1      35.891  13.785  16.578  0.00  0.00     0.017 C 
HETATM    8  C   UNK N   1      35.165  13.866  17.924  0.00  0.00     0.079 C 
HETATM    9  C   UNK N   1      35.399  12.592  18.684  0.00  0.00     0.127 C 
HETATM   10  O   UNK N   1      35.766  12.634  19.845  0.00  0.00    -0.298 OA
HETATM   11  C   UNK N   1      35.220  11.265  17.988  0.00  0.00     0.083 C 
HETATM   12  C   UNK N   1      34.693  11.511  16.571  0.00  0.00     0.001 C 
HETATM   13  C   UNK N   1      34.489  10.218  15.788  0.00  0.00     0.006 C 
HETATM   14  C   UNK N   1      33.704  10.539  14.513  0.00  0.00     0.006 C 
HETATM   15  C   UNK N   1      34.378  11.599  13.619  0.00  0.00    -0.005 C 
HETATM   16  C   UNK N   1      35.495  11.011  12.743  0.00  0.00     0.001 C 
HETATM   17  C   UNK N   1      35.120   9.863  11.809  0.00  0.00     0.008 C 
HETATM   18  C   UNK N   1      36.158   9.944  10.673  0.00  0.00     0.033 C 
HETATM   19  C   UNK N   1      37.006  11.186  10.978  0.00  0.00     0.127 C 
ENDROOT
BRANCH   1  20
HETATM   20  C   UNK N   1      34.984  12.632  10.787  0.00  0.00     0.038 C 
BRANCH  20  21
HETATM   21  C   UNK N   1      35.069  14.097  10.362  0.00  0.00     0.169 C 
BRANCH  21  22
HETATM   22  O   UNK N   1      35.665  14.182   9.101  0.00  0.00    -0.387 OA
BRANCH  22  23
HETATM   23  C   UNK N   1      34.609  14.221   8.183  0.00  0.00     0.206 C 
BRANCH  23  24
HETATM   24  C   UNK N   1      33.883  15.533   8.229  0.00  0.00    -0.029 A 
HETATM   25  C   UNK N   1      34.580  16.752   8.228  0.00  0.00     0.051 A 
HETATM   26  C   UNK N   1      33.882  17.963   8.249  0.00  0.00     0.119 A 
HETATM   27  C   UNK N   1      32.484  17.964   8.268  0.00  0.00     0.084 A 
HETATM   28  F   UNK N   1      34.561  19.135   8.245  0.00  0.00    -0.206 F 
HETATM   29  C   UNK N   1      31.785  16.755   8.270  0.00  0.00     0.119 A 
HETATM   30  C   UNK N   1      32.483  15.541   8.251  0.00  0.00     0.051 A 
HETATM   31  F   UNK N   1      30.430  16.758   8.284  0.00  0.00    -0.206 F 
ENDBRANCH  23  24
ENDBRANCH  22  23
ENDBRANCH  21  22
ENDBRANCH  20  21
ENDBRANCH   1  20
BRANCH  19  32
HETATM   32  O   UNK N   1      37.462  11.805   9.811  0.00  0.00    -0.395 OA
HETATM   33  H   UNK N   1      38.358  12.175   9.777  0.00  0.00     0.210 HD
ENDBRANCH  19  32
TORSDOF 6
ENDMDL
MODEL 2
REMARK VINA RESULT:      -8.2      1.117      1.786
REMARK  6 active torsions:
REMARK  status: ('A' for Active; 'I' for Inactive)
REMARK    1  A    between atoms: C_8  and  C_9 
REMARK    2  A    between atoms: C_9  and  O_10 
REMARK    3  A    between atoms: O_10  and  C_11 
REMARK    4  A    between atoms: C_11  and  C_12 
REMARK    5  A    between atoms: C_13  and  C_12 
REMARK    6  A    between atoms: C_31  and  O_32 
ROOT
HETATM    1  C   UNK N   1      36.263  12.389  11.374  0.00  0.00    -0.009 C 
HETATM    2  C   UNK N   1      36.885  13.377  12.374  0.00  0.00     0.013 C 
HETATM    3  C   UNK N   1      35.806  13.893  13.353  0.00  0.00     0.007 C 
HETATM    4  C   UNK N   1      34.974  12.789  14.053  0.00  0.00    -0.002 C 
HETATM    5  C   UNK N   1      35.655  12.283  15.361  0.00  0.00    -0.036 C 
HETATM    6  C   UNK N   1      37.044  11.697  15.108  0.00  0.00     0.016 C 
HETATM    7  C   UNK N   1      35.864  13.480  16.331  0.00  0.00     0.017 C 
HETATM    8  C   UNK N   1      35.081  13.376  17.644  0.00  0.00     0.079 C 
HETATM    9  C   UNK N   1      35.316  12.020  18.247  0.00  0.00     0.127 C 
HETATM   10  O   UNK N   1      35.634  11.921  19.419  0.00  0.00    -0.298 OA
HETATM   11  C   UNK N   1      35.197  10.789  17.382  0.00  0.00     0.083 C 
HETATM   12  C   UNK N   1      34.722  11.203  15.986  0.00  0.00     0.001 C 
HETATM   13  C   UNK N   1      34.581  10.016  15.038  0.00  0.00     0.006 C 
HETATM   14  C   UNK N   1      33.841  10.482  13.781  0.00  0.00     0.006 C 
HETATM   15  C   UNK N   1      34.524  11.659  13.058  0.00  0.00    -0.005 C 
HETATM   16  C   UNK N   1      35.690  11.208  12.164  0.00  0.00     0.001 C 
HETATM   17  C   UNK N   1      35.381  10.181  11.077  0.00  0.00     0.008 C 
HETATM   18  C   UNK N   1      36.462  10.425  10.006  0.00  0.00     0.033 C 
HETATM   19  C   UNK N   1      37.266  11.634  10.502  0.00  0.00     0.127 C 
ENDROOT
BRANCH   1  20
HETATM   20  C   UNK N   1      35.219  13.054  10.407  0.00  0.00     0.038 C 
BRANCH  20  21
HETATM   21  C   UNK N   1      35.495  14.460   9.877  0.00  0.00     0.169 C 
BRANCH  21  22
HETATM   22  O   UNK N   1      34.469  15.320  10.279  0.00  0.00    -0.387 OA
BRANCH  22  23
HETATM   23  C   UNK N   1      34.703  16.528   9.612  0.00  0.00     0.206 C 
BRANCH  23  24
HETATM   24  C   UNK N   1      33.711  16.751   8.508  0.00  0.00    -0.029 A 
HETATM   25  C   UNK N   1      32.337  16.540   8.708  0.00  0.00     0.051 A 
HETATM   26  C   UNK N   1      31.430  16.775   7.672  0.00  0.00     0.119 A 
HETATM   27  C   UNK N   1      31.888  17.226   6.430  0.00  0.00     0.084 A 
HETATM   28  F   UNK N   1      30.106  16.573   7.873  0.00  0.00    -0.206 F 
HETATM   29  C   UNK N   1      33.253  17.437   6.224  0.00  0.00     0.119 A 
HETATM   30  C   UNK N   1      34.164  17.200   7.261  0.00  0.00     0.051 A 
HETATM   31  F   UNK N   1      33.695  17.878   5.021  0.00  0.00    -0.206 F 
ENDBRANCH  23  24
ENDBRANCH  22  23
ENDBRANCH  21  22
ENDBRANCH  20  21
ENDBRANCH   1  20
BRANCH  19  32
HETATM   32  O   UNK N   1      37.754  12.405   9.443  0.00  0.00    -0.395 OA
HETATM   33  H   UNK N   1      38.332  13.163   9.621  0.00  0.00     0.210 HD
ENDBRANCH  19  32
TORSDOF 6
ENDMDL
MODEL 3
REMARK VINA RESULT:      -8.1      2.061      2.661
REMARK  6 active torsions:
REMARK  status: ('A' for Active; 'I' for Inactive)
REMARK    1  A    between atoms: C_8  and  C_9 
REMARK    2  A    between atoms: C_9  and  O_10 
REMARK    3  A    between atoms: O_10  and  C_11 
REMARK    4  A    between atoms: C_11  and  C_12 
REMARK    5  A    between atoms: C_13  and  C_12 
REMARK    6  A    between atoms: C_31  and  O_32 
ROOT
HETATM    1  C   UNK N   1      36.284  13.505  11.843  0.00  0.00    -0.009 C 
HETATM    2  C   UNK N   1      36.798  13.883  13.242  0.00  0.00     0.013 C 
HETATM    3  C   UNK N   1      35.674  13.705  14.287  0.00  0.00     0.007 C 
HETATM    4  C   UNK N   1      34.974  12.322  14.269  0.00  0.00    -0.002 C 
HETATM    5  C   UNK N   1      35.715  11.279  15.160  0.00  0.00    -0.036 C 
HETATM    6  C   UNK N   1      37.159  11.050  14.714  0.00  0.00     0.016 C 
HETATM    7  C   UNK N   1      35.794  11.810  16.619  0.00  0.00     0.017 C 
HETATM    8  C   UNK N   1      35.036  10.961  17.645  0.00  0.00     0.079 C 
HETATM    9  C   UNK N   1      35.424   9.521  17.469  0.00  0.00     0.127 C 
HETATM   10  O   UNK N   1      35.758   8.858  18.436  0.00  0.00    -0.298 OA
HETATM   11  C   UNK N   1      35.438   8.916  16.087  0.00  0.00     0.083 C 
HETATM   12  C   UNK N   1      34.911   9.947  15.085  0.00  0.00     0.001 C 
HETATM   13  C   UNK N   1      34.898   9.419  13.653  0.00  0.00     0.006 C 
HETATM   14  C   UNK N   1      34.103  10.396  12.782  0.00  0.00     0.006 C 
HETATM   15  C   UNK N   1      34.647  11.838  12.810  0.00  0.00    -0.005 C 
HETATM   16  C   UNK N   1      35.851  12.035  11.875  0.00  0.00     0.001 C 
HETATM   17  C   UNK N   1      35.652  11.700  10.399  0.00  0.00     0.008 C 
HETATM   18  C   UNK N   1      36.693  12.571   9.669  0.00  0.00     0.033 C 
HETATM   19  C   UNK N   1      37.360  13.417  10.761  0.00  0.00     0.127 C 
ENDROOT
BRANCH   1  20
HETATM   20  C   UNK N   1      35.167  14.470  11.307  0.00  0.00     0.038 C 
BRANCH  20  21
HETATM   21  C   UNK N   1      35.363  15.978  11.451  0.00  0.00     0.169 C 
BRANCH  21  22
HETATM   22  O   UNK N   1      35.726  16.521  10.216  0.00  0.00    -0.387 OA
BRANCH  22  23
HETATM   23  C   UNK N   1      34.530  16.932   9.616  0.00  0.00     0.206 C 
BRANCH  23  24
HETATM   24  C   UNK N   1      34.476  16.549   8.166  0.00  0.00    -0.029 A 
HETATM   25  C   UNK N   1      33.955  17.425   7.199  0.00  0.00     0.051 A 
HETATM   26  C   UNK N   1      33.935  17.055   5.852  0.00  0.00     0.119 A 
HETATM   27  C   UNK N   1      34.438  15.811   5.460  0.00  0.00     0.084 A 
HETATM   28  F   UNK N   1      33.434  17.905   4.924  0.00  0.00    -0.206 F 
HETATM   29  C   UNK N   1      34.958  14.935   6.417  0.00  0.00     0.119 A 
HETATM   30  C   UNK N   1      34.976  15.304   7.768  0.00  0.00     0.051 A 
HETATM   31  F   UNK N   1      35.449  13.731   6.036  0.00  0.00    -0.206 F 
ENDBRANCH  23  24
ENDBRANCH  22  23
ENDBRANCH  21  22
ENDBRANCH  20  21
ENDBRANCH   1  20
BRANCH  19  32
HETATM   32  O   UNK N   1      37.753  14.670  10.282  0.00  0.00    -0.395 OA
HETATM   33  H   UNK N   1      38.674  14.821  10.017  0.00  0.00     0.210 HD
ENDBRANCH  19  32
TORSDOF 6
ENDMDL
MODEL 4
REMARK VINA RESULT:      -8.0     19.388     23.241
REMARK  6 active torsions:
REMARK  status: ('A' for Active; 'I' for Inactive)
REMARK    1  A    between atoms: C_8  and  C_9 
REMARK    2  A    between atoms: C_9  and  O_10 
REMARK    3  A    between atoms: O_10  and  C_11 
REMARK    4  A    between atoms: C_11  and  C_12 
REMARK    5  A    between atoms: C_13  and  C_12 
REMARK    6  A    between atoms: C_31  and  O_32 
ROOT
HETATM    1  C   UNK N   1      27.896  27.928  -5.156  0.00  0.00    -0.009 C 
HETATM    2  C   UNK N   1      28.268  27.515  -6.589  0.00  0.00     0.013 C 
HETATM    3  C   UNK N   1      28.891  26.100  -6.590  0.00  0.00     0.007 C 
HETATM    4  C   UNK N   1      28.058  25.016  -5.859  0.00  0.00    -0.002 C 
HETATM    5  C   UNK N   1      27.007  24.353  -6.801  0.00  0.00    -0.036 C 
HETATM    6  C   UNK N   1      26.013  25.364  -7.373  0.00  0.00     0.016 C 
HETATM    7  C   UNK N   1      27.733  23.724  -8.024  0.00  0.00     0.017 C 
HETATM    8  C   UNK N   1      27.605  22.201  -8.122  0.00  0.00     0.079 C 
HETATM    9  C   UNK N   1      26.160  21.821  -7.976  0.00  0.00     0.127 C 
HETATM   10  O   UNK N   1      25.644  21.062  -8.779  0.00  0.00    -0.298 OA
HETATM   11  C   UNK N   1      25.342  22.417  -6.857  0.00  0.00     0.083 C 
HETATM   12  C   UNK N   1      26.254  23.271  -5.971  0.00  0.00     0.001 C 
HETATM   13  C   UNK N   1      25.505  23.922  -4.812  0.00  0.00     0.006 C 
HETATM   14  C   UNK N   1      26.530  24.508  -3.838  0.00  0.00     0.006 C 
HETATM   15  C   UNK N   1      27.492  25.524  -4.485  0.00  0.00    -0.005 C 
HETATM   16  C   UNK N   1      26.870  26.923  -4.620  0.00  0.00     0.001 C 
HETATM   17  C   UNK N   1      26.365  27.591  -3.344  0.00  0.00     0.008 C 
HETATM   18  C   UNK N   1      26.437  29.099  -3.651  0.00  0.00     0.033 C 
HETATM   19  C   UNK N   1      27.064  29.205  -5.047  0.00  0.00     0.127 C 
ENDROOT
BRANCH   1  20
HETATM   20  C   UNK N   1      29.141  28.105  -4.214  0.00  0.00     0.038 C 
BRANCH  20  21
HETATM   21  C   UNK N   1      30.516  27.677  -4.722  0.00  0.00     0.169 C 
BRANCH  21  22
HETATM   22  O   UNK N   1      31.155  26.909  -3.744  0.00  0.00    -0.387 OA
BRANCH  22  23
HETATM   23  C   UNK N   1      31.788  25.867  -4.433  0.00  0.00     0.206 C 
BRANCH  23  24
HETATM   24  C   UNK N   1      31.145  24.543  -4.146  0.00  0.00    -0.029 A 
HETATM   25  C   UNK N   1      30.470  24.307  -2.937  0.00  0.00     0.051 A 
HETATM   26  C   UNK N   1      29.859  23.072  -2.700  0.00  0.00     0.119 A 
HETATM   27  C   UNK N   1      29.916  22.066  -3.670  0.00  0.00     0.084 A 
HETATM   28  F   UNK N   1      29.207  22.852  -1.534  0.00  0.00    -0.206 F 
HETATM   29  C   UNK N   1      30.587  22.294  -4.874  0.00  0.00     0.119 A 
HETATM   30  C   UNK N   1      31.200  23.530  -5.112  0.00  0.00     0.051 A 
HETATM   31  F   UNK N   1      30.637  21.321  -5.815  0.00  0.00    -0.206 F 
ENDBRANCH  23  24
ENDBRANCH  22  23
ENDBRANCH  21  22
ENDBRANCH  20  21
ENDBRANCH   1  20
BRANCH  19  32
HETATM   32  O   UNK N   1      27.829  30.366  -5.187  0.00  0.00    -0.395 OA
HETATM   33  H   UNK N   1      28.674  30.451  -4.717  0.00  0.00     0.210 HD
ENDBRANCH  19  32
TORSDOF 6
ENDMDL
MODEL 5
REMARK VINA RESULT:      -7.9     18.445     22.487
REMARK  6 active torsions:
REMARK  status: ('A' for Active; 'I' for Inactive)
REMARK    1  A    between atoms: C_8  and  C_9 
REMARK    2  A    between atoms: C_9  and  O_10 
REMARK    3  A    between atoms: O_10  and  C_11 
REMARK    4  A    between atoms: C_11  and  C_12 
REMARK    5  A    between atoms: C_13  and  C_12 
REMARK    6  A    between atoms: C_31  and  O_32 
ROOT
HETATM    1  C   UNK N   1      28.234  23.258  -7.429  0.00  0.00    -0.009 C 
HETATM    2  C   UNK N   1      28.948  24.042  -6.315  0.00  0.00     0.013 C 
HETATM    3  C   UNK N   1      29.158  23.138  -5.079  0.00  0.00     0.007 C 
HETATM    4  C   UNK N   1      29.837  21.775  -5.370  0.00  0.00    -0.002 C 
HETATM    5  C   UNK N   1      31.392  21.876  -5.331  0.00  0.00    -0.036 C 
HETATM    6  C   UNK N   1      31.940  22.871  -6.354  0.00  0.00     0.016 C 
HETATM    7  C   UNK N   1      31.840  22.400  -3.938  0.00  0.00     0.017 C 
HETATM    8  C   UNK N   1      32.680  21.407  -3.127  0.00  0.00     0.079 C 
HETATM    9  C   UNK N   1      33.786  20.879  -3.994  0.00  0.00     0.127 C 
HETATM   10  O   UNK N   1      34.933  20.874  -3.584  0.00  0.00    -0.298 OA
HETATM   11  C   UNK N   1      33.473  20.396  -5.389  0.00  0.00     0.083 C 
HETATM   12  C   UNK N   1      31.959  20.452  -5.610  0.00  0.00     0.001 C 
HETATM   13  C   UNK N   1      31.551  19.986  -7.005  0.00  0.00     0.006 C 
HETATM   14  C   UNK N   1      30.031  19.806  -7.033  0.00  0.00     0.006 C 
HETATM   15  C   UNK N   1      29.247  21.077  -6.648  0.00  0.00    -0.005 C 
HETATM   16  C   UNK N   1      29.119  22.068  -7.816  0.00  0.00     0.001 C 
HETATM   17  C   UNK N   1      28.469  21.557  -9.099  0.00  0.00     0.008 C 
HETATM   18  C   UNK N   1      27.898  22.824  -9.766  0.00  0.00     0.033 C 
HETATM   19  C   UNK N   1      28.175  23.967  -8.781  0.00  0.00     0.127 C 
ENDROOT
BRANCH   1  20
HETATM   20  C   UNK N   1      26.765  22.845  -7.058  0.00  0.00     0.038 C 
BRANCH  20  21
HETATM   21  C   UNK N   1      26.029  23.632  -5.975  0.00  0.00     0.169 C 
BRANCH  21  22
HETATM   22  O   UNK N   1      25.563  24.836  -6.510  0.00  0.00    -0.387 OA
BRANCH  22  23
HETATM   23  C   UNK N   1      25.130  25.595  -5.416  0.00  0.00     0.206 C 
BRANCH  23  24
HETATM   24  C   UNK N   1      25.828  26.921  -5.350  0.00  0.00    -0.029 A 
HETATM   25  C   UNK N   1      25.660  27.781  -4.253  0.00  0.00     0.051 A 
HETATM   26  C   UNK N   1      26.337  29.002  -4.203  0.00  0.00     0.119 A 
HETATM   27  C   UNK N   1      27.189  29.372  -5.248  0.00  0.00     0.084 A 
HETATM   28  F   UNK N   1      26.172  29.825  -3.140  0.00  0.00    -0.206 F 
HETATM   29  C   UNK N   1      27.362  28.522  -6.343  0.00  0.00     0.119 A 
HETATM   30  C   UNK N   1      26.682  27.299  -6.394  0.00  0.00     0.051 A 
HETATM   31  F   UNK N   1      28.192  28.879  -7.352  0.00  0.00    -0.206 F 
ENDBRANCH  23  24
ENDBRANCH  22  23
ENDBRANCH  21  22
ENDBRANCH  20  21
ENDBRANCH   1  20
BRANCH  19  32
HETATM   32  O   UNK N   1      27.185  24.953  -8.835  0.00  0.00    -0.395 OA
HETATM   33  H   UNK N   1      27.398  25.867  -8.592  0.00  0.00     0.210 HD
ENDBRANCH  19  32
TORSDOF 6
ENDMDL
MODEL 6
REMARK VINA RESULT:      -7.7     18.808     23.630
REMARK  6 active torsions:
REMARK  status: ('A' for Active; 'I' for Inactive)
REMARK    1  A    between atoms: C_8  and  C_9 
REMARK    2  A    between atoms: C_9  and  O_10 
REMARK    3  A    between atoms: O_10  and  C_11 
REMARK    4  A    between atoms: C_11  and  C_12 
REMARK    5  A    between atoms: C_13  and  C_12 
REMARK    6  A    between atoms: C_31  and  O_32 
ROOT
HETATM    1  C   UNK N   1      26.338  24.821  -7.324  0.00  0.00    -0.009 C 
HETATM    2  C   UNK N   1      25.830  24.849  -5.873  0.00  0.00     0.013 C 
HETATM    3  C   UNK N   1      26.971  25.264  -4.918  0.00  0.00     0.007 C 
HETATM    4  C   UNK N   1      27.713  26.568  -5.309  0.00  0.00    -0.002 C 
HETATM    5  C   UNK N   1      27.015  27.835  -4.728  0.00  0.00    -0.036 C 
HETATM    6  C   UNK N   1      25.573  27.983  -5.214  0.00  0.00     0.016 C 
HETATM    7  C   UNK N   1      26.937  27.717  -3.180  0.00  0.00     0.017 C 
HETATM    8  C   UNK N   1      27.733  28.785  -2.422  0.00  0.00     0.079 C 
HETATM    9  C   UNK N   1      27.387  30.138  -2.976  0.00  0.00     0.127 C 
HETATM   10  O   UNK N   1      27.085  31.046  -2.222  0.00  0.00    -0.298 OA
HETATM   11  C   UNK N   1      27.375  30.351  -4.470  0.00  0.00     0.083 C 
HETATM   12  C   UNK N   1      27.857  29.072  -5.161  0.00  0.00     0.001 C 
HETATM   13  C   UNK N   1      27.869  29.195  -6.682  0.00  0.00     0.006 C 
HETATM   14  C   UNK N   1      28.623  27.996  -7.262  0.00  0.00     0.006 C 
HETATM   15  C   UNK N   1      28.036  26.632  -6.845  0.00  0.00    -0.005 C 
HETATM   16  C   UNK N   1      26.816  26.231  -7.689  0.00  0.00     0.001 C 
HETATM   17  C   UNK N   1      27.007  26.152  -9.201  0.00  0.00     0.008 C 
HETATM   18  C   UNK N   1      25.931  25.151  -9.667  0.00  0.00     0.033 C 
HETATM   19  C   UNK N   1      25.252  24.651  -8.386  0.00  0.00     0.127 C 
ENDROOT
BRANCH   1  20
HETATM   20  C   UNK N   1      27.419  23.712  -7.586  0.00  0.00     0.038 C 
BRANCH  20  21
HETATM   21  C   UNK N   1      27.183  22.308  -7.033  0.00  0.00     0.169 C 
BRANCH  21  22
HETATM   22  O   UNK N   1      28.403  21.750  -6.642  0.00  0.00    -0.387 OA
BRANCH  22  23
HETATM   23  C   UNK N   1      29.246  22.834  -6.368  0.00  0.00     0.206 C 
BRANCH  23  24
HETATM   24  C   UNK N   1      30.057  22.606  -5.127  0.00  0.00    -0.029 A 
HETATM   25  C   UNK N   1      29.537  22.893  -3.854  0.00  0.00     0.051 A 
HETATM   26  C   UNK N   1      30.303  22.652  -2.710  0.00  0.00     0.119 A 
HETATM   27  C   UNK N   1      31.590  22.120  -2.828  0.00  0.00     0.084 A 
HETATM   28  F   UNK N   1      29.795  22.929  -1.485  0.00  0.00    -0.206 F 
HETATM   29  C   UNK N   1      32.113  21.832  -4.092  0.00  0.00     0.119 A 
HETATM   30  C   UNK N   1      31.348  22.075  -5.239  0.00  0.00     0.051 A 
HETATM   31  F   UNK N   1      33.359  21.312  -4.205  0.00  0.00    -0.206 F 
ENDBRANCH  23  24
ENDBRANCH  22  23
ENDBRANCH  21  22
ENDBRANCH  20  21
ENDBRANCH   1  20
BRANCH  19  32
HETATM   32  O   UNK N   1      24.815  23.329  -8.510  0.00  0.00    -0.395 OA
HETATM   33  H   UNK N   1      25.347  22.606  -8.143  0.00  0.00     0.210 HD
ENDBRANCH  19  32
TORSDOF 6
ENDMDL
MODEL 7
REMARK VINA RESULT:      -7.7      4.326     10.571
REMARK  6 active torsions:
REMARK  status: ('A' for Active; 'I' for Inactive)
REMARK    1  A    between atoms: C_8  and  C_9 
REMARK    2  A    between atoms: C_9  and  O_10 
REMARK    3  A    between atoms: O_10  and  C_11 
REMARK    4  A    between atoms: C_11  and  C_12 
REMARK    5  A    between atoms: C_13  and  C_12 
REMARK    6  A    between atoms: C_31  and  O_32 
ROOT
HETATM    1  C   UNK N   1      32.157  16.506   6.616  0.00  0.00    -0.009 C 
HETATM    2  C   UNK N   1      31.671  16.121   5.209  0.00  0.00     0.013 C 
HETATM    3  C   UNK N   1      30.272  15.469   5.289  0.00  0.00     0.007 C 
HETATM    4  C   UNK N   1      29.214  16.280   6.079  0.00  0.00    -0.002 C 
HETATM    5  C   UNK N   1      28.476  17.314   5.175  0.00  0.00    -0.036 C 
HETATM    6  C   UNK N   1      29.431  18.328   4.546  0.00  0.00     0.016 C 
HETATM    7  C   UNK N   1      27.795  16.572   3.991  0.00  0.00     0.017 C 
HETATM    8  C   UNK N   1      26.265  16.667   3.979  0.00  0.00     0.079 C 
HETATM    9  C   UNK N   1      25.863  18.104   4.145  0.00  0.00     0.127 C 
HETATM   10  O   UNK N   1      25.050  18.601   3.386  0.00  0.00    -0.298 OA
HETATM   11  C   UNK N   1      26.504  18.937   5.228  0.00  0.00     0.083 C 
HETATM   12  C   UNK N   1      27.426  18.045   6.065  0.00  0.00     0.001 C 
HETATM   13  C   UNK N   1      28.126  18.811   7.184  0.00  0.00     0.006 C 
HETATM   14  C   UNK N   1      28.788  17.801   8.125  0.00  0.00     0.006 C 
HETATM   15  C   UNK N   1      29.786  16.859   7.422  0.00  0.00    -0.005 C 
HETATM   16  C   UNK N   1      31.162  17.510   7.206  0.00  0.00     0.001 C 
HETATM   17  C   UNK N   1      31.890  18.033   8.442  0.00  0.00     0.008 C 
HETATM   18  C   UNK N   1      33.380  17.993   8.051  0.00  0.00     0.033 C 
HETATM   19  C   UNK N   1      33.420  17.365   6.651  0.00  0.00     0.127 C 
ENDROOT
BRANCH   1  20
HETATM   20  C   UNK N   1      32.414  15.267   7.547  0.00  0.00     0.038 C 
BRANCH  20  21
HETATM   21  C   UNK N   1      33.093  14.031   6.959  0.00  0.00     0.169 C 
BRANCH  21  22
HETATM   22  O   UNK N   1      34.412  13.962   7.417  0.00  0.00    -0.387 OA
BRANCH  22  23
HETATM   23  C   UNK N   1      34.378  13.138   8.549  0.00  0.00     0.206 C 
BRANCH  23  24
HETATM   24  C   UNK N   1      34.828  13.868   9.780  0.00  0.00    -0.029 A 
HETATM   25  C   UNK N   1      34.956  13.208  11.013  0.00  0.00     0.051 A 
HETATM   26  C   UNK N   1      35.397  13.904  12.142  0.00  0.00     0.119 A 
HETATM   27  C   UNK N   1      35.716  15.262  12.046  0.00  0.00     0.084 A 
HETATM   28  F   UNK N   1      35.522  13.261  13.327  0.00  0.00    -0.206 F 
HETATM   29  C   UNK N   1      35.590  15.925  10.822  0.00  0.00     0.119 A 
HETATM   30  C   UNK N   1      35.146  15.229   9.691  0.00  0.00     0.051 A 
HETATM   31  F   UNK N   1      35.904  17.239  10.730  0.00  0.00    -0.206 F 
ENDBRANCH  23  24
ENDBRANCH  22  23
ENDBRANCH  21  22
ENDBRANCH  20  21
ENDBRANCH   1  20
BRANCH  19  32
HETATM   32  O   UNK N   1      34.588  16.624   6.446  0.00  0.00    -0.395 OA
HETATM   33  H   UNK N   1      35.173  16.424   7.193  0.00  0.00     0.210 HD
ENDBRANCH  19  32
TORSDOF 6
ENDMDL
MODEL 8
REMARK VINA RESULT:      -7.6     19.715     23.108
REMARK  6 active torsions:
REMARK  status: ('A' for Active; 'I' for Inactive)
REMARK    1  A    between atoms: C_8  and  C_9 
REMARK    2  A    between atoms: C_9  and  O_10 
REMARK    3  A    between atoms: O_10  and  C_11 
REMARK    4  A    between atoms: C_11  and  C_12 
REMARK    5  A    between atoms: C_13  and  C_12 
REMARK    6  A    between atoms: C_31  and  O_32 
ROOT
HETATM    1  C   UNK N   1      27.224  22.900  -7.496  0.00  0.00    -0.009 C 
HETATM    2  C   UNK N   1      28.111  23.023  -6.247  0.00  0.00     0.013 C 
HETATM    3  C   UNK N   1      28.819  24.397  -6.230  0.00  0.00     0.007 C 
HETATM    4  C   UNK N   1      27.883  25.619  -6.412  0.00  0.00    -0.002 C 
HETATM    5  C   UNK N   1      27.294  26.113  -5.056  0.00  0.00    -0.036 C 
HETATM    6  C   UNK N   1      26.478  25.033  -4.345  0.00  0.00     0.016 C 
HETATM    7  C   UNK N   1      28.456  26.479  -4.091  0.00  0.00     0.017 C 
HETATM    8  C   UNK N   1      28.508  27.958  -3.694  0.00  0.00     0.079 C 
HETATM    9  C   UNK N   1      27.144  28.391  -3.240  0.00  0.00     0.127 C 
HETATM   10  O   UNK N   1      27.014  28.993  -2.188  0.00  0.00    -0.298 OA
HETATM   11  C   UNK N   1      25.935  28.039  -4.071  0.00  0.00     0.083 C 
HETATM   12  C   UNK N   1      26.398  27.350  -5.359  0.00  0.00     0.001 C 
HETATM   13  C   UNK N   1      25.234  26.950  -6.261  0.00  0.00     0.006 C 
HETATM   14  C   UNK N   1      25.794  26.540  -7.625  0.00  0.00     0.006 C 
HETATM   15  C   UNK N   1      26.827  25.397  -7.554  0.00  0.00    -0.005 C 
HETATM   16  C   UNK N   1      26.170  24.012  -7.444  0.00  0.00     0.001 C 
HETATM   17  C   UNK N   1      25.190  23.613  -8.544  0.00  0.00     0.008 C 
HETATM   18  C   UNK N   1      25.230  22.072  -8.548  0.00  0.00     0.033 C 
HETATM   19  C   UNK N   1      26.295  21.687  -7.513  0.00  0.00     0.127 C 
ENDROOT
BRANCH   1  20
HETATM   20  C   UNK N   1      28.037  22.879  -8.840  0.00  0.00     0.038 C 
BRANCH  20  21
HETATM   21  C   UNK N   1      29.517  22.504  -8.800  0.00  0.00     0.169 C 
BRANCH  21  22
HETATM   22  O   UNK N   1      29.647  21.152  -8.469  0.00  0.00    -0.387 OA
BRANCH  22  23
HETATM   23  C   UNK N   1      30.987  20.976  -8.106  0.00  0.00     0.206 C 
BRANCH  23  24
HETATM   24  C   UNK N   1      31.240  21.415  -6.694  0.00  0.00    -0.029 A 
HETATM   25  C   UNK N   1      32.119  22.471  -6.405  0.00  0.00     0.051 A 
HETATM   26  C   UNK N   1      32.324  22.877  -5.083  0.00  0.00     0.119 A 
HETATM   27  C   UNK N   1      31.649  22.234  -4.042  0.00  0.00     0.084 A 
HETATM   28  F   UNK N   1      33.171  23.899  -4.812  0.00  0.00    -0.206 F 
HETATM   29  C   UNK N   1      30.773  21.182  -4.322  0.00  0.00     0.119 A 
HETATM   30  C   UNK N   1      30.569  20.773  -5.646  0.00  0.00     0.051 A 
HETATM   31  F   UNK N   1      30.116  20.562  -3.312  0.00  0.00    -0.206 F 
ENDBRANCH  23  24
ENDBRANCH  22  23
ENDBRANCH  21  22
ENDBRANCH  20  21
ENDBRANCH   1  20
BRANCH  19  32
HETATM   32  O   UNK N   1      26.954  20.503  -7.860  0.00  0.00    -0.395 OA
HETATM   33  H   UNK N   1      27.915  20.503  -7.990  0.00  0.00     0.210 HD
ENDBRANCH  19  32
TORSDOF 6
ENDMDL
MODEL 9
REMARK VINA RESULT:      -7.6      5.385     10.526
REMARK  6 active torsions:
REMARK  status: ('A' for Active; 'I' for Inactive)
REMARK    1  A    between atoms: C_8  and  C_9 
REMARK    2  A    between atoms: C_9  and  O_10 
REMARK    3  A    between atoms: O_10  and  C_11 
REMARK    4  A    between atoms: C_11  and  C_12 
REMARK    5  A    between atoms: C_13  and  C_12 
REMARK    6  A    between atoms: C_31  and  O_32 
ROOT
HETATM    1  C   UNK N   1      35.758   9.838  17.920  0.00  0.00    -0.009 C 
HETATM    2  C   UNK N   1      36.431   9.047  16.787  0.00  0.00     0.013 C 
HETATM    3  C   UNK N   1      35.582   9.137  15.498  0.00  0.00     0.007 C 
HETATM    4  C   UNK N   1      35.195  10.574  15.066  0.00  0.00    -0.002 C 
HETATM    5  C   UNK N   1      36.289  11.231  14.170  0.00  0.00    -0.036 C 
HETATM    6  C   UNK N   1      37.641  11.330  14.876  0.00  0.00     0.016 C 
HETATM    7  C   UNK N   1      36.524  10.348  12.912  0.00  0.00     0.017 C 
HETATM    8  C   UNK N   1      36.163  11.025  11.586  0.00  0.00     0.079 C 
HETATM    9  C   UNK N   1      36.803  12.383  11.540  0.00  0.00     0.127 C 
HETATM   10  O   UNK N   1      37.441  12.723  10.559  0.00  0.00    -0.298 OA
HETATM   11  C   UNK N   1      36.688  13.303  12.731  0.00  0.00     0.083 C 
HETATM   12  C   UNK N   1      35.782  12.651  13.779  0.00  0.00     0.001 C 
HETATM   13  C   UNK N   1      35.614  13.513  15.028  0.00  0.00     0.006 C 
HETATM   14  C   UNK N   1      34.486  12.923  15.878  0.00  0.00     0.006 C 
HETATM   15  C   UNK N   1      34.713  11.451  16.277  0.00  0.00    -0.005 C 
HETATM   16  C   UNK N   1      35.655  11.304  17.482  0.00  0.00     0.001 C 
HETATM   17  C   UNK N   1      35.261  12.022  18.770  0.00  0.00     0.008 C 
HETATM   18  C   UNK N   1      35.943  11.206  19.885  0.00  0.00     0.033 C 
HETATM   19  C   UNK N   1      36.610  10.020  19.176  0.00  0.00     0.127 C 
ENDROOT
BRANCH   1  20
HETATM   20  C   UNK N   1      34.385   9.228  18.376  0.00  0.00     0.038 C 
BRANCH  20  21
HETATM   21  C   UNK N   1      34.260   7.712  18.511  0.00  0.00     0.169 C 
BRANCH  21  22
HETATM   22  O   UNK N   1      34.159   7.371  19.863  0.00  0.00    -0.387 OA
BRANCH  22  23
HETATM   23  C   UNK N   1      32.797   7.453  20.174  0.00  0.00     0.206 C 
BRANCH  23  24
HETATM   24  C   UNK N   1      32.560   8.264  21.414  0.00  0.00    -0.029 A 
HETATM   25  C   UNK N   1      32.096   7.669  22.598  0.00  0.00     0.051 A 
HETATM   26  C   UNK N   1      31.902   8.441  23.746  0.00  0.00     0.119 A 
HETATM   27  C   UNK N   1      32.174   9.812  23.721  0.00  0.00     0.084 A 
HETATM   28  F   UNK N   1      31.458   7.859  24.886  0.00  0.00    -0.206 F 
HETATM   29  C   UNK N   1      32.636  10.411  22.546  0.00  0.00     0.119 A 
HETATM   30  C   UNK N   1      32.828   9.639  21.394  0.00  0.00     0.051 A 
HETATM   31  F   UNK N   1      32.904  11.739  22.525  0.00  0.00    -0.206 F 
ENDBRANCH  23  24
ENDBRANCH  22  23
ENDBRANCH  21  22
ENDBRANCH  20  21
ENDBRANCH   1  20
BRANCH  19  32
HETATM   32  O   UNK N   1      36.637   8.879  19.983  0.00  0.00    -0.395 OA
HETATM   33  H   UNK N   1      37.484   8.463  20.207  0.00  0.00     0.210 HD
ENDBRANCH  19  32
TORSDOF 6
ENDMDL
