REMARK  6 active torsions:
REMARK  status: ('A' for Active; 'I' for Inactive)
REMARK    1  A    between atoms: C_8  and  C_9 
REMARK    2  A    between atoms: C_9  and  O_10 
REMARK    3  A    between atoms: O_10  and  C_11 
REMARK    4  A    between atoms: C_11  and  C_12 
REMARK    5  A    between atoms: C_13  and  C_12 
REMARK    6  A    between atoms: C_31  and  O_32 
ROOT
HETATM    1  C   UNK N   1      -2.075   0.822   0.061  0.00  0.00    -0.009 C 
HETATM    2  C   UNK N   1      -1.108  -0.252   0.586  0.00  0.00     0.013 C 
HETATM    3  C   UNK N   1       0.132  -0.346  -0.332  0.00  0.00     0.007 C 
HETATM    4  C   UNK N   1       0.843   1.002  -0.615  0.00  0.00    -0.002 C 
HETATM    5  C   UNK N   1       1.905   1.343   0.474  0.00  0.00    -0.036 C 
HETATM    6  C   UNK N   1       1.296   1.449   1.872  0.00  0.00     0.016 C 
HETATM    7  C   UNK N   1       2.955   0.199   0.548  0.00  0.00     0.017 C 
HETATM    8  C   UNK N   1       4.378   0.619   0.165  0.00  0.00     0.079 C 
HETATM    9  C   UNK N   1       4.740   1.865   0.921  0.00  0.00     0.127 C 
HETATM   10  O   UNK N   1       5.798   1.927   1.523  0.00  0.00    -0.298 OA
HETATM   11  C   UNK N   1       3.769   3.019   0.965  0.00  0.00     0.083 C 
HETATM   12  C   UNK N   1       2.567   2.695   0.073  0.00  0.00     0.001 C 
HETATM   13  C   UNK N   1       1.525   3.810   0.064  0.00  0.00     0.006 C 
HETATM   14  C   UNK N   1       0.520   3.528  -1.056  0.00  0.00     0.006 C 
HETATM   15  C   UNK N   1      -0.173   2.156  -0.938  0.00  0.00    -0.005 C 
HETATM   16  C   UNK N   1      -1.340   2.167   0.062  0.00  0.00     0.001 C 
HETATM   17  C   UNK N   1      -2.461   3.174  -0.182  0.00  0.00     0.008 C 
HETATM   18  C   UNK N   1      -3.693   2.542   0.494  0.00  0.00     0.033 C 
HETATM   19  C   UNK N   1      -3.225   1.173   1.004  0.00  0.00     0.127 C 
ENDROOT
BRANCH   1  20
HETATM   20  C   UNK N   1      -2.710   0.463  -1.330  0.00  0.00     0.038 C 
BRANCH  20  21
HETATM   21  C   UNK N   1      -2.031  -0.593  -2.200  0.00  0.00     0.169 C 
BRANCH  21  22
HETATM   22  O   UNK N   1      -2.544  -1.855  -1.887  0.00  0.00    -0.387 OA
BRANCH  22  23
HETATM   23  C   UNK N   1      -1.432  -2.695  -1.755  0.00  0.00     0.206 C 
BRANCH  23  24
HETATM   24  C   UNK N   1      -1.743  -3.898  -0.914  0.00  0.00    -0.029 A 
HETATM   25  C   UNK N   1      -3.009  -4.073  -0.332  0.00  0.00     0.051 A 
HETATM   26  C   UNK N   1      -3.283  -5.212   0.430  0.00  0.00     0.119 A 
HETATM   27  C   UNK N   1      -2.296  -6.185   0.613  0.00  0.00     0.084 A 
HETATM   28  F   UNK N   1      -4.507  -5.376   0.986  0.00  0.00    -0.206 F 
HETATM   29  C   UNK N   1      -1.034  -6.017   0.037  0.00  0.00     0.119 A 
HETATM   30  C   UNK N   1      -0.758  -4.875  -0.725  0.00  0.00     0.051 A 
HETATM   31  F   UNK N   1      -0.080  -6.963   0.211  0.00  0.00    -0.206 F 
ENDBRANCH  23  24
ENDBRANCH  22  23
ENDBRANCH  21  22
ENDBRANCH  20  21
ENDBRANCH   1  20
BRANCH  19  32
HETATM   32  O   UNK N   1      -4.255   0.228   0.980  0.00  0.00    -0.395 OA
HETATM   33  H   UNK N   1      -5.180   0.519   0.963  0.00  0.00     0.210 HD
ENDBRANCH  19  32
TORSDOF 6
