MODEL 1
REMARK VINA RESULT:      -5.2      0.000      0.000
REMARK  1 active torsions:
REMARK  status: ('A' for Active; 'I' for Inactive)
REMARK    1  A    between atoms: C_1  and  C_8 
ROOT
HETATM    1  C   UNK N   1      29.578  17.102   7.558  0.00  0.00     0.044 C 
HETATM    2  C   UNK N   1      30.870  16.426   7.111  0.00  0.00     0.036 C 
HETATM    3  C   UNK N   1      31.709  16.526   8.395  0.00  0.00     0.077 C 
HETATM    4  C   UNK N   1      32.308  17.922   8.408  0.00  0.00     0.027 C 
HETATM    5  C   UNK N   1      31.079  18.763   8.737  0.00  0.00     0.027 C 
HETATM    6  C   UNK N   1      30.004  17.684   8.912  0.00  0.00     0.085 C 
HETATM    7  N   UNK N   1      30.741  16.576   9.479  0.00  0.00    -0.412 N 
HETATM    8  H   UNK N   1      30.625  16.028  10.330  0.00  0.00     0.154 HD
ENDROOT
BRANCH   1   9
HETATM    9  C   UNK N   1      28.935  18.031   6.555  0.00  0.00    -0.036 A 
HETATM   10  C   UNK N   1      28.010  19.009   6.942  0.00  0.00     0.012 A 
HETATM   11  C   UNK N   1      27.360  19.778   5.975  0.00  0.00     0.043 A 
HETATM   12  C   UNK N   1      27.638  19.559   4.625  0.00  0.00     0.103 A 
HETATM   13 Cl   UNK N   1      26.798  20.480   3.397  0.00  0.00    -0.065 Cl
HETATM   14  N   UNK N   1      28.549  18.614   4.262  0.00  0.00    -0.356 N 
HETATM   15  C   UNK N   1      29.191  17.854   5.188  0.00  0.00     0.096 A 
ATOM     16  HN  UNK N   1      28.753  18.472   3.273  1.00  0.00     0.166 HD
ENDBRANCH   1   9
TORSDOF 1
ENDMDL
MODEL 2
REMARK VINA RESULT:      -5.1     14.526     15.537
REMARK  1 active torsions:
REMARK  status: ('A' for Active; 'I' for Inactive)
REMARK    1  A    between atoms: C_1  and  C_8 
ROOT
HETATM    1  C   UNK N   1      25.793  27.748  -5.136  0.00  0.00     0.044 C 
HETATM    2  C   UNK N   1      25.718  27.954  -3.627  0.00  0.00     0.036 C 
HETATM    3  C   UNK N   1      26.768  29.059  -3.432  0.00  0.00     0.077 C 
HETATM    4  C   UNK N   1      28.118  28.365  -3.387  0.00  0.00     0.027 C 
HETATM    5  C   UNK N   1      28.296  27.977  -4.851  0.00  0.00     0.027 C 
HETATM    6  C   UNK N   1      27.035  28.578  -5.485  0.00  0.00     0.085 C 
HETATM    7  N   UNK N   1      26.810  29.771  -4.699  0.00  0.00    -0.412 N 
HETATM    8  H   UNK N   1      26.715  30.755  -4.945  0.00  0.00     0.154 HD
ENDROOT
BRANCH   1   9
HETATM    9  C   UNK N   1      25.736  26.316  -5.612  0.00  0.00    -0.036 A 
HETATM   10  C   UNK N   1      25.928  25.238  -4.737  0.00  0.00     0.012 A 
HETATM   11  C   UNK N   1      25.972  23.935  -5.232  0.00  0.00     0.043 A 
HETATM   12  C   UNK N   1      25.827  23.717  -6.603  0.00  0.00     0.103 A 
HETATM   13 Cl   UNK N   1      25.927  22.094  -7.249  0.00  0.00    -0.065 Cl
HETATM   14  N   UNK N   1      25.629  24.771  -7.442  0.00  0.00    -0.356 N 
HETATM   15  C   UNK N   1      25.585  26.048  -6.981  0.00  0.00     0.096 A 
ATOM     16  HN  UNK N   1      25.512  24.598  -8.440  1.00  0.00     0.166 HD
ENDBRANCH   1   9
TORSDOF 1
ENDMDL
MODEL 3
REMARK VINA RESULT:      -5.1     10.951     13.086
REMARK  1 active torsions:
REMARK  status: ('A' for Active; 'I' for Inactive)
REMARK    1  A    between atoms: C_1  and  C_8 
ROOT
HETATM    1  C   UNK N   1      36.945  12.924  14.526  0.00  0.00     0.044 C 
HETATM    2  C   UNK N   1      37.545  11.869  13.603  0.00  0.00     0.036 C 
HETATM    3  C   UNK N   1      37.111  12.405  12.229  0.00  0.00     0.077 C 
HETATM    4  C   UNK N   1      35.680  11.939  12.020  0.00  0.00     0.027 C 
HETATM    5  C   UNK N   1      34.933  12.846  12.993  0.00  0.00     0.027 C 
HETATM    6  C   UNK N   1      36.072  13.714  13.542  0.00  0.00     0.085 C 
HETATM    7  N   UNK N   1      36.964  13.840  12.410  0.00  0.00    -0.412 N 
HETATM    8  H   UNK N   1      37.349  14.644  11.917  0.00  0.00     0.154 HD
ENDROOT
BRANCH   1   9
HETATM    9  C   UNK N   1      36.301  12.407  15.791  0.00  0.00    -0.036 A 
HETATM   10  C   UNK N   1      35.613  13.254  16.669  0.00  0.00     0.012 A 
HETATM   11  C   UNK N   1      35.122  12.760  17.878  0.00  0.00     0.043 A 
HETATM   12  C   UNK N   1      35.326  11.418  18.202  0.00  0.00     0.103 A 
HETATM   13 Cl   UNK N   1      34.760  10.791  19.735  0.00  0.00    -0.065 Cl
HETATM   14  N   UNK N   1      35.986  10.601  17.335  0.00  0.00    -0.356 N 
HETATM   15  C   UNK N   1      36.474  11.063  16.155  0.00  0.00     0.096 A 
ATOM     16  HN  UNK N   1      36.118   9.619  17.578  1.00  0.00     0.166 HD
ENDBRANCH   1   9
TORSDOF 1
ENDMDL
MODEL 4
REMARK VINA RESULT:      -5.1     11.092     12.587
REMARK  1 active torsions:
REMARK  status: ('A' for Active; 'I' for Inactive)
REMARK    1  A    between atoms: C_1  and  C_8 
ROOT
HETATM    1  C   UNK N   1      30.044  24.113  -3.347  0.00  0.00     0.044 C 
HETATM    2  C   UNK N   1      29.943  23.004  -2.305  0.00  0.00     0.036 C 
HETATM    3  C   UNK N   1      31.005  22.021  -2.824  0.00  0.00     0.077 C 
HETATM    4  C   UNK N   1      30.338  21.209  -3.920  0.00  0.00     0.027 C 
HETATM    5  C   UNK N   1      30.254  22.243  -5.038  0.00  0.00     0.027 C 
HETATM    6  C   UNK N   1      30.947  23.450  -4.395  0.00  0.00     0.085 C 
HETATM    7  N   UNK N   1      31.956  22.841  -3.557  0.00  0.00    -0.412 N 
HETATM    8  H   UNK N   1      32.968  22.947  -3.501  0.00  0.00     0.154 HD
ENDROOT
BRANCH   1   9
HETATM    9  C   UNK N   1      28.735  24.708  -3.809  0.00  0.00    -0.036 A 
HETATM   10  C   UNK N   1      27.501  24.167  -3.424  0.00  0.00     0.012 A 
HETATM   11  C   UNK N   1      26.317  24.680  -3.954  0.00  0.00     0.043 A 
HETATM   12  C   UNK N   1      26.375  25.730  -4.871  0.00  0.00     0.103 A 
HETATM   13 Cl   UNK N   1      24.903  26.355  -5.583  0.00  0.00    -0.065 Cl
HETATM   14  N   UNK N   1      27.579  26.256  -5.228  0.00  0.00    -0.356 N 
HETATM   15  C   UNK N   1      28.744  25.769  -4.725  0.00  0.00     0.096 A 
ATOM     16  HN  UNK N   1      27.608  27.031  -5.889  1.00  0.00     0.166 HD
ENDBRANCH   1   9
TORSDOF 1
ENDMDL
MODEL 5
REMARK VINA RESULT:      -5.0      1.443      1.850
REMARK  1 active torsions:
REMARK  status: ('A' for Active; 'I' for Inactive)
REMARK    1  A    between atoms: C_1  and  C_8 
ROOT
HETATM    1  C   UNK N   1      31.309  16.468   7.632  0.00  0.00     0.044 C 
HETATM    2  C   UNK N   1      32.383  15.658   6.913  0.00  0.00     0.036 C 
HETATM    3  C   UNK N   1      33.598  15.920   7.818  0.00  0.00     0.077 C 
HETATM    4  C   UNK N   1      34.165  17.264   7.395  0.00  0.00     0.027 C 
HETATM    5  C   UNK N   1      33.111  18.214   7.954  0.00  0.00     0.027 C 
HETATM    6  C   UNK N   1      32.156  17.239   8.652  0.00  0.00     0.085 C 
HETATM    7  N   UNK N   1      33.040  16.200   9.131  0.00  0.00    -0.412 N 
HETATM    8  H   UNK N   1      33.211  15.806  10.055  0.00  0.00     0.154 HD
ENDROOT
BRANCH   1   9
HETATM    9  C   UNK N   1      30.370  17.253   6.747  0.00  0.00    -0.036 A 
HETATM   10  C   UNK N   1      29.215  17.864   7.254  0.00  0.00     0.012 A 
HETATM   11  C   UNK N   1      28.319  18.492   6.389  0.00  0.00     0.043 A 
HETATM   12  C   UNK N   1      28.583  18.502   5.018  0.00  0.00     0.103 A 
HETATM   13 Cl   UNK N   1      27.446  19.243   3.913  0.00  0.00    -0.065 Cl
HETATM   14  N   UNK N   1      29.715  17.916   4.539  0.00  0.00    -0.356 N 
HETATM   15  C   UNK N   1      30.599  17.298   5.364  0.00  0.00     0.096 A 
ATOM     16  HN  UNK N   1      29.902  17.941   3.537  1.00  0.00     0.166 HD
ENDBRANCH   1   9
TORSDOF 1
ENDMDL
MODEL 6
REMARK VINA RESULT:      -5.0     13.988     14.799
REMARK  1 active torsions:
REMARK  status: ('A' for Active; 'I' for Inactive)
REMARK    1  A    between atoms: C_1  and  C_8 
ROOT
HETATM    1  C   UNK N   1      26.947  26.101  -3.789  0.00  0.00     0.044 C 
HETATM    2  C   UNK N   1      28.152  27.017  -3.977  0.00  0.00     0.036 C 
HETATM    3  C   UNK N   1      27.501  28.395  -3.784  0.00  0.00     0.077 C 
HETATM    4  C   UNK N   1      26.870  28.761  -5.116  0.00  0.00     0.027 C 
HETATM    5  C   UNK N   1      25.672  27.818  -5.140  0.00  0.00     0.027 C 
HETATM    6  C   UNK N   1      25.801  27.120  -3.781  0.00  0.00     0.085 C 
HETATM    7  N   UNK N   1      26.347  28.155  -2.931  0.00  0.00    -0.412 N 
HETATM    8  H   UNK N   1      26.037  28.568  -2.053  0.00  0.00     0.154 HD
ENDROOT
BRANCH   1   9
HETATM    9  C   UNK N   1      26.852  24.930  -4.739  0.00  0.00    -0.036 A 
HETATM   10  C   UNK N   1      27.977  24.426  -5.406  0.00  0.00     0.012 A 
HETATM   11  C   UNK N   1      27.832  23.412  -6.353  0.00  0.00     0.043 A 
HETATM   12  C   UNK N   1      26.560  22.910  -6.630  0.00  0.00     0.103 A 
HETATM   13 Cl   UNK N   1      26.353  21.672  -7.850  0.00  0.00    -0.065 Cl
HETATM   14  N   UNK N   1      25.476  23.399  -5.967  0.00  0.00    -0.356 N 
HETATM   15  C   UNK N   1      25.595  24.388  -5.043  0.00  0.00     0.096 A 
ATOM     16  HN  UNK N   1      24.553  23.015  -6.170  1.00  0.00     0.166 HD
ENDBRANCH   1   9
TORSDOF 1
ENDMDL
MODEL 7
REMARK VINA RESULT:      -5.0      4.354      6.270
REMARK  1 active torsions:
REMARK  status: ('A' for Active; 'I' for Inactive)
REMARK    1  A    between atoms: C_1  and  C_8 
ROOT
HETATM    1  C   UNK N   1      31.689  16.898   5.436  0.00  0.00     0.044 C 
HETATM    2  C   UNK N   1      32.141  17.785   4.280  0.00  0.00     0.036 C 
HETATM    3  C   UNK N   1      31.966  16.826   3.093  0.00  0.00     0.077 C 
HETATM    4  C   UNK N   1      33.208  15.953   3.060  0.00  0.00     0.027 C 
HETATM    5  C   UNK N   1      32.964  15.052   4.266  0.00  0.00     0.027 C 
HETATM    6  C   UNK N   1      31.587  15.536   4.738  0.00  0.00     0.085 C 
HETATM    7  N   UNK N   1      30.926  15.897   3.504  0.00  0.00    -0.412 N 
HETATM    8  H   UNK N   1      30.048  15.606   3.077  0.00  0.00     0.154 HD
ENDROOT
BRANCH   1   9
HETATM    9  C   UNK N   1      32.509  16.991   6.701  0.00  0.00    -0.036 A 
HETATM   10  C   UNK N   1      33.741  17.658   6.736  0.00  0.00     0.012 A 
HETATM   11  C   UNK N   1      34.517  17.633   7.895  0.00  0.00     0.043 A 
HETATM   12  C   UNK N   1      34.057  16.936   9.013  0.00  0.00     0.103 A 
HETATM   13 Cl   UNK N   1      35.038  16.853  10.459  0.00  0.00    -0.065 Cl
HETATM   14  N   UNK N   1      32.853  16.301   8.971  0.00  0.00    -0.356 N 
HETATM   15  C   UNK N   1      32.083  16.312   7.851  0.00  0.00     0.096 A 
ATOM     16  HN  UNK N   1      32.522  15.806   9.798  1.00  0.00     0.166 HD
ENDBRANCH   1   9
TORSDOF 1
ENDMDL
MODEL 8
REMARK VINA RESULT:      -4.9      4.794      7.253
REMARK  1 active torsions:
REMARK  status: ('A' for Active; 'I' for Inactive)
REMARK    1  A    between atoms: C_1  and  C_8 
ROOT
HETATM    1  C   UNK N   1      33.294  16.099   7.884  0.00  0.00     0.044 C 
HETATM    2  C   UNK N   1      32.052  15.265   7.586  0.00  0.00     0.036 C 
HETATM    3  C   UNK N   1      31.150  16.316   6.920  0.00  0.00     0.077 C 
HETATM    4  C   UNK N   1      30.496  17.096   8.047  0.00  0.00     0.027 C 
HETATM    5  C   UNK N   1      31.674  17.925   8.549  0.00  0.00     0.027 C 
HETATM    6  C   UNK N   1      32.781  17.511   7.572  0.00  0.00     0.085 C 
HETATM    7  N   UNK N   1      32.062  17.286   6.337  0.00  0.00    -0.412 N 
HETATM    8  H   UNK N   1      32.160  17.670   5.399  0.00  0.00     0.154 HD
ENDROOT
BRANCH   1   9
HETATM    9  C   UNK N   1      33.947  15.859   9.225  0.00  0.00    -0.036 A 
HETATM   10  C   UNK N   1      34.980  16.677   9.700  0.00  0.00     0.012 A 
HETATM   11  C   UNK N   1      35.628  16.361  10.895  0.00  0.00     0.043 A 
HETATM   12  C   UNK N   1      35.239  15.225  11.606  0.00  0.00     0.103 A 
HETATM   13 Cl   UNK N   1      36.072  14.787  13.082  0.00  0.00    -0.065 Cl
HETATM   14  N   UNK N   1      34.225  14.444  11.140  0.00  0.00    -0.356 N 
HETATM   15  C   UNK N   1      33.583  14.733   9.978  0.00  0.00     0.096 A 
ATOM     16  HN  UNK N   1      33.942  13.624  11.675  1.00  0.00     0.166 HD
ENDBRANCH   1   9
TORSDOF 1
ENDMDL
MODEL 9
REMARK VINA RESULT:      -4.9      6.359      8.411
REMARK  1 active torsions:
REMARK  status: ('A' for Active; 'I' for Inactive)
REMARK    1  A    between atoms: C_1  and  C_8 
ROOT
HETATM    1  C   UNK N   1      35.281  13.665  11.848  0.00  0.00     0.044 C 
HETATM    2  C   UNK N   1      34.934  12.286  11.297  0.00  0.00     0.036 C 
HETATM    3  C   UNK N   1      36.160  11.477  11.748  0.00  0.00     0.077 C 
HETATM    4  C   UNK N   1      37.248  11.740  10.722  0.00  0.00     0.027 C 
HETATM    5  C   UNK N   1      37.637  13.173  11.071  0.00  0.00     0.027 C 
HETATM    6  C   UNK N   1      36.737  13.452  12.280  0.00  0.00     0.085 C 
HETATM    7  N   UNK N   1      36.654  12.162  12.931  0.00  0.00    -0.412 N 
HETATM    8  H   UNK N   1      36.866  11.848  13.877  0.00  0.00     0.154 HD
ENDROOT
BRANCH   1   9
HETATM    9  C   UNK N   1      34.970  14.836  10.945  0.00  0.00    -0.036 A 
HETATM   10  C   UNK N   1      34.453  14.657   9.655  0.00  0.00     0.012 A 
HETATM   11  C   UNK N   1      34.277  15.756   8.814  0.00  0.00     0.043 A 
HETATM   12  C   UNK N   1      34.624  17.029   9.268  0.00  0.00     0.103 A 
HETATM   13 Cl   UNK N   1      34.456  18.413   8.211  0.00  0.00    -0.065 Cl
HETATM   14  N   UNK N   1      35.115  17.192  10.528  0.00  0.00    -0.356 N 
HETATM   15  C   UNK N   1      35.296  16.134  11.362  0.00  0.00     0.096 A 
ATOM     16  HN  UNK N   1      35.354  18.128  10.853  1.00  0.00     0.166 HD
ENDBRANCH   1   9
TORSDOF 1
ENDMDL
