MODEL 1
REMARK VINA RESULT:      -5.0      0.000      0.000
REMARK  7 active torsions:
REMARK  status: ('A' for Active; 'I' for Inactive)
REMARK    1  A    between atoms: P_2  and  O_3 
REMARK    2  A    between atoms: P_2  and  O_6 
REMARK    3  A    between atoms: P_2  and  O_9 
REMARK    4  A    between atoms: O_3  and  C_4 
REMARK    5  A    between atoms: O_6  and  C_7 
REMARK    6  A    between atoms: O_9  and  C_10 
REMARK    7  A    between atoms: C_13  and  O_14 
ROOT
HETATM    1  O   UNK N   1      35.055  13.331  15.132  0.00  0.00    -0.250 OA
ENDROOT
BRANCH   1   2
HETATM    2  P   UNK N   1      36.237  13.160  13.874  0.00  0.00     0.482 P 
HETATM    3  O   UNK N   1      36.320  14.702  14.046  0.00  0.00    -0.227 OA
BRANCH   2   4
HETATM    4  O   UNK N   1      36.022  13.748  12.247  0.00  0.00    -0.293 OA
BRANCH   4   5
HETATM    5  C   UNK N   1      36.001  15.141  12.359  0.00  0.00     0.176 C 
HETATM    6  C   UNK N   1      35.986  15.767  10.979  0.00  0.00     0.034 C 
ENDBRANCH   4   5
ENDBRANCH   2   4
BRANCH   2   7
HETATM    7  O   UNK N   1      34.635  12.791  13.282  0.00  0.00    -0.293 OA
BRANCH   7   8
HETATM    8  C   UNK N   1      34.738  11.583  12.581  0.00  0.00     0.176 C 
HETATM    9  C   UNK N   1      33.934  10.522  13.303  0.00  0.00     0.034 C 
ENDBRANCH   7   8
ENDBRANCH   2   7
ENDBRANCH   1   2
BRANCH   1  10
HETATM   10  C   UNK N   1      35.107  12.789  16.378  0.00  0.00     0.081 A 
HETATM   11  C   UNK N   1      35.196  11.402  16.586  0.00  0.00     0.040 A 
HETATM   12  C   UNK N   1      35.309  10.891  17.882  0.00  0.00     0.039 A 
HETATM   13  C   UNK N   1      35.319  11.760  18.988  0.00  0.00     0.068 A 
HETATM   14  C   UNK N   1      35.198  13.137  18.778  0.00  0.00     0.039 A 
HETATM   15  C   UNK N   1      35.098  13.647  17.481  0.00  0.00     0.040 A 
BRANCH  13  16
HETATM   16  O   UNK N   1      35.455  11.301  20.255  0.00  0.00    -0.356 OA
HETATM   17  C   UNK N   1      34.636  10.339  20.800  0.00  0.00     0.210 C 
ENDBRANCH  13  16
ENDBRANCH   1  10
TORSDOF 7
ENDMDL
MODEL 2
REMARK VINA RESULT:      -5.0     25.275     26.708
REMARK  7 active torsions:
REMARK  status: ('A' for Active; 'I' for Inactive)
REMARK    1  A    between atoms: P_2  and  O_3 
REMARK    2  A    between atoms: P_2  and  O_6 
REMARK    3  A    between atoms: P_2  and  O_9 
REMARK    4  A    between atoms: O_3  and  C_4 
REMARK    5  A    between atoms: O_6  and  C_7 
REMARK    6  A    between atoms: O_9  and  C_10 
REMARK    7  A    between atoms: C_13  and  O_14 
ROOT
HETATM    1  O   UNK N   1      25.437  24.257  -6.188  0.00  0.00    -0.250 OA
ENDROOT
BRANCH   1   2
HETATM    2  P   UNK N   1      26.063  24.099  -7.797  0.00  0.00     0.482 P 
HETATM    3  O   UNK N   1      24.666  23.463  -8.042  0.00  0.00    -0.227 OA
BRANCH   2   4
HETATM    4  O   UNK N   1      26.451  22.573  -8.548  0.00  0.00    -0.293 OA
BRANCH   4   5
HETATM    5  C   UNK N   1      25.292  21.801  -8.430  0.00  0.00     0.176 C 
HETATM    6  C   UNK N   1      25.664  20.341  -8.256  0.00  0.00     0.034 C 
ENDBRANCH   4   5
ENDBRANCH   2   4
BRANCH   2   7
HETATM    7  O   UNK N   1      26.919  23.055  -6.688  0.00  0.00    -0.293 OA
BRANCH   7   8
HETATM    8  C   UNK N   1      28.284  23.295  -6.888  0.00  0.00     0.176 C 
HETATM    9  C   UNK N   1      29.076  22.548  -5.834  0.00  0.00     0.034 C 
ENDBRANCH   7   8
ENDBRANCH   2   7
ENDBRANCH   1   2
BRANCH   1  10
HETATM   10  C   UNK N   1      25.567  25.332  -5.366  0.00  0.00     0.081 A 
HETATM   11  C   UNK N   1      26.269  25.263  -4.151  0.00  0.00     0.040 A 
HETATM   12  C   UNK N   1      26.430  26.408  -3.365  0.00  0.00     0.039 A 
HETATM   13  C   UNK N   1      25.877  27.634  -3.778  0.00  0.00     0.068 A 
HETATM   14  C   UNK N   1      25.153  27.691  -4.972  0.00  0.00     0.039 A 
HETATM   15  C   UNK N   1      25.003  26.548  -5.762  0.00  0.00     0.040 A 
BRANCH  13  16
HETATM   16  O   UNK N   1      26.038  28.768  -3.055  0.00  0.00    -0.356 OA
HETATM   17  C   UNK N   1      26.530  29.938  -3.588  0.00  0.00     0.210 C 
ENDBRANCH  13  16
ENDBRANCH   1  10
TORSDOF 7
ENDMDL
MODEL 3
REMARK VINA RESULT:      -4.9     25.208     26.611
REMARK  7 active torsions:
REMARK  status: ('A' for Active; 'I' for Inactive)
REMARK    1  A    between atoms: P_2  and  O_3 
REMARK    2  A    between atoms: P_2  and  O_6 
REMARK    3  A    between atoms: P_2  and  O_9 
REMARK    4  A    between atoms: O_3  and  C_4 
REMARK    5  A    between atoms: O_6  and  C_7 
REMARK    6  A    between atoms: O_9  and  C_10 
REMARK    7  A    between atoms: C_13  and  O_14 
ROOT
HETATM    1  O   UNK N   1      26.374  28.676  -2.942  0.00  0.00    -0.250 OA
ENDROOT
BRANCH   1   2
HETATM    2  P   UNK N   1      27.975  29.290  -2.682  0.00  0.00     0.482 P 
HETATM    3  O   UNK N   1      27.515  29.239  -1.198  0.00  0.00    -0.227 OA
BRANCH   2   4
HETATM    4  O   UNK N   1      28.321  30.900  -2.108  0.00  0.00    -0.293 OA
BRANCH   4   5
HETATM    5  C   UNK N   1      29.338  30.742  -1.161  0.00  0.00     0.176 C 
HETATM    6  C   UNK N   1      30.678  30.628  -1.860  0.00  0.00     0.034 C 
ENDBRANCH   4   5
ENDBRANCH   2   4
BRANCH   2   7
HETATM    7  O   UNK N   1      26.976  30.472  -3.492  0.00  0.00    -0.293 OA
BRANCH   7   8
HETATM    8  C   UNK N   1      27.777  31.062  -4.478  0.00  0.00     0.176 C 
HETATM    9  C   UNK N   1      28.097  30.030  -5.539  0.00  0.00     0.034 C 
ENDBRANCH   7   8
ENDBRANCH   2   7
ENDBRANCH   1   2
BRANCH   1  10
HETATM   10  C   UNK N   1      26.023  27.621  -3.724  0.00  0.00     0.081 A 
HETATM   11  C   UNK N   1      25.160  27.760  -4.824  0.00  0.00     0.040 A 
HETATM   12  C   UNK N   1      24.875  26.660  -5.637  0.00  0.00     0.039 A 
HETATM   13  C   UNK N   1      25.437  25.402  -5.352  0.00  0.00     0.068 A 
HETATM   14  C   UNK N   1      26.270  25.262  -4.238  0.00  0.00     0.039 A 
HETATM   15  C   UNK N   1      26.564  26.365  -3.433  0.00  0.00     0.040 A 
BRANCH  13  16
HETATM   16  O   UNK N   1      25.204  24.323  -6.135  0.00  0.00    -0.356 OA
HETATM   17  C   UNK N   1      26.083  23.269  -6.249  0.00  0.00     0.210 C 
ENDBRANCH  13  16
ENDBRANCH   1  10
TORSDOF 7
ENDMDL
MODEL 4
REMARK VINA RESULT:      -4.8     13.386     16.863
REMARK  7 active torsions:
REMARK  status: ('A' for Active; 'I' for Inactive)
REMARK    1  A    between atoms: P_2  and  O_3 
REMARK    2  A    between atoms: P_2  and  O_6 
REMARK    3  A    between atoms: P_2  and  O_9 
REMARK    4  A    between atoms: O_3  and  C_4 
REMARK    5  A    between atoms: O_6  and  C_7 
REMARK    6  A    between atoms: O_9  and  C_10 
REMARK    7  A    between atoms: C_13  and  O_14 
ROOT
HETATM    1  O   UNK N   1      26.235  18.087   4.558  0.00  0.00    -0.250 OA
ENDROOT
BRANCH   1   2
HETATM    2  P   UNK N   1      27.910  18.533   4.541  0.00  0.00     0.482 P 
HETATM    3  O   UNK N   1      28.083  17.019   4.236  0.00  0.00    -0.227 OA
BRANCH   2   4
HETATM    4  O   UNK N   1      29.069  18.021   5.739  0.00  0.00    -0.293 OA
BRANCH   4   5
HETATM    5  C   UNK N   1      30.002  17.249   5.041  0.00  0.00     0.176 C 
HETATM    6  C   UNK N   1      31.278  17.130   5.851  0.00  0.00     0.034 C 
ENDBRANCH   4   5
ENDBRANCH   2   4
BRANCH   2   7
HETATM    7  O   UNK N   1      27.245  18.664   6.151  0.00  0.00    -0.293 OA
BRANCH   7   8
HETATM    8  C   UNK N   1      27.797  19.819   6.718  0.00  0.00     0.176 C 
HETATM    9  C   UNK N   1      26.789  20.947   6.621  0.00  0.00     0.034 C 
ENDBRANCH   7   8
ENDBRANCH   2   7
ENDBRANCH   1   2
BRANCH   1  10
HETATM   10  C   UNK N   1      25.198  18.794   4.034  0.00  0.00     0.081 A 
HETATM   11  C   UNK N   1      23.859  18.454   4.287  0.00  0.00     0.040 A 
HETATM   12  C   UNK N   1      22.824  19.245   3.778  0.00  0.00     0.039 A 
HETATM   13  C   UNK N   1      23.116  20.376   2.996  0.00  0.00     0.068 A 
HETATM   14  C   UNK N   1      24.450  20.692   2.720  0.00  0.00     0.039 A 
HETATM   15  C   UNK N   1      25.483  19.908   3.240  0.00  0.00     0.040 A 
BRANCH  13  16
HETATM   16  O   UNK N   1      22.140  21.179   2.510  0.00  0.00    -0.356 OA
HETATM   17  C   UNK N   1      20.899  20.715   2.135  0.00  0.00     0.210 C 
ENDBRANCH  13  16
ENDBRANCH   1  10
TORSDOF 7
ENDMDL
MODEL 5
REMARK VINA RESULT:      -4.7      5.046      7.810
REMARK  7 active torsions:
REMARK  status: ('A' for Active; 'I' for Inactive)
REMARK    1  A    between atoms: P_2  and  O_3 
REMARK    2  A    between atoms: P_2  and  O_6 
REMARK    3  A    between atoms: P_2  and  O_9 
REMARK    4  A    between atoms: O_3  and  C_4 
REMARK    5  A    between atoms: O_6  and  C_7 
REMARK    6  A    between atoms: O_9  and  C_10 
REMARK    7  A    between atoms: C_13  and  O_14 
ROOT
HETATM    1  O   UNK N   1      33.911  16.855   9.023  0.00  0.00    -0.250 OA
ENDROOT
BRANCH   1   2
HETATM    2  P   UNK N   1      34.130  16.818   7.303  0.00  0.00     0.482 P 
HETATM    3  O   UNK N   1      34.669  18.252   7.562  0.00  0.00    -0.227 OA
BRANCH   2   4
HETATM    4  O   UNK N   1      33.214  17.789   6.182  0.00  0.00    -0.293 OA
BRANCH   4   5
HETATM    5  C   UNK N   1      33.313  17.127   4.955  0.00  0.00     0.176 C 
HETATM    6  C   UNK N   1      32.212  17.598   4.026  0.00  0.00     0.034 C 
ENDBRANCH   4   5
ENDBRANCH   2   4
BRANCH   2   7
HETATM    7  O   UNK N   1      32.433  16.820   7.718  0.00  0.00    -0.293 OA
BRANCH   7   8
HETATM    8  C   UNK N   1      32.169  18.061   8.311  0.00  0.00     0.176 C 
HETATM    9  C   UNK N   1      30.714  18.108   8.733  0.00  0.00     0.034 C 
ENDBRANCH   7   8
ENDBRANCH   2   7
ENDBRANCH   1   2
BRANCH   1  10
HETATM   10  C   UNK N   1      34.500  16.038   9.937  0.00  0.00     0.081 A 
HETATM   11  C   UNK N   1      35.407  16.520  10.895  0.00  0.00     0.040 A 
HETATM   12  C   UNK N   1      35.942  15.656  11.855  0.00  0.00     0.039 A 
HETATM   13  C   UNK N   1      35.589  14.295  11.859  0.00  0.00     0.068 A 
HETATM   14  C   UNK N   1      34.711  13.813  10.883  0.00  0.00     0.039 A 
HETATM   15  C   UNK N   1      34.167  14.681   9.932  0.00  0.00     0.040 A 
BRANCH  13  16
HETATM   16  O   UNK N   1      36.067  13.437  12.790  0.00  0.00    -0.356 OA
HETATM   17  C   UNK N   1      35.880  13.611  14.143  0.00  0.00     0.210 C 
ENDBRANCH  13  16
ENDBRANCH   1  10
TORSDOF 7
ENDMDL
MODEL 6
REMARK VINA RESULT:      -4.6     20.951     24.129
REMARK  7 active torsions:
REMARK  status: ('A' for Active; 'I' for Inactive)
REMARK    1  A    between atoms: P_2  and  O_3 
REMARK    2  A    between atoms: P_2  and  O_6 
REMARK    3  A    between atoms: P_2  and  O_9 
REMARK    4  A    between atoms: O_3  and  C_4 
REMARK    5  A    between atoms: O_6  and  C_7 
REMARK    6  A    between atoms: O_9  and  C_10 
REMARK    7  A    between atoms: C_13  and  O_14 
ROOT
HETATM    1  O   UNK N   1      27.762  23.853  -4.652  0.00  0.00    -0.250 OA
ENDROOT
BRANCH   1   2
HETATM    2  P   UNK N   1      27.226  25.484  -4.405  0.00  0.00     0.482 P 
HETATM    3  O   UNK N   1      26.130  24.764  -3.570  0.00  0.00    -0.227 OA
BRANCH   2   4
HETATM    4  O   UNK N   1      25.745  26.134  -5.057  0.00  0.00    -0.293 OA
BRANCH   4   5
HETATM    5  C   UNK N   1      25.617  27.403  -4.484  0.00  0.00     0.176 C 
HETATM    6  C   UNK N   1      26.568  28.370  -5.162  0.00  0.00     0.034 C 
ENDBRANCH   4   5
ENDBRANCH   2   4
BRANCH   2   7
HETATM    7  O   UNK N   1      27.009  25.000  -6.069  0.00  0.00    -0.293 OA
BRANCH   7   8
HETATM    8  C   UNK N   1      25.933  24.104  -6.087  0.00  0.00     0.176 C 
HETATM    9  C   UNK N   1      25.834  23.477  -7.463  0.00  0.00     0.034 C 
ENDBRANCH   7   8
ENDBRANCH   2   7
ENDBRANCH   1   2
BRANCH   1  10
HETATM   10  C   UNK N   1      28.855  23.263  -4.099  0.00  0.00     0.081 A 
HETATM   11  C   UNK N   1      29.778  22.534  -4.867  0.00  0.00     0.040 A 
HETATM   12  C   UNK N   1      30.921  21.995  -4.269  0.00  0.00     0.039 A 
HETATM   13  C   UNK N   1      31.146  22.165  -2.891  0.00  0.00     0.068 A 
HETATM   14  C   UNK N   1      30.209  22.864  -2.125  0.00  0.00     0.039 A 
HETATM   15  C   UNK N   1      29.073  23.413  -2.727  0.00  0.00     0.040 A 
BRANCH  13  16
HETATM   16  O   UNK N   1      32.256  21.681  -2.285  0.00  0.00    -0.356 OA
HETATM   17  C   UNK N   1      33.248  21.003  -2.957  0.00  0.00     0.210 C 
ENDBRANCH  13  16
ENDBRANCH   1  10
TORSDOF 7
ENDMDL
MODEL 7
REMARK VINA RESULT:      -4.6      1.613      1.951
REMARK  7 active torsions:
REMARK  status: ('A' for Active; 'I' for Inactive)
REMARK    1  A    between atoms: P_2  and  O_3 
REMARK    2  A    between atoms: P_2  and  O_6 
REMARK    3  A    between atoms: P_2  and  O_9 
REMARK    4  A    between atoms: O_3  and  C_4 
REMARK    5  A    between atoms: O_6  and  C_7 
REMARK    6  A    between atoms: O_9  and  C_10 
REMARK    7  A    between atoms: C_13  and  O_14 
ROOT
HETATM    1  O   UNK N   1      34.583  12.691  13.826  0.00  0.00    -0.250 OA
ENDROOT
BRANCH   1   2
HETATM    2  P   UNK N   1      35.747  13.705  13.036  0.00  0.00     0.482 P 
HETATM    3  O   UNK N   1      34.493  14.136  12.224  0.00  0.00    -0.227 OA
BRANCH   2   4
HETATM    4  O   UNK N   1      36.260  13.497  11.383  0.00  0.00    -0.293 OA
BRANCH   4   5
HETATM    5  C   UNK N   1      36.116  14.756  10.792  0.00  0.00     0.176 C 
HETATM    6  C   UNK N   1      36.163  14.624   9.283  0.00  0.00     0.034 C 
ENDBRANCH   4   5
ENDBRANCH   2   4
BRANCH   2   7
HETATM    7  O   UNK N   1      36.041  12.021  12.679  0.00  0.00    -0.293 OA
BRANCH   7   8
HETATM    8  C   UNK N   1      37.431  11.864  12.611  0.00  0.00     0.176 C 
HETATM    9  C   UNK N   1      37.922  11.238  13.901  0.00  0.00     0.034 C 
ENDBRANCH   7   8
ENDBRANCH   2   7
ENDBRANCH   1   2
BRANCH   1  10
HETATM   10  C   UNK N   1      34.692  12.136  15.062  0.00  0.00     0.081 A 
HETATM   11  C   UNK N   1      34.461  10.769  15.291  0.00  0.00     0.040 A 
HETATM   12  C   UNK N   1      34.644  10.229  16.567  0.00  0.00     0.039 A 
HETATM   13  C   UNK N   1      35.045  11.052  17.635  0.00  0.00     0.068 A 
HETATM   14  C   UNK N   1      35.243  12.417  17.409  0.00  0.00     0.039 A 
HETATM   15  C   UNK N   1      35.072  12.954  16.130  0.00  0.00     0.040 A 
BRANCH  13  16
HETATM   16  O   UNK N   1      35.259  10.556  18.876  0.00  0.00    -0.356 OA
HETATM   17  C   UNK N   1      35.400  11.350  19.992  0.00  0.00     0.210 C 
ENDBRANCH  13  16
ENDBRANCH   1  10
TORSDOF 7
ENDMDL
MODEL 8
REMARK VINA RESULT:      -4.6      2.689      7.555
REMARK  7 active torsions:
REMARK  status: ('A' for Active; 'I' for Inactive)
REMARK    1  A    between atoms: P_2  and  O_3 
REMARK    2  A    between atoms: P_2  and  O_6 
REMARK    3  A    between atoms: P_2  and  O_9 
REMARK    4  A    between atoms: O_3  and  C_4 
REMARK    5  A    between atoms: O_6  and  C_7 
REMARK    6  A    between atoms: O_9  and  C_10 
REMARK    7  A    between atoms: C_13  and  O_14 
ROOT
HETATM    1  O   UNK N   1      34.678  13.853  12.383  0.00  0.00    -0.250 OA
ENDROOT
BRANCH   1   2
HETATM    2  P   UNK N   1      36.065  12.978  12.948  0.00  0.00     0.482 P 
HETATM    3  O   UNK N   1      35.572  11.950  11.891  0.00  0.00    -0.227 OA
BRANCH   2   4
HETATM    4  O   UNK N   1      35.978  11.492  13.856  0.00  0.00    -0.293 OA
BRANCH   4   5
HETATM    5  C   UNK N   1      37.051  10.720  13.400  0.00  0.00     0.176 C 
HETATM    6  C   UNK N   1      38.223  10.857  14.351  0.00  0.00     0.034 C 
ENDBRANCH   4   5
ENDBRANCH   2   4
BRANCH   2   7
HETATM    7  O   UNK N   1      34.838  13.073  14.188  0.00  0.00    -0.293 OA
BRANCH   7   8
HETATM    8  C   UNK N   1      35.512  13.259  15.402  0.00  0.00     0.176 C 
HETATM    9  C   UNK N   1      34.508  13.212  16.536  0.00  0.00     0.034 C 
ENDBRANCH   7   8
ENDBRANCH   2   7
ENDBRANCH   1   2
BRANCH   1  10
HETATM   10  C   UNK N   1      34.659  14.824  11.433  0.00  0.00     0.081 A 
HETATM   11  C   UNK N   1      35.517  15.936  11.483  0.00  0.00     0.040 A 
HETATM   12  C   UNK N   1      35.507  16.880  10.452  0.00  0.00     0.039 A 
HETATM   13  C   UNK N   1      34.627  16.732   9.364  0.00  0.00     0.068 A 
HETATM   14  C   UNK N   1      33.754  15.641   9.334  0.00  0.00     0.039 A 
HETATM   15  C   UNK N   1      33.774  14.691  10.359  0.00  0.00     0.040 A 
BRANCH  13  16
HETATM   16  O   UNK N   1      34.611  17.612   8.336  0.00  0.00    -0.356 OA
HETATM   17  C   UNK N   1      33.468  18.242   7.900  0.00  0.00     0.210 C 
ENDBRANCH  13  16
ENDBRANCH   1  10
TORSDOF 7
ENDMDL
MODEL 9
REMARK VINA RESULT:      -4.6     10.472     13.550
REMARK  7 active torsions:
REMARK  status: ('A' for Active; 'I' for Inactive)
REMARK    1  A    between atoms: P_2  and  O_3 
REMARK    2  A    between atoms: P_2  and  O_6 
REMARK    3  A    between atoms: P_2  and  O_9 
REMARK    4  A    between atoms: O_3  and  C_4 
REMARK    5  A    between atoms: O_6  and  C_7 
REMARK    6  A    between atoms: O_9  and  C_10 
REMARK    7  A    between atoms: C_13  and  O_14 
ROOT
HETATM    1  O   UNK N   1      29.729  16.872   4.051  0.00  0.00    -0.250 OA
ENDROOT
BRANCH   1   2
HETATM    2  P   UNK N   1      28.252  16.196   4.659  0.00  0.00     0.482 P 
HETATM    3  O   UNK N   1      28.589  15.090   3.620  0.00  0.00    -0.227 OA
BRANCH   2   4
HETATM    4  O   UNK N   1      26.782  16.069   3.729  0.00  0.00    -0.293 OA
BRANCH   4   5
HETATM    5  C   UNK N   1      27.158  15.460   2.529  0.00  0.00     0.176 C 
HETATM    6  C   UNK N   1      25.971  15.403   1.588  0.00  0.00     0.034 C 
ENDBRANCH   4   5
ENDBRANCH   2   4
BRANCH   2   7
HETATM    7  O   UNK N   1      27.946  17.667   3.767  0.00  0.00    -0.293 OA
BRANCH   7   8
HETATM    8  C   UNK N   1      27.292  18.538   4.646  0.00  0.00     0.176 C 
HETATM    9  C   UNK N   1      28.025  19.864   4.667  0.00  0.00     0.034 C 
ENDBRANCH   7   8
ENDBRANCH   2   7
ENDBRANCH   1   2
BRANCH   1  10
HETATM   10  C   UNK N   1      30.858  17.133   4.762  0.00  0.00     0.081 A 
HETATM   11  C   UNK N   1      30.895  17.047   6.164  0.00  0.00     0.040 A 
HETATM   12  C   UNK N   1      32.093  17.264   6.851  0.00  0.00     0.039 A 
HETATM   13  C   UNK N   1      33.267  17.583   6.144  0.00  0.00     0.068 A 
HETATM   14  C   UNK N   1      33.218  17.699   4.752  0.00  0.00     0.039 A 
HETATM   15  C   UNK N   1      32.022  17.470   4.066  0.00  0.00     0.040 A 
BRANCH  13  16
HETATM   16  O   UNK N   1      34.450  17.772   6.776  0.00  0.00    -0.356 OA
HETATM   17  C   UNK N   1      34.551  18.261   8.058  0.00  0.00     0.210 C 
ENDBRANCH  13  16
ENDBRANCH   1  10
TORSDOF 7
ENDMDL
