REMARK  7 active torsions:
REMARK  status: ('A' for Active; 'I' for Inactive)
REMARK    1  A    between atoms: P_2  and  O_3 
REMARK    2  A    between atoms: P_2  and  O_6 
REMARK    3  A    between atoms: P_2  and  O_9 
REMARK    4  A    between atoms: O_3  and  C_4 
REMARK    5  A    between atoms: O_6  and  C_7 
REMARK    6  A    between atoms: O_9  and  C_10 
REMARK    7  A    between atoms: C_13  and  O_14 
ROOT
HETATM    1  O   UNK N   1       0.629  -0.317   0.113  0.00  0.00    -0.250 OA
ENDROOT
BRANCH   1   2
HETATM    2  P   UNK N   1      -0.799  -1.153  -0.406  0.00  0.00     0.482 P 
HETATM    3  O   UNK N   1      -1.452  -0.260   0.686  0.00  0.00    -0.227 OA
BRANCH   2   4
HETATM    4  O   UNK N   1      -1.667  -2.304   0.575  0.00  0.00    -0.293 OA
BRANCH   4   5
HETATM    5  C   UNK N   1      -2.587  -2.904  -0.290  0.00  0.00     0.176 C 
HETATM    6  C   UNK N   1      -3.991  -2.452   0.060  0.00  0.00     0.034 C 
ENDBRANCH   4   5
ENDBRANCH   2   4
BRANCH   2   7
HETATM    7  O   UNK N   1       0.302  -2.240   0.405  0.00  0.00    -0.293 OA
BRANCH   7   8
HETATM    8  C   UNK N   1       0.809  -3.100  -0.577  0.00  0.00     0.176 C 
HETATM    9  C   UNK N   1       0.811  -4.517  -0.040  0.00  0.00     0.034 C 
ENDBRANCH   7   8
ENDBRANCH   2   7
ENDBRANCH   1   2
BRANCH   1  10
HETATM   10  C   UNK N   1       0.872   1.017   0.017  0.00  0.00     0.081 A 
HETATM   11  C   UNK N   1      -0.101   1.923  -0.437  0.00  0.00     0.040 A 
HETATM   12  C   UNK N   1       0.171   3.294  -0.462  0.00  0.00     0.039 A 
HETATM   13  C   UNK N   1       1.426   3.775  -0.047  0.00  0.00     0.068 A 
HETATM   14  C   UNK N   1       2.402   2.867   0.374  0.00  0.00     0.039 A 
HETATM   15  C   UNK N   1       2.124   1.498   0.410  0.00  0.00     0.040 A 
BRANCH  13  16
HETATM   16  O   UNK N   1       1.713   5.098  -0.032  0.00  0.00    -0.356 OA
HETATM   17  C   UNK N   1       0.794   6.073  -0.348  0.00  0.00     0.210 C 
ENDBRANCH  13  16
ENDBRANCH   1  10
TORSDOF 7
