MODEL 1
REMARK VINA RESULT:      -5.2      0.000      0.000
REMARK  6 active torsions:
REMARK  status: ('A' for Active; 'I' for Inactive)
REMARK    1  A    between atoms: C_1  and  O_2 
REMARK    2  A    between atoms: C_1  and  C_3 
REMARK    3  A    between atoms: C_3  and  C_4 
REMARK    4  A    between atoms: C_4  and  O_5 
REMARK    5  A    between atoms: O_5  and  C_13 
REMARK    6  A    between atoms: C_7  and  N_8 
ROOT
HETATM    1  C   UNK N   1      35.424  17.151  10.241  0.00  0.00     0.039 A 
HETATM    2  C   UNK N   1      34.609  17.129   9.105  0.00  0.00     0.103 A 
HETATM    3  C   UNK N   1      33.690  16.077   8.939  0.00  0.00     0.039 A 
HETATM    4  C   UNK N   1      33.591  15.062   9.902  0.00  0.00     0.039 A 
HETATM    5  C   UNK N   1      34.411  15.091  11.038  0.00  0.00     0.068 A 
HETATM    6  C   UNK N   1      35.326  16.146  11.195  0.00  0.00     0.039 A 
ENDROOT
BRANCH   5   7
HETATM    7  O   UNK N   1      34.319  14.112  11.972  0.00  0.00    -0.351 OA
BRANCH   7   8
HETATM    8  C   UNK N   1      35.374  13.248  12.184  0.00  0.00     0.178 C 
BRANCH   8   9
HETATM    9  C   UNK N   1      35.359  12.632  13.560  0.00  0.00     0.053 C 
BRANCH   9  10
HETATM   10  C   UNK N   1      35.985  13.654  14.490  0.00  0.00     0.166 C 
BRANCH  10  11
HETATM   11  O   UNK N   1      36.838  14.495  13.780  0.00  0.00    -0.401 OA
HETATM   12  H   UNK N   1      37.663  14.146  13.408  0.00  0.00     0.209 HD
ENDBRANCH  10  11
ENDBRANCH   9  10
ENDBRANCH   8   9
ENDBRANCH   7   8
ENDBRANCH   5   7
BRANCH   2  13
HETATM   13  N   UNK N   1      34.724  18.167   8.141  0.00  0.00    -0.116 N 
HETATM   14  O   UNK N   1      34.421  17.935   6.881  0.00  0.00    -0.532 OA
HETATM   15  O   UNK N   1      35.095  19.255   8.465  0.00  0.00    -0.532 OA
ENDBRANCH   2  13
TORSDOF 6
ENDMDL
MODEL 2
REMARK VINA RESULT:      -5.2     12.943     14.780
REMARK  6 active torsions:
REMARK  status: ('A' for Active; 'I' for Inactive)
REMARK    1  A    between atoms: C_1  and  O_2 
REMARK    2  A    between atoms: C_1  and  C_3 
REMARK    3  A    between atoms: C_3  and  C_4 
REMARK    4  A    between atoms: C_4  and  O_5 
REMARK    5  A    between atoms: O_5  and  C_13 
REMARK    6  A    between atoms: C_7  and  N_8 
ROOT
HETATM    1  C   UNK N   1      21.270  12.501  11.296  0.00  0.00     0.039 A 
HETATM    2  C   UNK N   1      22.656  12.480  11.115  0.00  0.00     0.103 A 
HETATM    3  C   UNK N   1      23.201  12.983   9.920  0.00  0.00     0.039 A 
HETATM    4  C   UNK N   1      22.365  13.501   8.920  0.00  0.00     0.039 A 
HETATM    5  C   UNK N   1      20.976  13.518   9.109  0.00  0.00     0.068 A 
HETATM    6  C   UNK N   1      20.441  13.013  10.306  0.00  0.00     0.039 A 
ENDROOT
BRANCH   5   7
HETATM    7  O   UNK N   1      20.163  14.018   8.145  0.00  0.00    -0.351 OA
BRANCH   7   8
HETATM    8  C   UNK N   1      20.392  15.272   7.618  0.00  0.00     0.178 C 
BRANCH   8   9
HETATM    9  C   UNK N   1      20.378  16.358   8.664  0.00  0.00     0.053 C 
BRANCH   9  10
HETATM   10  C   UNK N   1      18.933  16.798   8.802  0.00  0.00     0.166 C 
BRANCH  10  11
HETATM   11  O   UNK N   1      18.181  15.800   9.415  0.00  0.00    -0.401 OA
HETATM   12  H   UNK N   1      18.607  15.178  10.025  0.00  0.00     0.209 HD
ENDBRANCH  10  11
ENDBRANCH   9  10
ENDBRANCH   8   9
ENDBRANCH   7   8
ENDBRANCH   5   7
BRANCH   2  13
HETATM   13  N   UNK N   1      23.488  11.951  12.140  0.00  0.00    -0.116 N 
HETATM   14  O   UNK N   1      22.963  11.554  13.279  0.00  0.00    -0.532 OA
HETATM   15  O   UNK N   1      24.668  11.864  11.975  0.00  0.00    -0.532 OA
ENDBRANCH   2  13
TORSDOF 6
ENDMDL
MODEL 3
REMARK VINA RESULT:      -5.1      4.574      7.662
REMARK  6 active torsions:
REMARK  status: ('A' for Active; 'I' for Inactive)
REMARK    1  A    between atoms: C_1  and  O_2 
REMARK    2  A    between atoms: C_1  and  C_3 
REMARK    3  A    between atoms: C_3  and  C_4 
REMARK    4  A    between atoms: C_4  and  O_5 
REMARK    5  A    between atoms: O_5  and  C_13 
REMARK    6  A    between atoms: C_7  and  N_8 
ROOT
HETATM    1  C   UNK N   1      32.287  17.719   8.290  0.00  0.00     0.039 A 
HETATM    2  C   UNK N   1      33.575  17.840   7.761  0.00  0.00     0.103 A 
HETATM    3  C   UNK N   1      33.783  17.591   6.391  0.00  0.00     0.039 A 
HETATM    4  C   UNK N   1      32.709  17.226   5.566  0.00  0.00     0.039 A 
HETATM    5  C   UNK N   1      31.421  17.107   6.103  0.00  0.00     0.068 A 
HETATM    6  C   UNK N   1      31.223  17.357   7.472  0.00  0.00     0.039 A 
ENDROOT
BRANCH   5   7
HETATM    7  O   UNK N   1      30.379  16.754   5.309  0.00  0.00    -0.351 OA
BRANCH   7   8
HETATM    8  C   UNK N   1      29.413  17.679   4.972  0.00  0.00     0.178 C 
BRANCH   8   9
HETATM    9  C   UNK N   1      28.526  17.216   3.844  0.00  0.00     0.053 C 
BRANCH   9  10
HETATM   10  C   UNK N   1      29.370  16.285   2.994  0.00  0.00     0.166 C 
BRANCH  10  11
HETATM   11  O   UNK N   1      30.468  16.966   2.477  0.00  0.00    -0.401 OA
HETATM   12  H   UNK N   1      31.097  16.504   1.899  0.00  0.00     0.209 HD
ENDBRANCH  10  11
ENDBRANCH   9  10
ENDBRANCH   8   9
ENDBRANCH   7   8
ENDBRANCH   5   7
BRANCH   2  13
HETATM   13  N   UNK N   1      34.651  18.211   8.613  0.00  0.00    -0.116 N 
HETATM   14  O   UNK N   1      34.970  17.455   9.643  0.00  0.00    -0.532 OA
HETATM   15  O   UNK N   1      35.272  19.209   8.403  0.00  0.00    -0.532 OA
ENDBRANCH   2  13
TORSDOF 6
ENDMDL
MODEL 4
REMARK VINA RESULT:      -5.0     20.007     21.331
REMARK  6 active torsions:
REMARK  status: ('A' for Active; 'I' for Inactive)
REMARK    1  A    between atoms: C_1  and  O_2 
REMARK    2  A    between atoms: C_1  and  C_3 
REMARK    3  A    between atoms: C_3  and  C_4 
REMARK    4  A    between atoms: C_4  and  O_5 
REMARK    5  A    between atoms: O_5  and  C_13 
REMARK    6  A    between atoms: C_7  and  N_8 
ROOT
HETATM    1  C   UNK N   1      26.795  26.332  -3.687  0.00  0.00     0.039 A 
HETATM    2  C   UNK N   1      26.185  27.547  -4.011  0.00  0.00     0.103 A 
HETATM    3  C   UNK N   1      25.242  27.587  -5.054  0.00  0.00     0.039 A 
HETATM    4  C   UNK N   1      24.916  26.420  -5.761  0.00  0.00     0.039 A 
HETATM    5  C   UNK N   1      25.531  25.205  -5.430  0.00  0.00     0.068 A 
HETATM    6  C   UNK N   1      26.472  25.176  -4.387  0.00  0.00     0.039 A 
ENDROOT
BRANCH   5   7
HETATM    7  O   UNK N   1      25.219  24.074  -6.111  0.00  0.00    -0.351 OA
BRANCH   7   8
HETATM    8  C   UNK N   1      25.930  23.719  -7.238  0.00  0.00     0.178 C 
BRANCH   8   9
HETATM    9  C   UNK N   1      26.084  22.226  -7.387  0.00  0.00     0.053 C 
BRANCH   9  10
HETATM   10  C   UNK N   1      24.720  21.627  -7.101  0.00  0.00     0.166 C 
BRANCH  10  11
HETATM   11  O   UNK N   1      23.790  22.074  -8.035  0.00  0.00    -0.401 OA
HETATM   12  H   UNK N   1      23.818  22.992  -8.346  0.00  0.00     0.209 HD
ENDBRANCH  10  11
ENDBRANCH   9  10
ENDBRANCH   8   9
ENDBRANCH   7   8
ENDBRANCH   5   7
BRANCH   2  13
HETATM   13  N   UNK N   1      26.529  28.719  -3.284  0.00  0.00    -0.116 N 
HETATM   14  O   UNK N   1      26.248  29.908  -3.774  0.00  0.00    -0.532 OA
HETATM   15  O   UNK N   1      27.074  28.635  -2.224  0.00  0.00    -0.532 OA
ENDBRANCH   2  13
TORSDOF 6
ENDMDL
MODEL 5
REMARK VINA RESULT:      -4.9     12.379     13.454
REMARK  6 active torsions:
REMARK  status: ('A' for Active; 'I' for Inactive)
REMARK    1  A    between atoms: C_1  and  O_2 
REMARK    2  A    between atoms: C_1  and  C_3 
REMARK    3  A    between atoms: C_3  and  C_4 
REMARK    4  A    between atoms: C_4  and  O_5 
REMARK    5  A    between atoms: O_5  and  C_13 
REMARK    6  A    between atoms: C_7  and  N_8 
ROOT
HETATM    1  C   UNK N   1      21.782  15.584   6.819  0.00  0.00     0.039 A 
HETATM    2  C   UNK N   1      21.046  16.618   7.405  0.00  0.00     0.103 A 
HETATM    3  C   UNK N   1      20.290  16.354   8.562  0.00  0.00     0.039 A 
HETATM    4  C   UNK N   1      20.275  15.068   9.122  0.00  0.00     0.039 A 
HETATM    5  C   UNK N   1      21.015  14.037   8.529  0.00  0.00     0.068 A 
HETATM    6  C   UNK N   1      21.767  14.310   7.374  0.00  0.00     0.039 A 
ENDROOT
BRANCH   5   7
HETATM    7  O   UNK N   1      21.003  12.792   9.067  0.00  0.00    -0.351 OA
BRANCH   7   8
HETATM    8  C   UNK N   1      22.186  12.132   9.326  0.00  0.00     0.178 C 
BRANCH   8   9
HETATM    9  C   UNK N   1      22.902  12.668  10.541  0.00  0.00     0.053 C 
BRANCH   9  10
HETATM   10  C   UNK N   1      24.383  12.625  10.215  0.00  0.00     0.166 C 
BRANCH  10  11
HETATM   11  O   UNK N   1      25.131  12.522  11.384  0.00  0.00    -0.401 OA
HETATM   12  H   UNK N   1      24.691  12.572  12.248  0.00  0.00     0.209 HD
ENDBRANCH  10  11
ENDBRANCH   9  10
ENDBRANCH   8   9
ENDBRANCH   7   8
ENDBRANCH   5   7
BRANCH   2  13
HETATM   13  N   UNK N   1      21.075  17.915   6.823  0.00  0.00    -0.116 N 
HETATM   14  O   UNK N   1      21.457  18.070   5.573  0.00  0.00    -0.532 OA
HETATM   15  O   UNK N   1      20.752  18.871   7.462  0.00  0.00    -0.532 OA
ENDBRANCH   2  13
TORSDOF 6
ENDMDL
MODEL 6
REMARK VINA RESULT:      -4.8     16.706     19.466
REMARK  6 active torsions:
REMARK  status: ('A' for Active; 'I' for Inactive)
REMARK    1  A    between atoms: C_1  and  O_2 
REMARK    2  A    between atoms: C_1  and  C_3 
REMARK    3  A    between atoms: C_3  and  C_4 
REMARK    4  A    between atoms: C_4  and  O_5 
REMARK    5  A    between atoms: O_5  and  C_13 
REMARK    6  A    between atoms: C_7  and  N_8 
ROOT
HETATM    1  C   UNK N   1      29.167  23.642  -4.713  0.00  0.00     0.039 A 
HETATM    2  C   UNK N   1      29.134  23.518  -3.321  0.00  0.00     0.103 A 
HETATM    3  C   UNK N   1      27.951  23.839  -2.630  0.00  0.00     0.039 A 
HETATM    4  C   UNK N   1      26.818  24.280  -3.329  0.00  0.00     0.039 A 
HETATM    5  C   UNK N   1      26.859  24.402  -4.725  0.00  0.00     0.068 A 
HETATM    6  C   UNK N   1      28.044  24.078  -5.406  0.00  0.00     0.039 A 
ENDROOT
BRANCH   5   7
HETATM    7  O   UNK N   1      25.765  24.827  -5.406  0.00  0.00    -0.351 OA
BRANCH   7   8
HETATM    8  C   UNK N   1      25.777  26.044  -6.055  0.00  0.00     0.178 C 
BRANCH   8   9
HETATM    9  C   UNK N   1      24.851  27.053  -5.426  0.00  0.00     0.053 C 
BRANCH   9  10
HETATM   10  C   UNK N   1      25.721  27.951  -4.566  0.00  0.00     0.166 C 
BRANCH  10  11
HETATM   11  O   UNK N   1      25.389  27.804  -3.223  0.00  0.00    -0.401 OA
HETATM   12  H   UNK N   1      25.999  27.351  -2.619  0.00  0.00     0.209 HD
ENDBRANCH  10  11
ENDBRANCH   9  10
ENDBRANCH   8   9
ENDBRANCH   7   8
ENDBRANCH   5   7
BRANCH   2  13
HETATM   13  N   UNK N   1      30.292  23.070  -2.630  0.00  0.00    -0.116 N 
HETATM   14  O   UNK N   1      31.366  22.710  -3.302  0.00  0.00    -0.532 OA
HETATM   15  O   UNK N   1      30.301  23.016  -1.437  0.00  0.00    -0.532 OA
ENDBRANCH   2  13
TORSDOF 6
ENDMDL
MODEL 7
REMARK VINA RESULT:      -4.6      3.693      6.322
REMARK  6 active torsions:
REMARK  status: ('A' for Active; 'I' for Inactive)
REMARK    1  A    between atoms: C_1  and  O_2 
REMARK    2  A    between atoms: C_1  and  C_3 
REMARK    3  A    between atoms: C_3  and  C_4 
REMARK    4  A    between atoms: C_4  and  O_5 
REMARK    5  A    between atoms: O_5  and  C_13 
REMARK    6  A    between atoms: C_7  and  N_8 
ROOT
HETATM    1  C   UNK N   1      33.016  15.724   9.062  0.00  0.00     0.039 A 
HETATM    2  C   UNK N   1      34.111  16.577   8.903  0.00  0.00     0.103 A 
HETATM    3  C   UNK N   1      34.051  17.601   7.939  0.00  0.00     0.039 A 
HETATM    4  C   UNK N   1      32.905  17.764   7.147  0.00  0.00     0.039 A 
HETATM    5  C   UNK N   1      31.810  16.904   7.314  0.00  0.00     0.068 A 
HETATM    6  C   UNK N   1      31.880  15.885   8.278  0.00  0.00     0.039 A 
ENDROOT
BRANCH   5   7
HETATM    7  O   UNK N   1      30.700  17.058   6.550  0.00  0.00    -0.351 OA
BRANCH   7   8
HETATM    8  C   UNK N   1      29.451  17.094   7.134  0.00  0.00     0.178 C 
BRANCH   8   9
HETATM    9  C   UNK N   1      29.211  18.354   7.927  0.00  0.00     0.053 C 
BRANCH   9  10
HETATM   10  C   UNK N   1      28.733  17.911   9.297  0.00  0.00     0.166 C 
BRANCH  10  11
HETATM   11  O   UNK N   1      27.359  18.099   9.414  0.00  0.00    -0.401 OA
HETATM   12  H   UNK N   1      27.014  18.844   9.931  0.00  0.00     0.209 HD
ENDBRANCH  10  11
ENDBRANCH   9  10
ENDBRANCH   8   9
ENDBRANCH   7   8
ENDBRANCH   5   7
BRANCH   2  13
HETATM   13  N   UNK N   1      35.264  16.397   9.714  0.00  0.00    -0.116 N 
HETATM   14  O   UNK N   1      35.679  17.368  10.500  0.00  0.00    -0.532 OA
HETATM   15  O   UNK N   1      35.865  15.364   9.690  0.00  0.00    -0.532 OA
ENDBRANCH   2  13
TORSDOF 6
ENDMDL
MODEL 8
REMARK VINA RESULT:      -4.6      3.852      7.175
REMARK  6 active torsions:
REMARK  status: ('A' for Active; 'I' for Inactive)
REMARK    1  A    between atoms: C_1  and  O_2 
REMARK    2  A    between atoms: C_1  and  C_3 
REMARK    3  A    between atoms: C_3  and  C_4 
REMARK    4  A    between atoms: C_4  and  O_5 
REMARK    5  A    between atoms: O_5  and  C_13 
REMARK    6  A    between atoms: C_7  and  N_8 
ROOT
HETATM    1  C   UNK N   1      34.640  12.983  16.369  0.00  0.00     0.039 A 
HETATM    2  C   UNK N   1      35.599  13.865  16.875  0.00  0.00     0.103 A 
HETATM    3  C   UNK N   1      36.648  14.293  16.041  0.00  0.00     0.039 A 
HETATM    4  C   UNK N   1      36.732  13.840  14.716  0.00  0.00     0.039 A 
HETATM    5  C   UNK N   1      35.767  12.955  14.216  0.00  0.00     0.068 A 
HETATM    6  C   UNK N   1      34.723  12.534  15.056  0.00  0.00     0.039 A 
ENDROOT
BRANCH   5   7
HETATM    7  O   UNK N   1      35.844  12.514  12.936  0.00  0.00    -0.351 OA
BRANCH   7   8
HETATM    8  C   UNK N   1      35.091  13.110  11.946  0.00  0.00     0.178 C 
BRANCH   8   9
HETATM    9  C   UNK N   1      35.802  14.261  11.281  0.00  0.00     0.053 C 
BRANCH   9  10
HETATM   10  C   UNK N   1      34.756  15.337  11.060  0.00  0.00     0.166 C 
BRANCH  10  11
HETATM   11  O   UNK N   1      33.483  14.833  11.310  0.00  0.00    -0.401 OA
HETATM   12  H   UNK N   1      33.017  14.332  10.622  0.00  0.00     0.209 HD
ENDBRANCH  10  11
ENDBRANCH   9  10
ENDBRANCH   8   9
ENDBRANCH   7   8
ENDBRANCH   5   7
BRANCH   2  13
HETATM   13  N   UNK N   1      35.498  14.314  18.220  0.00  0.00    -0.116 N 
HETATM   14  O   UNK N   1      35.128  13.480  19.169  0.00  0.00    -0.532 OA
HETATM   15  O   UNK N   1      35.747  15.448  18.499  0.00  0.00    -0.532 OA
ENDBRANCH   2  13
TORSDOF 6
ENDMDL
MODEL 9
REMARK VINA RESULT:      -4.6      1.226      2.282
REMARK  6 active torsions:
REMARK  status: ('A' for Active; 'I' for Inactive)
REMARK    1  A    between atoms: C_1  and  O_2 
REMARK    2  A    between atoms: C_1  and  C_3 
REMARK    3  A    between atoms: C_3  and  C_4 
REMARK    4  A    between atoms: C_4  and  O_5 
REMARK    5  A    between atoms: O_5  and  C_13 
REMARK    6  A    between atoms: C_7  and  N_8 
ROOT
HETATM    1  C   UNK N   1      33.807  16.024   8.962  0.00  0.00     0.039 A 
HETATM    2  C   UNK N   1      34.654  17.120   9.150  0.00  0.00     0.103 A 
HETATM    3  C   UNK N   1      35.431  17.195  10.321  0.00  0.00     0.039 A 
HETATM    4  C   UNK N   1      35.357  16.182  11.288  0.00  0.00     0.039 A 
HETATM    5  C   UNK N   1      34.506  15.087  11.092  0.00  0.00     0.068 A 
HETATM    6  C   UNK N   1      33.734  15.020   9.920  0.00  0.00     0.039 A 
ENDROOT
BRANCH   5   7
HETATM    7  O   UNK N   1      34.431  14.105  12.025  0.00  0.00    -0.351 OA
BRANCH   7   8
HETATM    8  C   UNK N   1      34.977  12.863  11.777  0.00  0.00     0.178 C 
BRANCH   8   9
HETATM    9  C   UNK N   1      34.836  11.917  12.943  0.00  0.00     0.053 C 
BRANCH   9  10
HETATM   10  C   UNK N   1      34.509  10.559  12.352  0.00  0.00     0.166 C 
BRANCH  10  11
HETATM   11  O   UNK N   1      33.482  10.672  11.421  0.00  0.00    -0.401 OA
HETATM   12  H   UNK N   1      33.569  10.254  10.549  0.00  0.00     0.209 HD
ENDBRANCH  10  11
ENDBRANCH   9  10
ENDBRANCH   8   9
ENDBRANCH   7   8
ENDBRANCH   5   7
BRANCH   2  13
HETATM   13  N   UNK N   1      34.716  18.136   8.158  0.00  0.00    -0.116 N 
HETATM   14  O   UNK N   1      34.337  17.880   6.924  0.00  0.00    -0.532 OA
HETATM   15  O   UNK N   1      35.111  19.229   8.437  0.00  0.00    -0.532 OA
ENDBRANCH   2  13
TORSDOF 6
ENDMDL
