REMARK  6 active torsions:
REMARK  status: ('A' for Active; 'I' for Inactive)
REMARK    1  A    between atoms: C_1  and  O_2 
REMARK    2  A    between atoms: C_1  and  C_3 
REMARK    3  A    between atoms: C_3  and  C_4 
REMARK    4  A    between atoms: C_4  and  O_5 
REMARK    5  A    between atoms: O_5  and  C_13 
REMARK    6  A    between atoms: C_7  and  N_8 
ROOT
HETATM    1  C   UNK N   1       1.661   1.572  -0.000  0.00  0.00     0.039 A 
HETATM    2  C   UNK N   1       2.884   0.895   0.000  0.00  0.00     0.103 A 
HETATM    3  C   UNK N   1       2.891  -0.512   0.000  0.00  0.00     0.039 A 
HETATM    4  C   UNK N   1       1.685  -1.228   0.000  0.00  0.00     0.039 A 
HETATM    5  C   UNK N   1       0.463  -0.542  -0.000  0.00  0.00     0.068 A 
HETATM    6  C   UNK N   1       0.466   0.863  -0.000  0.00  0.00     0.039 A 
ENDROOT
BRANCH   5   7
HETATM    7  O   UNK N   1      -0.706  -1.230  -0.000  0.00  0.00    -0.351 OA
BRANCH   7   8
HETATM    8  C   UNK N   1      -1.911  -0.559  -0.000  0.00  0.00     0.178 C 
BRANCH   8   9
HETATM    9  C   UNK N   1      -3.099  -1.488   0.000  0.00  0.00     0.053 C 
BRANCH   9  10
HETATM   10  C   UNK N   1      -4.331  -0.603   0.000  0.00  0.00     0.166 C 
BRANCH  10  11
HETATM   11  O   UNK N   1      -5.485  -1.381   0.000  0.00  0.00    -0.401 OA
HETATM   12  H   UNK N   1      -6.357  -0.955   0.000  0.00  0.00     0.209 HD
ENDBRANCH  10  11
ENDBRANCH   9  10
ENDBRANCH   8   9
ENDBRANCH   7   8
ENDBRANCH   5   7
BRANCH   2  13
HETATM   13  N   UNK N   1       4.096   1.638   0.000  0.00  0.00    -0.116 N 
HETATM   14  O   UNK N   1       4.065   2.954  -0.000  0.00  0.00    -0.532 OA
HETATM   15  O   UNK N   1       5.150   1.075   0.000  0.00  0.00    -0.532 OA
ENDBRANCH   2  13
TORSDOF 6
