MODEL 1
REMARK VINA RESULT:      -6.3      0.000      0.000
REMARK  5 active torsions:
REMARK  status: ('A' for Active; 'I' for Inactive)
REMARK    1  A    between atoms: C_3  and  O_9 
REMARK    2  A    between atoms: C_10  and  C_3 
REMARK    3  A    between atoms: C_5  and  C_10 
REMARK    4  A    between atoms: C_11  and  C_5 
REMARK    5  A    between atoms: O_15  and  C_7 
ROOT
HETATM    1  N   UNK N   1      25.377  24.528  -5.899  0.00  0.00    -0.365 N 
HETATM    2  C   UNK N   1      25.491  25.726  -5.296  0.00  0.00     0.043 A 
HETATM    3  C   UNK N   1      26.604  26.753  -3.422  0.00  0.00     0.051 A 
HETATM    4  C   UNK N   1      24.878  26.924  -5.664  0.00  0.00     0.033 A 
HETATM    5  C   UNK N   1      26.007  27.987  -3.756  0.00  0.00     0.069 A 
HETATM    6  C   UNK N   1      26.751  24.364  -4.127  0.00  0.00    -0.030 A 
HETATM    7  C   UNK N   1      26.157  23.672  -5.180  0.00  0.00     0.096 A 
HETATM    8  C   UNK N   1      26.318  25.654  -4.219  0.00  0.00     0.001 A 
HETATM    9  C   UNK N   1      25.145  28.066  -4.878  0.00  0.00     0.039 A 
HETATM   10  H   UNK N   1      24.840  24.314  -6.696  0.00  0.00     0.165 HD
ENDROOT
BRANCH   6  11
HETATM   11  C   UNK N   1      27.684  23.881  -3.064  0.00  0.00     0.051 C 
BRANCH  11  12
HETATM   12  C   UNK N   1      28.994  23.299  -3.561  0.00  0.00     0.114 C 
BRANCH  12  13
HETATM   13  C   UNK N   1      30.116  23.720  -2.653  0.00  0.00     0.139 C 
HETATM   14  O   UNK N   1      30.745  24.733  -2.904  0.00  0.00    -0.650 OA
BRANCH  13  15
HETATM   15  O   UNK N   1      30.435  22.992  -1.561  0.00  0.00    -0.776 OA
HETATM   16  H   UNK N   1      30.000  23.153  -0.747  0.00  0.00     0.167 HD
ENDBRANCH  13  15
ENDBRANCH  12  13
ENDBRANCH  11  12
ENDBRANCH   6  11
BRANCH   5  17
HETATM   17  O   UNK N   1      26.245  29.099  -3.022  0.00  0.00    -0.356 OA
HETATM   18  C   UNK N   1      26.466  30.337  -3.586  0.00  0.00     0.210 C 
ENDBRANCH   5  17
TORSDOF 5
ENDMDL
MODEL 2
REMARK VINA RESULT:      -5.7     12.436     14.703
REMARK  5 active torsions:
REMARK  status: ('A' for Active; 'I' for Inactive)
REMARK    1  A    between atoms: C_3  and  O_9 
REMARK    2  A    between atoms: C_10  and  C_3 
REMARK    3  A    between atoms: C_5  and  C_10 
REMARK    4  A    between atoms: C_11  and  C_5 
REMARK    5  A    between atoms: O_15  and  C_7 
ROOT
HETATM    1  N   UNK N   1      33.853  17.860   7.208  0.00  0.00    -0.365 N 
HETATM    2  C   UNK N   1      33.026  17.581   6.181  0.00  0.00     0.043 A 
HETATM    3  C   UNK N   1      30.722  17.012   5.767  0.00  0.00     0.051 A 
HETATM    4  C   UNK N   1      33.342  17.539   4.824  0.00  0.00     0.033 A 
HETATM    5  C   UNK N   1      30.994  16.958   4.384  0.00  0.00     0.069 A 
HETATM    6  C   UNK N   1      31.783  17.447   7.983  0.00  0.00    -0.030 A 
HETATM    7  C   UNK N   1      33.090  17.780   8.334  0.00  0.00     0.096 A 
HETATM    8  C   UNK N   1      31.766  17.327   6.625  0.00  0.00     0.001 A 
HETATM    9  C   UNK N   1      32.306  17.222   3.918  0.00  0.00     0.039 A 
HETATM   10  H   UNK N   1      34.811  18.077   7.154  0.00  0.00     0.165 HD
ENDROOT
BRANCH   6  11
HETATM   11  C   UNK N   1      30.579  17.243   8.845  0.00  0.00     0.051 C 
BRANCH  11  12
HETATM   12  C   UNK N   1      29.908  18.510   9.340  0.00  0.00     0.114 C 
BRANCH  12  13
HETATM   13  C   UNK N   1      28.537  18.631   8.736  0.00  0.00     0.139 C 
HETATM   14  O   UNK N   1      28.407  19.134   7.634  0.00  0.00    -0.650 OA
BRANCH  13  15
HETATM   15  O   UNK N   1      27.446  18.187   9.397  0.00  0.00    -0.776 OA
HETATM   16  H   UNK N   1      26.636  18.654   9.332  0.00  0.00     0.167 HD
ENDBRANCH  13  15
ENDBRANCH  12  13
ENDBRANCH  11  12
ENDBRANCH   6  11
BRANCH   5  17
HETATM   17  O   UNK N   1      30.021  16.658   3.492  0.00  0.00    -0.356 OA
HETATM   18  C   UNK N   1      28.704  17.023   3.668  0.00  0.00     0.210 C 
ENDBRANCH   5  17
TORSDOF 5
ENDMDL
MODEL 3
REMARK VINA RESULT:      -5.6     12.532     14.690
REMARK  5 active torsions:
REMARK  status: ('A' for Active; 'I' for Inactive)
REMARK    1  A    between atoms: C_3  and  O_9 
REMARK    2  A    between atoms: C_10  and  C_3 
REMARK    3  A    between atoms: C_5  and  C_10 
REMARK    4  A    between atoms: C_11  and  C_5 
REMARK    5  A    between atoms: O_15  and  C_7 
ROOT
HETATM    1  N   UNK N   1      31.083  16.509   9.538  0.00  0.00    -0.365 N 
HETATM    2  C   UNK N   1      30.120  17.225   8.926  0.00  0.00     0.043 A 
HETATM    3  C   UNK N   1      29.384  17.817   6.710  0.00  0.00     0.051 A 
HETATM    4  C   UNK N   1      29.094  17.954   9.526  0.00  0.00     0.033 A 
HETATM    5  C   UNK N   1      28.330  18.568   7.271  0.00  0.00     0.069 A 
HETATM    6  C   UNK N   1      31.336  16.382   7.308  0.00  0.00    -0.030 A 
HETATM    7  C   UNK N   1      31.846  15.980   8.541  0.00  0.00     0.096 A 
HETATM    8  C   UNK N   1      30.251  17.165   7.574  0.00  0.00     0.001 A 
HETATM    9  C   UNK N   1      28.190  18.633   8.679  0.00  0.00     0.039 A 
HETATM   10  H   UNK N   1      31.209  16.392  10.507  0.00  0.00     0.165 HD
ENDROOT
BRANCH   6  11
HETATM   11  C   UNK N   1      31.810  16.072   5.925  0.00  0.00     0.051 C 
BRANCH  11  12
HETATM   12  C   UNK N   1      32.708  17.118   5.292  0.00  0.00     0.114 C 
BRANCH  12  13
HETATM   13  C   UNK N   1      34.045  17.125   5.979  0.00  0.00     0.139 C 
HETATM   14  O   UNK N   1      34.815  16.196   5.808  0.00  0.00    -0.650 OA
BRANCH  13  15
HETATM   15  O   UNK N   1      34.407  18.149   6.782  0.00  0.00    -0.776 OA
HETATM   16  H   UNK N   1      35.267  18.514   6.717  0.00  0.00     0.167 HD
ENDBRANCH  13  15
ENDBRANCH  12  13
ENDBRANCH  11  12
ENDBRANCH   6  11
BRANCH   5  17
HETATM   17  O   UNK N   1      27.448  19.228   6.484  0.00  0.00    -0.356 OA
HETATM   18  C   UNK N   1      27.339  20.602   6.468  0.00  0.00     0.210 C 
ENDBRANCH   5  17
TORSDOF 5
ENDMDL
MODEL 4
REMARK VINA RESULT:      -5.5     12.867     14.450
REMARK  5 active torsions:
REMARK  status: ('A' for Active; 'I' for Inactive)
REMARK    1  A    between atoms: C_3  and  O_9 
REMARK    2  A    between atoms: C_10  and  C_3 
REMARK    3  A    between atoms: C_5  and  C_10 
REMARK    4  A    between atoms: C_11  and  C_5 
REMARK    5  A    between atoms: O_15  and  C_7 
ROOT
HETATM    1  N   UNK N   1      30.546  17.172   3.457  0.00  0.00    -0.365 N 
HETATM    2  C   UNK N   1      31.489  17.207   4.418  0.00  0.00     0.043 A 
HETATM    3  C   UNK N   1      31.680  17.193   6.819  0.00  0.00     0.051 A 
HETATM    4  C   UNK N   1      32.871  17.273   4.249  0.00  0.00     0.033 A 
HETATM    5  C   UNK N   1      33.084  17.259   6.698  0.00  0.00     0.069 A 
HETATM    6  C   UNK N   1      29.575  17.107   5.483  0.00  0.00    -0.030 A 
HETATM    7  C   UNK N   1      29.350  17.109   4.108  0.00  0.00     0.096 A 
HETATM    8  C   UNK N   1      30.926  17.168   5.655  0.00  0.00     0.001 A 
HETATM    9  C   UNK N   1      33.674  17.299   5.410  0.00  0.00     0.039 A 
HETATM   10  H   UNK N   1      30.691  17.189   2.484  0.00  0.00     0.165 HD
ENDROOT
BRANCH   6  11
HETATM   11  C   UNK N   1      28.601  17.049   6.615  0.00  0.00     0.051 C 
BRANCH  11  12
HETATM   12  C   UNK N   1      28.171  18.390   7.177  0.00  0.00     0.114 C 
BRANCH  12  13
HETATM   13  C   UNK N   1      28.381  18.411   8.665  0.00  0.00     0.139 C 
HETATM   14  O   UNK N   1      29.458  18.762   9.117  0.00  0.00    -0.650 OA
BRANCH  13  15
HETATM   15  O   UNK N   1      27.392  18.047   9.511  0.00  0.00    -0.776 OA
HETATM   16  H   UNK N   1      26.571  17.750   9.171  0.00  0.00     0.167 HD
ENDBRANCH  13  15
ENDBRANCH  12  13
ENDBRANCH  11  12
ENDBRANCH   6  11
BRANCH   5  17
HETATM   17  O   UNK N   1      33.879  17.284   7.794  0.00  0.00    -0.356 OA
HETATM   18  C   UNK N   1      34.549  18.415   8.208  0.00  0.00     0.210 C 
ENDBRANCH   5  17
TORSDOF 5
ENDMDL
MODEL 5
REMARK VINA RESULT:      -5.4     13.665     15.567
REMARK  5 active torsions:
REMARK  status: ('A' for Active; 'I' for Inactive)
REMARK    1  A    between atoms: C_3  and  O_9 
REMARK    2  A    between atoms: C_10  and  C_3 
REMARK    3  A    between atoms: C_5  and  C_10 
REMARK    4  A    between atoms: C_11  and  C_5 
REMARK    5  A    between atoms: O_15  and  C_7 
ROOT
HETATM    1  N   UNK N   1      31.811  17.274   4.533  0.00  0.00    -0.365 N 
HETATM    2  C   UNK N   1      32.487  17.284   5.698  0.00  0.00     0.043 A 
HETATM    3  C   UNK N   1      32.075  17.251   8.072  0.00  0.00     0.051 A 
HETATM    4  C   UNK N   1      33.868  17.323   5.879  0.00  0.00     0.033 A 
HETATM    5  C   UNK N   1      33.465  17.289   8.304  0.00  0.00     0.069 A 
HETATM    6  C   UNK N   1      30.366  17.215   6.253  0.00  0.00    -0.030 A 
HETATM    7  C   UNK N   1      30.491  17.231   4.866  0.00  0.00     0.096 A 
HETATM    8  C   UNK N   1      31.633  17.249   6.757  0.00  0.00     0.001 A 
HETATM    9  C   UNK N   1      34.357  17.325   7.203  0.00  0.00     0.039 A 
HETATM   10  H   UNK N   1      32.195  17.293   3.626  0.00  0.00     0.165 HD
ENDROOT
BRANCH   6  11
HETATM   11  C   UNK N   1      29.140  17.169   7.107  0.00  0.00     0.051 C 
BRANCH  11  12
HETATM   12  C   UNK N   1      28.810  18.453   7.845  0.00  0.00     0.114 C 
BRANCH  12  13
HETATM   13  C   UNK N   1      28.698  18.180   9.319  0.00  0.00     0.139 C 
HETATM   14  O   UNK N   1      27.771  17.510   9.739  0.00  0.00    -0.650 OA
BRANCH  13  15
HETATM   15  O   UNK N   1      29.613  18.665  10.186  0.00  0.00    -0.776 OA
HETATM   16  H   UNK N   1      29.572  18.430  11.092  0.00  0.00     0.167 HD
ENDBRANCH  13  15
ENDBRANCH  12  13
ENDBRANCH  11  12
ENDBRANCH   6  11
BRANCH   5  17
HETATM   17  O   UNK N   1      33.964  17.292   9.563  0.00  0.00    -0.356 OA
HETATM   18  C   UNK N   1      35.126  16.638   9.911  0.00  0.00     0.210 C 
ENDBRANCH   5  17
TORSDOF 5
ENDMDL
MODEL 6
REMARK VINA RESULT:      -5.4     23.935     27.111
REMARK  5 active torsions:
REMARK  status: ('A' for Active; 'I' for Inactive)
REMARK    1  A    between atoms: C_3  and  O_9 
REMARK    2  A    between atoms: C_10  and  C_3 
REMARK    3  A    between atoms: C_5  and  C_10 
REMARK    4  A    between atoms: C_11  and  C_5 
REMARK    5  A    between atoms: O_15  and  C_7 
ROOT
HETATM    1  N   UNK N   1      35.372  13.515  19.325  0.00  0.00    -0.365 N 
HETATM    2  C   UNK N   1      35.311  12.181  19.148  0.00  0.00     0.043 A 
HETATM    3  C   UNK N   1      35.108  10.561  17.376  0.00  0.00     0.051 A 
HETATM    4  C   UNK N   1      35.358  11.191  20.128  0.00  0.00     0.033 A 
HETATM    5  C   UNK N   1      35.151   9.525  18.332  0.00  0.00     0.069 A 
HETATM    6  C   UNK N   1      35.175  13.044  17.136  0.00  0.00    -0.030 A 
HETATM    7  C   UNK N   1      35.288  14.063  18.080  0.00  0.00     0.096 A 
HETATM    8  C   UNK N   1      35.191  11.870  17.830  0.00  0.00     0.001 A 
HETATM    9  C   UNK N   1      35.277   9.846  19.707  0.00  0.00     0.039 A 
HETATM   10  H   UNK N   1      35.459  13.995  20.180  0.00  0.00     0.165 HD
ENDROOT
BRANCH   6  11
HETATM   11  C   UNK N   1      35.056  13.122  15.649  0.00  0.00     0.051 C 
BRANCH  11  12
HETATM   12  C   UNK N   1      36.296  13.600  14.918  0.00  0.00     0.114 C 
BRANCH  12  13
HETATM   13  C   UNK N   1      35.940  13.994  13.512  0.00  0.00     0.139 C 
HETATM   14  O   UNK N   1      34.839  13.718  13.070  0.00  0.00    -0.650 OA
BRANCH  13  15
HETATM   15  O   UNK N   1      36.825  14.652  12.731  0.00  0.00    -0.776 OA
HETATM   16  H   UNK N   1      36.676  14.718  11.808  0.00  0.00     0.167 HD
ENDBRANCH  13  15
ENDBRANCH  12  13
ENDBRANCH  11  12
ENDBRANCH   6  11
BRANCH   5  17
HETATM   17  O   UNK N   1      35.076   8.226  17.958  0.00  0.00    -0.356 OA
HETATM   18  C   UNK N   1      34.606   7.232  18.788  0.00  0.00     0.210 C 
ENDBRANCH   5  17
TORSDOF 5
ENDMDL
MODEL 7
REMARK VINA RESULT:      -5.2     12.291     14.665
REMARK  5 active torsions:
REMARK  status: ('A' for Active; 'I' for Inactive)
REMARK    1  A    between atoms: C_3  and  O_9 
REMARK    2  A    between atoms: C_10  and  C_3 
REMARK    3  A    between atoms: C_5  and  C_10 
REMARK    4  A    between atoms: C_11  and  C_5 
REMARK    5  A    between atoms: O_15  and  C_7 
ROOT
HETATM    1  N   UNK N   1      30.303  18.311   9.587  0.00  0.00    -0.365 N 
HETATM    2  C   UNK N   1      31.008  17.857   8.533  0.00  0.00     0.043 A 
HETATM    3  C   UNK N   1      30.691  17.241   6.226  0.00  0.00     0.051 A 
HETATM    4  C   UNK N   1      32.371  17.568   8.484  0.00  0.00     0.033 A 
HETATM    5  C   UNK N   1      32.064  16.935   6.129  0.00  0.00     0.069 A 
HETATM    6  C   UNK N   1      28.947  18.061   7.811  0.00  0.00    -0.030 A 
HETATM    7  C   UNK N   1      29.019  18.442   9.150  0.00  0.00     0.096 A 
HETATM    8  C   UNK N   1      30.210  17.698   7.444  0.00  0.00     0.001 A 
HETATM    9  C   UNK N   1      32.900  17.101   7.261  0.00  0.00     0.039 A 
HETATM   10  H   UNK N   1      30.646  18.507  10.489  0.00  0.00     0.165 HD
ENDROOT
BRANCH   6  11
HETATM   11  C   UNK N   1      27.776  18.026   6.884  0.00  0.00     0.051 C 
BRANCH  11  12
HETATM   12  C   UNK N   1      27.692  19.171   5.893  0.00  0.00     0.114 C 
BRANCH  12  13
HETATM   13  C   UNK N   1      27.305  20.436   6.606  0.00  0.00     0.139 C 
HETATM   14  O   UNK N   1      27.853  21.484   6.314  0.00  0.00    -0.650 OA
BRANCH  13  15
HETATM   15  O   UNK N   1      26.354  20.428   7.566  0.00  0.00    -0.776 OA
HETATM   16  H   UNK N   1      25.745  21.137   7.629  0.00  0.00     0.167 HD
ENDBRANCH  13  15
ENDBRANCH  12  13
ENDBRANCH  11  12
ENDBRANCH   6  11
BRANCH   5  17
HETATM   17  O   UNK N   1      32.599  16.486   4.969  0.00  0.00    -0.356 OA
HETATM   18  C   UNK N   1      32.636  17.243   3.817  0.00  0.00     0.210 C 
ENDBRANCH   5  17
TORSDOF 5
ENDMDL
MODEL 8
REMARK VINA RESULT:      -5.1     21.503     24.503
REMARK  5 active torsions:
REMARK  status: ('A' for Active; 'I' for Inactive)
REMARK    1  A    between atoms: C_3  and  O_9 
REMARK    2  A    between atoms: C_10  and  C_3 
REMARK    3  A    between atoms: C_5  and  C_10 
REMARK    4  A    between atoms: C_11  and  C_5 
REMARK    5  A    between atoms: O_15  and  C_7 
ROOT
HETATM    1  N   UNK N   1      37.208  10.940  14.122  0.00  0.00    -0.365 N 
HETATM    2  C   UNK N   1      36.983  12.037  13.374  0.00  0.00     0.043 A 
HETATM    3  C   UNK N   1      36.048  14.249  13.575  0.00  0.00     0.051 A 
HETATM    4  C   UNK N   1      37.289  12.225  12.027  0.00  0.00     0.033 A 
HETATM    5  C   UNK N   1      36.338  14.485  12.215  0.00  0.00     0.069 A 
HETATM    6  C   UNK N   1      36.225  12.528  15.373  0.00  0.00    -0.030 A 
HETATM    7  C   UNK N   1      36.741  11.233  15.368  0.00  0.00     0.096 A 
HETATM    8  C   UNK N   1      36.388  13.015  14.109  0.00  0.00     0.001 A 
HETATM    9  C   UNK N   1      36.959  13.469  11.446  0.00  0.00     0.039 A 
HETATM   10  H   UNK N   1      37.626  10.098  13.827  0.00  0.00     0.165 HD
ENDROOT
BRANCH   6  11
HETATM   11  C   UNK N   1      35.603  13.309  16.484  0.00  0.00     0.051 C 
BRANCH  11  12
HETATM   12  C   UNK N   1      35.194  12.502  17.702  0.00  0.00     0.114 C 
BRANCH  12  13
HETATM   13  C   UNK N   1      35.230  13.373  18.927  0.00  0.00     0.139 C 
HETATM   14  O   UNK N   1      35.133  14.582  18.809  0.00  0.00    -0.650 OA
BRANCH  13  15
HETATM   15  O   UNK N   1      35.368  12.833  20.157  0.00  0.00    -0.776 OA
HETATM   16  H   UNK N   1      36.032  12.191  20.316  0.00  0.00     0.167 HD
ENDBRANCH  13  15
ENDBRANCH  12  13
ENDBRANCH  11  12
ENDBRANCH   6  11
BRANCH   5  17
HETATM   17  O   UNK N   1      36.034  15.668  11.631  0.00  0.00    -0.356 OA
HETATM   18  C   UNK N   1      34.941  15.839  10.809  0.00  0.00     0.210 C 
ENDBRANCH   5  17
TORSDOF 5
ENDMDL
MODEL 9
REMARK VINA RESULT:      -5.1     12.659     14.249
REMARK  5 active torsions:
REMARK  status: ('A' for Active; 'I' for Inactive)
REMARK    1  A    between atoms: C_3  and  O_9 
REMARK    2  A    between atoms: C_10  and  C_3 
REMARK    3  A    between atoms: C_5  and  C_10 
REMARK    4  A    between atoms: C_11  and  C_5 
REMARK    5  A    between atoms: O_15  and  C_7 
ROOT
HETATM    1  N   UNK N   1      22.278  15.657   4.047  0.00  0.00    -0.365 N 
HETATM    2  C   UNK N   1      21.835  15.899   5.295  0.00  0.00     0.043 A 
HETATM    3  C   UNK N   1      20.891  17.686   6.606  0.00  0.00     0.051 A 
HETATM    4  C   UNK N   1      21.794  15.011   6.369  0.00  0.00     0.033 A 
HETATM    5  C   UNK N   1      20.830  16.824   7.721  0.00  0.00     0.069 A 
HETATM    6  C   UNK N   1      21.567  17.783   4.206  0.00  0.00    -0.030 A 
HETATM    7  C   UNK N   1      22.116  16.822   3.359  0.00  0.00     0.096 A 
HETATM    8  C   UNK N   1      21.398  17.181   5.418  0.00  0.00     0.001 A 
HETATM    9  C   UNK N   1      21.284  15.487   7.596  0.00  0.00     0.039 A 
HETATM   10  H   UNK N   1      22.644  14.811   3.702  0.00  0.00     0.165 HD
ENDROOT
BRANCH   6  11
HETATM   11  C   UNK N   1      21.202  19.207   3.934  0.00  0.00     0.051 C 
BRANCH  11  12
HETATM   12  C   UNK N   1      20.543  19.468   2.593  0.00  0.00     0.114 C 
BRANCH  12  13
HETATM   13  C   UNK N   1      21.228  20.614   1.903  0.00  0.00     0.139 C 
HETATM   14  O   UNK N   1      21.331  20.610   0.689  0.00  0.00    -0.650 OA
BRANCH  13  15
HETATM   15  O   UNK N   1      21.731  21.649   2.610  0.00  0.00    -0.776 OA
HETATM   16  H   UNK N   1      21.431  22.521   2.443  0.00  0.00     0.167 HD
ENDBRANCH  13  15
ENDBRANCH  12  13
ENDBRANCH  11  12
ENDBRANCH   6  11
BRANCH   5  17
HETATM   17  O   UNK N   1      20.345  17.253   8.909  0.00  0.00    -0.356 OA
HETATM   18  C   UNK N   1      19.061  17.729   9.068  0.00  0.00     0.210 C 
ENDBRANCH   5  17
TORSDOF 5
ENDMDL
