MODEL 1
REMARK VINA RESULT:      -7.1      0.000      0.000
REMARK  8 active torsions:
REMARK  status: ('A' for Active; 'I' for Inactive)
REMARK    1  A    between atoms: C_1  and  C_16 
REMARK    2  A    between atoms: C_1  and  C_17 
REMARK    3  A    between atoms: N_5  and  S_18 
REMARK    4  A    between atoms: C_7  and  C_16 
REMARK    5  A    between atoms: O_14  and  C_10 
REMARK    6  A    between atoms: C_17  and  O_25 
REMARK    7  A    between atoms: S_18  and  C_19 
REMARK    8  A    between atoms: C_21  and  O_26 
ROOT
HETATM    1  N   UNK N   1      22.004  16.762   5.502  0.00  0.00    -0.246 N 
HETATM    2  C   UNK N   1      20.977  17.554   5.107  0.00  0.00     0.117 A 
HETATM    3  C   UNK N   1      21.473  18.631   4.389  0.00  0.00    -0.028 A 
HETATM    4  C   UNK N   1      22.844  18.475   4.347  0.00  0.00     0.002 A 
HETATM    5  C   UNK N   1      23.136  17.323   5.035  0.00  0.00     0.061 A 
HETATM    6  C   UNK N   1      25.173  18.819   3.862  0.00  0.00     0.069 A 
HETATM    7  C   UNK N   1      25.469  17.629   4.572  0.00  0.00     0.039 A 
HETATM    8  C   UNK N   1      24.445  16.864   5.167  0.00  0.00     0.034 A 
HETATM    9  C   UNK N   1      23.829  19.249   3.747  0.00  0.00     0.051 A 
ENDROOT
BRANCH   1  10
HETATM   10  S   UNK N   1      21.754  15.239   6.385  0.00  0.00     0.269 S 
HETATM   11  O   UNK N   1      21.387  16.207   7.525  0.00  0.00    -0.200 OA
HETATM   12  O   UNK N   1      20.261  15.004   6.098  0.00  0.00    -0.200 OA
BRANCH  10  13
HETATM   13  C   UNK N   1      22.055  14.201   7.830  0.00  0.00     0.080 A 
HETATM   14  C   UNK N   1      21.194  14.311   8.935  0.00  0.00     0.028 A 
HETATM   15  C   UNK N   1      21.339  13.473  10.035  0.00  0.00     0.038 A 
HETATM   16  C   UNK N   1      22.340  12.491  10.046  0.00  0.00     0.068 A 
HETATM   17  C   UNK N   1      23.196  12.371   8.941  0.00  0.00     0.038 A 
HETATM   18  C   UNK N   1      23.051  13.218   7.831  0.00  0.00     0.028 A 
BRANCH  16  19
HETATM   19  O   UNK N   1      22.489  11.653  11.099  0.00  0.00    -0.356 OA
HETATM   20  C   UNK N   1      23.227  11.974  12.219  0.00  0.00     0.210 C 
ENDBRANCH  16  19
ENDBRANCH  10  13
ENDBRANCH   1  10
BRANCH   3  21
HETATM   21  C   UNK N   1      20.653  19.720   3.760  0.00  0.00     0.051 C 
BRANCH  21  22
HETATM   22  C   UNK N   1      20.352  19.387   2.298  0.00  0.00     0.114 C 
BRANCH  22  23
HETATM   23  C   UNK N   1      20.830  20.425   1.333  0.00  0.00     0.139 C 
HETATM   24  O   UNK N   1      21.456  21.385   1.749  0.00  0.00    -0.650 OA
BRANCH  23  25
HETATM   25  O   UNK N   1      20.566  20.321   0.016  0.00  0.00    -0.776 OA
HETATM   26  H   UNK N   1      19.801  20.662  -0.405  0.00  0.00     0.167 HD
ENDBRANCH  23  25
ENDBRANCH  22  23
ENDBRANCH  21  22
ENDBRANCH   3  21
BRANCH   6  27
HETATM   27  O   UNK N   1      26.188  19.521   3.303  0.00  0.00    -0.356 OA
HETATM   28  C   UNK N   1      27.257  20.004   4.024  0.00  0.00     0.210 C 
ENDBRANCH   6  27
TORSDOF 8
ENDMDL
MODEL 2
REMARK VINA RESULT:      -7.1      2.255      3.775
REMARK  8 active torsions:
REMARK  status: ('A' for Active; 'I' for Inactive)
REMARK    1  A    between atoms: C_1  and  C_16 
REMARK    2  A    between atoms: C_1  and  C_17 
REMARK    3  A    between atoms: N_5  and  S_18 
REMARK    4  A    between atoms: C_7  and  C_16 
REMARK    5  A    between atoms: O_14  and  C_10 
REMARK    6  A    between atoms: C_17  and  O_25 
REMARK    7  A    between atoms: S_18  and  C_19 
REMARK    8  A    between atoms: C_21  and  O_26 
ROOT
HETATM    1  N   UNK N   1      20.990  16.564   5.355  0.00  0.00    -0.246 N 
HETATM    2  C   UNK N   1      21.490  17.795   5.086  0.00  0.00     0.117 A 
HETATM    3  C   UNK N   1      21.348  18.067   3.734  0.00  0.00    -0.028 A 
HETATM    4  C   UNK N   1      20.737  16.962   3.176  0.00  0.00     0.002 A 
HETATM    5  C   UNK N   1      20.531  16.063   4.193  0.00  0.00     0.061 A 
HETATM    6  C   UNK N   1      19.715  15.466   1.596  0.00  0.00     0.069 A 
HETATM    7  C   UNK N   1      19.503  14.541   2.649  0.00  0.00     0.039 A 
HETATM    8  C   UNK N   1      19.910  14.835   3.966  0.00  0.00     0.034 A 
HETATM    9  C   UNK N   1      20.345  16.704   1.868  0.00  0.00     0.051 A 
ENDROOT
BRANCH   1  10
HETATM   10  S   UNK N   1      20.927  15.895   7.002  0.00  0.00     0.269 S 
HETATM   11  O   UNK N   1      22.457  16.021   6.882  0.00  0.00    -0.200 OA
HETATM   12  O   UNK N   1      20.879  17.197   7.819  0.00  0.00    -0.200 OA
BRANCH  10  13
HETATM   13  C   UNK N   1      21.469  14.676   8.216  0.00  0.00     0.080 A 
HETATM   14  C   UNK N   1      20.630  14.384   9.305  0.00  0.00     0.028 A 
HETATM   15  C   UNK N   1      20.970  13.392  10.219  0.00  0.00     0.038 A 
HETATM   16  C   UNK N   1      22.152  12.656  10.052  0.00  0.00     0.068 A 
HETATM   17  C   UNK N   1      22.988  12.937   8.962  0.00  0.00     0.038 A 
HETATM   18  C   UNK N   1      22.646  13.940   8.040  0.00  0.00     0.028 A 
BRANCH  16  19
HETATM   19  O   UNK N   1      22.494  11.674  10.920  0.00  0.00    -0.356 OA
HETATM   20  C   UNK N   1      22.996  11.924  12.179  0.00  0.00     0.210 C 
ENDBRANCH  16  19
ENDBRANCH  10  13
ENDBRANCH   1  10
BRANCH   3  21
HETATM   21  C   UNK N   1      21.756  19.337   3.046  0.00  0.00     0.051 C 
BRANCH  21  22
HETATM   22  C   UNK N   1      20.522  20.109   2.575  0.00  0.00     0.114 C 
BRANCH  22  23
HETATM   23  C   UNK N   1      20.634  20.628   1.176  0.00  0.00     0.139 C 
HETATM   24  O   UNK N   1      20.718  21.830   0.988  0.00  0.00    -0.650 OA
BRANCH  23  25
HETATM   25  O   UNK N   1      20.630  19.788   0.122  0.00  0.00    -0.776 OA
HETATM   26  H   UNK N   1      20.756  18.860   0.178  0.00  0.00     0.167 HD
ENDBRANCH  23  25
ENDBRANCH  22  23
ENDBRANCH  21  22
ENDBRANCH   3  21
BRANCH   6  27
HETATM   27  O   UNK N   1      19.303  15.144   0.346  0.00  0.00    -0.356 OA
HETATM   28  C   UNK N   1      18.350  14.182   0.091  0.00  0.00     0.210 C 
ENDBRANCH   6  27
TORSDOF 8
ENDMDL
MODEL 3
REMARK VINA RESULT:      -6.9      5.701      9.940
REMARK  8 active torsions:
REMARK  status: ('A' for Active; 'I' for Inactive)
REMARK    1  A    between atoms: C_1  and  C_16 
REMARK    2  A    between atoms: C_1  and  C_17 
REMARK    3  A    between atoms: N_5  and  S_18 
REMARK    4  A    between atoms: C_7  and  C_16 
REMARK    5  A    between atoms: O_14  and  C_10 
REMARK    6  A    between atoms: C_17  and  O_25 
REMARK    7  A    between atoms: S_18  and  C_19 
REMARK    8  A    between atoms: C_21  and  O_26 
ROOT
HETATM    1  N   UNK N   1      29.397  17.851   5.613  0.00  0.00    -0.246 N 
HETATM    2  C   UNK N   1      30.065  17.858   6.792  0.00  0.00     0.117 A 
HETATM    3  C   UNK N   1      31.121  16.963   6.731  0.00  0.00    -0.028 A 
HETATM    4  C   UNK N   1      31.086  16.403   5.470  0.00  0.00     0.002 A 
HETATM    5  C   UNK N   1      30.022  16.968   4.811  0.00  0.00     0.061 A 
HETATM    6  C   UNK N   1      31.636  15.090   3.532  0.00  0.00     0.069 A 
HETATM    7  C   UNK N   1      30.537  15.677   2.856  0.00  0.00     0.039 A 
HETATM    8  C   UNK N   1      29.717  16.630   3.494  0.00  0.00     0.034 A 
HETATM    9  C   UNK N   1      31.916  15.464   4.868  0.00  0.00     0.051 A 
ENDROOT
BRANCH   1  10
HETATM   10  S   UNK N   1      28.022  18.930   5.284  0.00  0.00     0.269 S 
HETATM   11  O   UNK N   1      27.220  17.701   5.750  0.00  0.00    -0.200 OA
HETATM   12  O   UNK N   1      27.849  19.574   6.670  0.00  0.00    -0.200 OA
BRANCH  10  13
HETATM   13  C   UNK N   1      26.429  19.238   4.494  0.00  0.00     0.080 A 
HETATM   14  C   UNK N   1      25.297  18.545   4.958  0.00  0.00     0.028 A 
HETATM   15  C   UNK N   1      24.036  18.813   4.435  0.00  0.00     0.038 A 
HETATM   16  C   UNK N   1      23.878  19.794   3.446  0.00  0.00     0.068 A 
HETATM   17  C   UNK N   1      25.003  20.494   2.986  0.00  0.00     0.038 A 
HETATM   18  C   UNK N   1      26.276  20.224   3.513  0.00  0.00     0.028 A 
BRANCH  16  19
HETATM   19  O   UNK N   1      22.658  20.082   2.934  0.00  0.00    -0.356 OA
HETATM   20  C   UNK N   1      21.512  19.402   3.291  0.00  0.00     0.210 C 
ENDBRANCH  16  19
ENDBRANCH  10  13
ENDBRANCH   1  10
BRANCH   3  21
HETATM   21  C   UNK N   1      32.113  16.698   7.827  0.00  0.00     0.051 C 
BRANCH  21  22
HETATM   22  C   UNK N   1      32.739  18.008   8.308  0.00  0.00     0.114 C 
BRANCH  22  23
HETATM   23  C   UNK N   1      34.108  18.258   7.760  0.00  0.00     0.139 C 
HETATM   24  O   UNK N   1      34.447  17.710   6.724  0.00  0.00    -0.650 OA
BRANCH  23  25
HETATM   25  O   UNK N   1      34.974  19.069   8.399  0.00  0.00    -0.776 OA
HETATM   26  H   UNK N   1      35.899  19.088   8.249  0.00  0.00     0.167 HD
ENDBRANCH  23  25
ENDBRANCH  22  23
ENDBRANCH  21  22
ENDBRANCH   3  21
BRANCH   6  27
HETATM   27  O   UNK N   1      32.401  14.183   2.879  0.00  0.00    -0.356 OA
HETATM   28  C   UNK N   1      33.754  14.344   2.676  0.00  0.00     0.210 C 
ENDBRANCH   6  27
TORSDOF 8
ENDMDL
MODEL 4
REMARK VINA RESULT:      -6.7      3.680      6.873
REMARK  8 active torsions:
REMARK  status: ('A' for Active; 'I' for Inactive)
REMARK    1  A    between atoms: C_1  and  C_16 
REMARK    2  A    between atoms: C_1  and  C_17 
REMARK    3  A    between atoms: N_5  and  S_18 
REMARK    4  A    between atoms: C_7  and  C_16 
REMARK    5  A    between atoms: O_14  and  C_10 
REMARK    6  A    between atoms: C_17  and  O_25 
REMARK    7  A    between atoms: S_18  and  C_19 
REMARK    8  A    between atoms: C_21  and  O_26 
ROOT
HETATM    1  N   UNK N   1      25.444  17.825   4.818  0.00  0.00    -0.246 N 
HETATM    2  C   UNK N   1      24.620  16.847   5.267  0.00  0.00     0.117 A 
HETATM    3  C   UNK N   1      23.316  17.137   4.899  0.00  0.00    -0.028 A 
HETATM    4  C   UNK N   1      23.361  18.327   4.201  0.00  0.00     0.002 A 
HETATM    5  C   UNK N   1      24.677  18.720   4.168  0.00  0.00     0.061 A 
HETATM    6  C   UNK N   1      22.713  20.259   2.925  0.00  0.00     0.069 A 
HETATM    7  C   UNK N   1      24.072  20.660   2.893  0.00  0.00     0.039 A 
HETATM    8  C   UNK N   1      25.073  19.887   3.517  0.00  0.00     0.034 A 
HETATM    9  C   UNK N   1      22.353  19.064   3.594  0.00  0.00     0.051 A 
ENDROOT
BRANCH   1  10
HETATM   10  S   UNK N   1      27.209  17.763   5.032  0.00  0.00     0.269 S 
HETATM   11  O   UNK N   1      26.860  16.461   5.775  0.00  0.00    -0.200 OA
HETATM   12  O   UNK N   1      27.603  16.953   3.786  0.00  0.00    -0.200 OA
BRANCH  10  13
HETATM   13  C   UNK N   1      28.649  17.580   6.104  0.00  0.00     0.080 A 
HETATM   14  C   UNK N   1      29.853  17.114   5.550  0.00  0.00     0.028 A 
HETATM   15  C   UNK N   1      31.008  17.037   6.320  0.00  0.00     0.038 A 
HETATM   16  C   UNK N   1      30.988  17.443   7.662  0.00  0.00     0.068 A 
HETATM   17  C   UNK N   1      29.791  17.919   8.218  0.00  0.00     0.038 A 
HETATM   18  C   UNK N   1      28.624  17.995   7.441  0.00  0.00     0.028 A 
BRANCH  16  19
HETATM   19  O   UNK N   1      32.105  17.393   8.426  0.00  0.00    -0.356 OA
HETATM   20  C   UNK N   1      33.269  18.057   8.101  0.00  0.00     0.210 C 
ENDBRANCH  16  19
ENDBRANCH  10  13
ENDBRANCH   1  10
BRANCH   3  21
HETATM   21  C   UNK N   1      22.112  16.286   5.187  0.00  0.00     0.051 C 
BRANCH  21  22
HETATM   22  C   UNK N   1      21.830  16.251   6.690  0.00  0.00     0.114 C 
BRANCH  22  23
HETATM   23  C   UNK N   1      20.805  17.247   7.133  0.00  0.00     0.139 C 
HETATM   24  O   UNK N   1      19.708  16.856   7.495  0.00  0.00    -0.650 OA
BRANCH  23  25
HETATM   25  O   UNK N   1      21.072  18.568   7.125  0.00  0.00    -0.776 OA
HETATM   26  H   UNK N   1      20.744  19.176   6.491  0.00  0.00     0.167 HD
ENDBRANCH  23  25
ENDBRANCH  22  23
ENDBRANCH  21  22
ENDBRANCH   3  21
BRANCH   6  27
HETATM   27  O   UNK N   1      21.786  21.029   2.308  0.00  0.00    -0.356 OA
HETATM   28  C   UNK N   1      20.890  20.536   1.385  0.00  0.00     0.210 C 
ENDBRANCH   6  27
TORSDOF 8
ENDMDL
MODEL 5
REMARK VINA RESULT:      -6.7      4.418      8.080
REMARK  8 active torsions:
REMARK  status: ('A' for Active; 'I' for Inactive)
REMARK    1  A    between atoms: C_1  and  C_16 
REMARK    2  A    between atoms: C_1  and  C_17 
REMARK    3  A    between atoms: N_5  and  S_18 
REMARK    4  A    between atoms: C_7  and  C_16 
REMARK    5  A    between atoms: O_14  and  C_10 
REMARK    6  A    between atoms: C_17  and  O_25 
REMARK    7  A    between atoms: S_18  and  C_19 
REMARK    8  A    between atoms: C_21  and  O_26 
ROOT
HETATM    1  N   UNK N   1      27.330  17.318   4.212  0.00  0.00    -0.246 N 
HETATM    2  C   UNK N   1      26.558  16.258   4.553  0.00  0.00     0.117 A 
HETATM    3  C   UNK N   1      25.221  16.611   4.460  0.00  0.00    -0.028 A 
HETATM    4  C   UNK N   1      25.192  17.927   4.044  0.00  0.00     0.002 A 
HETATM    5  C   UNK N   1      26.497  18.329   3.900  0.00  0.00     0.061 A 
HETATM    6  C   UNK N   1      24.409  20.089   3.340  0.00  0.00     0.069 A 
HETATM    7  C   UNK N   1      25.758  20.498   3.192  0.00  0.00     0.039 A 
HETATM    8  C   UNK N   1      26.820  19.615   3.470  0.00  0.00     0.034 A 
HETATM    9  C   UNK N   1      24.122  18.772   3.775  0.00  0.00     0.051 A 
ENDROOT
BRANCH   1  10
HETATM   10  S   UNK N   1      29.105  17.226   4.137  0.00  0.00     0.269 S 
HETATM   11  O   UNK N   1      28.887  16.212   5.275  0.00  0.00    -0.200 OA
HETATM   12  O   UNK N   1      29.271  16.072   3.134  0.00  0.00    -0.200 OA
BRANCH  10  13
HETATM   13  C   UNK N   1      30.710  17.281   4.960  0.00  0.00     0.080 A 
HETATM   14  C   UNK N   1      31.856  17.548   4.193  0.00  0.00     0.028 A 
HETATM   15  C   UNK N   1      33.101  17.682   4.799  0.00  0.00     0.038 A 
HETATM   16  C   UNK N   1      33.224  17.569   6.190  0.00  0.00     0.068 A 
HETATM   17  C   UNK N   1      32.080  17.312   6.962  0.00  0.00     0.038 A 
HETATM   18  C   UNK N   1      30.823  17.175   6.351  0.00  0.00     0.028 A 
BRANCH  16  19
HETATM   19  O   UNK N   1      34.423  17.713   6.803  0.00  0.00    -0.356 OA
HETATM   20  C   UNK N   1      34.555  18.135   8.109  0.00  0.00     0.210 C 
ENDBRANCH  16  19
ENDBRANCH  10  13
ENDBRANCH   1  10
BRANCH   3  21
HETATM   21  C   UNK N   1      24.052  15.708   4.732  0.00  0.00     0.051 C 
BRANCH  21  22
HETATM   22  C   UNK N   1      23.710  15.711   6.222  0.00  0.00     0.114 C 
BRANCH  22  23
HETATM   23  C   UNK N   1      22.320  16.179   6.520  0.00  0.00     0.139 C 
HETATM   24  O   UNK N   1      21.827  17.060   5.836  0.00  0.00    -0.650 OA
BRANCH  23  25
HETATM   25  O   UNK N   1      21.614  15.650   7.538  0.00  0.00    -0.776 OA
HETATM   26  H   UNK N   1      20.911  15.038   7.440  0.00  0.00     0.167 HD
ENDBRANCH  23  25
ENDBRANCH  22  23
ENDBRANCH  21  22
ENDBRANCH   3  21
BRANCH   6  27
HETATM   27  O   UNK N   1      23.420  20.969   3.056  0.00  0.00    -0.356 OA
HETATM   28  C   UNK N   1      22.151  20.582   2.682  0.00  0.00     0.210 C 
ENDBRANCH   6  27
TORSDOF 8
ENDMDL
MODEL 6
REMARK VINA RESULT:      -6.7     13.536     16.172
REMARK  8 active torsions:
REMARK  status: ('A' for Active; 'I' for Inactive)
REMARK    1  A    between atoms: C_1  and  C_16 
REMARK    2  A    between atoms: C_1  and  C_17 
REMARK    3  A    between atoms: N_5  and  S_18 
REMARK    4  A    between atoms: C_7  and  C_16 
REMARK    5  A    between atoms: O_14  and  C_10 
REMARK    6  A    between atoms: C_17  and  O_25 
REMARK    7  A    between atoms: S_18  and  C_19 
REMARK    8  A    between atoms: C_21  and  O_26 
ROOT
HETATM    1  N   UNK N   1      35.541  12.928  13.585  0.00  0.00    -0.246 N 
HETATM    2  C   UNK N   1      36.141  13.814  12.754  0.00  0.00     0.117 A 
HETATM    3  C   UNK N   1      35.957  13.415  11.440  0.00  0.00    -0.028 A 
HETATM    4  C   UNK N   1      35.215  12.252  11.486  0.00  0.00     0.002 A 
HETATM    5  C   UNK N   1      34.977  11.982  12.811  0.00  0.00     0.061 A 
HETATM    6  C   UNK N   1      33.975  10.300  10.828  0.00  0.00     0.069 A 
HETATM    7  C   UNK N   1      33.731  10.027  12.197  0.00  0.00     0.039 A 
HETATM    8  C   UNK N   1      34.231  10.873  13.207  0.00  0.00     0.034 A 
HETATM    9  C   UNK N   1      34.733  11.439  10.467  0.00  0.00     0.051 A 
ENDROOT
BRANCH   1  10
HETATM   10  S   UNK N   1      35.500  13.147  15.350  0.00  0.00     0.269 S 
HETATM   11  O   UNK N   1      36.574  12.045  15.298  0.00  0.00    -0.200 OA
HETATM   12  O   UNK N   1      36.595  14.214  15.514  0.00  0.00    -0.200 OA
BRANCH  10  13
HETATM   13  C   UNK N   1      35.361  12.452  17.009  0.00  0.00     0.080 A 
HETATM   14  C   UNK N   1      35.540  11.069  17.182  0.00  0.00     0.028 A 
HETATM   15  C   UNK N   1      35.524  10.503  18.452  0.00  0.00     0.038 A 
HETATM   16  C   UNK N   1      35.347  11.314  19.582  0.00  0.00     0.068 A 
HETATM   17  C   UNK N   1      35.178  12.696  19.416  0.00  0.00     0.038 A 
HETATM   18  C   UNK N   1      35.191  13.268  18.133  0.00  0.00     0.028 A 
BRANCH  16  19
HETATM   19  O   UNK N   1      35.346  10.787  20.830  0.00  0.00    -0.356 OA
HETATM   20  C   UNK N   1      34.686   9.621  21.153  0.00  0.00     0.210 C 
ENDBRANCH  16  19
ENDBRANCH  10  13
ENDBRANCH   1  10
BRANCH   3  21
HETATM   21  C   UNK N   1      36.448  14.143  10.222  0.00  0.00     0.051 C 
BRANCH  21  22
HETATM   22  C   UNK N   1      35.321  14.975   9.606  0.00  0.00     0.114 C 
BRANCH  22  23
HETATM   23  C   UNK N   1      35.267  16.382  10.110  0.00  0.00     0.139 C 
HETATM   24  O   UNK N   1      36.225  16.840  10.711  0.00  0.00    -0.650 OA
BRANCH  23  25
HETATM   25  O   UNK N   1      34.172  17.145   9.922  0.00  0.00    -0.776 OA
HETATM   26  H   UNK N   1      34.073  17.779   9.240  0.00  0.00     0.167 HD
ENDBRANCH  23  25
ENDBRANCH  22  23
ENDBRANCH  21  22
ENDBRANCH   3  21
BRANCH   6  27
HETATM   27  O   UNK N   1      33.470   9.462   9.891  0.00  0.00    -0.356 OA
HETATM   28  C   UNK N   1      32.293   8.766  10.057  0.00  0.00     0.210 C 
ENDBRANCH   6  27
TORSDOF 8
ENDMDL
MODEL 7
REMARK VINA RESULT:      -6.6     13.992     14.995
REMARK  8 active torsions:
REMARK  status: ('A' for Active; 'I' for Inactive)
REMARK    1  A    between atoms: C_1  and  C_16 
REMARK    2  A    between atoms: C_1  and  C_17 
REMARK    3  A    between atoms: N_5  and  S_18 
REMARK    4  A    between atoms: C_7  and  C_16 
REMARK    5  A    between atoms: O_14  and  C_10 
REMARK    6  A    between atoms: C_17  and  O_25 
REMARK    7  A    between atoms: S_18  and  C_19 
REMARK    8  A    between atoms: C_21  and  O_26 
ROOT
HETATM    1  N   UNK N   1      28.554  23.699  -4.163  0.00  0.00    -0.246 N 
HETATM    2  C   UNK N   1      27.993  24.719  -3.470  0.00  0.00     0.117 A 
HETATM    3  C   UNK N   1      26.950  25.261  -4.204  0.00  0.00    -0.028 A 
HETATM    4  C   UNK N   1      26.880  24.535  -5.376  0.00  0.00     0.002 A 
HETATM    5  C   UNK N   1      27.873  23.587  -5.320  0.00  0.00     0.061 A 
HETATM    6  C   UNK N   1      26.180  23.725  -7.529  0.00  0.00     0.069 A 
HETATM    7  C   UNK N   1      27.205  22.749  -7.465  0.00  0.00     0.039 A 
HETATM    8  C   UNK N   1      28.064  22.669  -6.351  0.00  0.00     0.034 A 
HETATM    9  C   UNK N   1      26.015  24.637  -6.459  0.00  0.00     0.051 A 
ENDROOT
BRANCH   1  10
HETATM   10  S   UNK N   1      29.877  22.708  -3.508  0.00  0.00     0.269 S 
HETATM   11  O   UNK N   1      30.724  23.618  -4.417  0.00  0.00    -0.200 OA
HETATM   12  O   UNK N   1      30.268  23.557  -2.287  0.00  0.00    -0.200 OA
BRANCH  10  13
HETATM   13  C   UNK N   1      31.335  21.677  -3.767  0.00  0.00     0.080 A 
HETATM   14  C   UNK N   1      32.400  21.767  -2.854  0.00  0.00     0.028 A 
HETATM   15  C   UNK N   1      33.506  20.932  -2.968  0.00  0.00     0.038 A 
HETATM   16  C   UNK N   1      33.564  19.974  -3.990  0.00  0.00     0.068 A 
HETATM   17  C   UNK N   1      32.499  19.874  -4.898  0.00  0.00     0.038 A 
HETATM   18  C   UNK N   1      31.382  20.718  -4.785  0.00  0.00     0.028 A 
BRANCH  16  19
HETATM   19  O   UNK N   1      34.623  19.139  -4.110  0.00  0.00    -0.356 OA
HETATM   20  C   UNK N   1      34.494  17.770  -4.212  0.00  0.00     0.210 C 
ENDBRANCH  16  19
ENDBRANCH  10  13
ENDBRANCH   1  10
BRANCH   3  21
HETATM   21  C   UNK N   1      26.064  26.392  -3.770  0.00  0.00     0.051 C 
BRANCH  21  22
HETATM   22  C   UNK N   1      26.543  27.711  -4.380  0.00  0.00     0.114 C 
BRANCH  22  23
HETATM   23  C   UNK N   1      26.545  28.854  -3.416  0.00  0.00     0.139 C 
HETATM   24  O   UNK N   1      27.032  28.702  -2.308  0.00  0.00    -0.650 OA
BRANCH  23  25
HETATM   25  O   UNK N   1      26.005  30.043  -3.749  0.00  0.00    -0.776 OA
HETATM   26  H   UNK N   1      26.485  30.772  -4.090  0.00  0.00     0.167 HD
ENDBRANCH  23  25
ENDBRANCH  22  23
ENDBRANCH  21  22
ENDBRANCH   3  21
BRANCH   6  27
HETATM   27  O   UNK N   1      25.374  23.762  -8.617  0.00  0.00    -0.356 OA
HETATM   28  C   UNK N   1      25.620  24.562  -9.711  0.00  0.00     0.210 C 
ENDBRANCH   6  27
TORSDOF 8
ENDMDL
MODEL 8
REMARK VINA RESULT:      -6.6     12.875     16.926
REMARK  8 active torsions:
REMARK  status: ('A' for Active; 'I' for Inactive)
REMARK    1  A    between atoms: C_1  and  C_16 
REMARK    2  A    between atoms: C_1  and  C_17 
REMARK    3  A    between atoms: N_5  and  S_18 
REMARK    4  A    between atoms: C_7  and  C_16 
REMARK    5  A    between atoms: O_14  and  C_10 
REMARK    6  A    between atoms: C_17  and  O_25 
REMARK    7  A    between atoms: S_18  and  C_19 
REMARK    8  A    between atoms: C_21  and  O_26 
ROOT
HETATM    1  N   UNK N   1      36.153  13.975  12.233  0.00  0.00    -0.246 N 
HETATM    2  C   UNK N   1      36.127  14.646  13.410  0.00  0.00     0.117 A 
HETATM    3  C   UNK N   1      36.644  13.841  14.413  0.00  0.00    -0.028 A 
HETATM    4  C   UNK N   1      36.996  12.648  13.815  0.00  0.00     0.002 A 
HETATM    5  C   UNK N   1      36.684  12.762  12.482  0.00  0.00     0.061 A 
HETATM    6  C   UNK N   1      37.836  10.423  13.465  0.00  0.00     0.069 A 
HETATM    7  C   UNK N   1      37.514  10.546  12.090  0.00  0.00     0.039 A 
HETATM    8  C   UNK N   1      36.934  11.727  11.583  0.00  0.00     0.034 A 
HETATM    9  C   UNK N   1      37.572  11.500  14.344  0.00  0.00     0.051 A 
ENDROOT
BRANCH   1  10
HETATM   10  S   UNK N   1      35.639  14.712  10.698  0.00  0.00     0.269 S 
HETATM   11  O   UNK N   1      35.311  15.898  11.624  0.00  0.00    -0.200 OA
HETATM   12  O   UNK N   1      36.950  15.397  10.278  0.00  0.00    -0.200 OA
BRANCH  10  13
HETATM   13  C   UNK N   1      34.397  15.581   9.719  0.00  0.00     0.080 A 
HETATM   14  C   UNK N   1      33.152  14.967   9.504  0.00  0.00     0.028 A 
HETATM   15  C   UNK N   1      32.137  15.635   8.827  0.00  0.00     0.038 A 
HETATM   16  C   UNK N   1      32.341  16.943   8.365  0.00  0.00     0.068 A 
HETATM   17  C   UNK N   1      33.579  17.564   8.586  0.00  0.00     0.038 A 
HETATM   18  C   UNK N   1      34.605  16.889   9.268  0.00  0.00     0.028 A 
BRANCH  16  19
HETATM   19  O   UNK N   1      31.362  17.618   7.718  0.00  0.00    -0.356 OA
HETATM   20  C   UNK N   1      30.247  17.004   7.188  0.00  0.00     0.210 C 
ENDBRANCH  16  19
ENDBRANCH  10  13
ENDBRANCH   1  10
BRANCH   3  21
HETATM   21  C   UNK N   1      36.809  14.229  15.854  0.00  0.00     0.051 C 
BRANCH  21  22
HETATM   22  C   UNK N   1      35.670  13.653  16.697  0.00  0.00     0.114 C 
BRANCH  22  23
HETATM   23  C   UNK N   1      35.575  14.245  18.067  0.00  0.00     0.139 C 
HETATM   24  O   UNK N   1      36.004  15.370  18.264  0.00  0.00    -0.650 OA
BRANCH  23  25
HETATM   25  O   UNK N   1      35.036  13.550  19.088  0.00  0.00    -0.776 OA
HETATM   26  H   UNK N   1      34.155  13.233  19.112  0.00  0.00     0.167 HD
ENDBRANCH  23  25
ENDBRANCH  22  23
ENDBRANCH  21  22
ENDBRANCH   3  21
BRANCH   6  27
HETATM   27  O   UNK N   1      38.398   9.272  13.907  0.00  0.00    -0.356 OA
HETATM   28  C   UNK N   1      38.270   8.069  13.248  0.00  0.00     0.210 C 
ENDBRANCH   6  27
TORSDOF 8
ENDMDL
MODEL 9
REMARK VINA RESULT:      -6.5     13.353     15.804
REMARK  8 active torsions:
REMARK  status: ('A' for Active; 'I' for Inactive)
REMARK    1  A    between atoms: C_1  and  C_16 
REMARK    2  A    between atoms: C_1  and  C_17 
REMARK    3  A    between atoms: N_5  and  S_18 
REMARK    4  A    between atoms: C_7  and  C_16 
REMARK    5  A    between atoms: O_14  and  C_10 
REMARK    6  A    between atoms: C_17  and  O_25 
REMARK    7  A    between atoms: S_18  and  C_19 
REMARK    8  A    between atoms: C_21  and  O_26 
ROOT
HETATM    1  N   UNK N   1      36.194  13.405  12.668  0.00  0.00    -0.246 N 
HETATM    2  C   UNK N   1      35.655  14.639  12.512  0.00  0.00     0.117 A 
HETATM    3  C   UNK N   1      36.064  15.172  11.300  0.00  0.00    -0.028 A 
HETATM    4  C   UNK N   1      36.871  14.222  10.707  0.00  0.00     0.002 A 
HETATM    5  C   UNK N   1      36.929  13.154  11.568  0.00  0.00     0.061 A 
HETATM    6  C   UNK N   1      38.285  13.078   9.134  0.00  0.00     0.069 A 
HETATM    7  C   UNK N   1      38.341  11.978  10.026  0.00  0.00     0.039 A 
HETATM    8  C   UNK N   1      37.656  12.006  11.258  0.00  0.00     0.034 A 
HETATM    9  C   UNK N   1      37.532  14.224   9.485  0.00  0.00     0.051 A 
ENDROOT
BRANCH   1  10
HETATM   10  S   UNK N   1      35.834  12.373  14.072  0.00  0.00     0.269 S 
HETATM   11  O   UNK N   1      34.970  13.584  14.471  0.00  0.00    -0.200 OA
HETATM   12  O   UNK N   1      34.583  11.644  13.555  0.00  0.00    -0.200 OA
BRANCH  10  13
HETATM   13  C   UNK N   1      35.726  12.146  15.858  0.00  0.00     0.080 A 
HETATM   14  C   UNK N   1      35.257  13.208  16.650  0.00  0.00     0.028 A 
HETATM   15  C   UNK N   1      35.078  13.049  18.020  0.00  0.00     0.038 A 
HETATM   16  C   UNK N   1      35.348  11.815  18.627  0.00  0.00     0.068 A 
HETATM   17  C   UNK N   1      35.807  10.748  17.839  0.00  0.00     0.038 A 
HETATM   18  C   UNK N   1      35.990  10.909  16.456  0.00  0.00     0.028 A 
BRANCH  16  19
HETATM   19  O   UNK N   1      35.165  11.632  19.956  0.00  0.00    -0.356 OA
HETATM   20  C   UNK N   1      34.943  10.395  20.522  0.00  0.00     0.210 C 
ENDBRANCH  16  19
ENDBRANCH  10  13
ENDBRANCH   1  10
BRANCH   3  21
HETATM   21  C   UNK N   1      35.664  16.510  10.749  0.00  0.00     0.051 C 
BRANCH  21  22
HETATM   22  C   UNK N   1      34.588  16.345   9.674  0.00  0.00     0.114 C 
BRANCH  22  23
HETATM   23  C   UNK N   1      34.564  17.454   8.670  0.00  0.00     0.139 C 
HETATM   24  O   UNK N   1      35.162  18.490   8.909  0.00  0.00    -0.650 OA
BRANCH  23  25
HETATM   25  O   UNK N   1      33.883  17.330   7.515  0.00  0.00    -0.776 OA
HETATM   26  H   UNK N   1      34.227  17.530   6.667  0.00  0.00     0.167 HD
ENDBRANCH  23  25
ENDBRANCH  22  23
ENDBRANCH  21  22
ENDBRANCH   3  21
BRANCH   6  27
HETATM   27  O   UNK N   1      38.954  13.006   7.959  0.00  0.00    -0.356 OA
HETATM   28  C   UNK N   1      40.266  12.596   7.863  0.00  0.00     0.210 C 
ENDBRANCH   6  27
TORSDOF 8
ENDMDL
