MODEL 1
REMARK VINA RESULT:      -5.2      0.000      0.000
REMARK  3 active torsions:
REMARK  status: ('A' for Active; 'I' for Inactive)
REMARK    1  A    between atoms: C_2  and  C_5 
REMARK    2  A    between atoms: C_7  and  O_8 
REMARK    3  A    between atoms: C_11  and  O_12 
ROOT
HETATM    1  C   UNK N   1      22.324  13.154   9.544  0.00  0.00    -0.015 A 
HETATM    2  C   UNK N   1      23.664  12.878   9.871  0.00  0.00     0.047 A 
HETATM    3  C   UNK N   1      23.993  12.245  11.071  0.00  0.00     0.066 A 
HETATM    4  C   UNK N   1      22.988  11.886  11.969  0.00  0.00     0.039 A 
HETATM    5  C   UNK N   1      21.653  12.155  11.667  0.00  0.00     0.040 A 
HETATM    6  C   UNK N   1      21.312  12.779  10.462  0.00  0.00     0.072 A 
ENDROOT
BRANCH   1   7
HETATM    7  C   UNK N   1      21.979  13.829   8.221  0.00  0.00    -0.021 C 
HETATM    8  C   UNK N   1      23.256  14.195   7.484  0.00  0.00     0.019 C 
HETATM    9  C   UNK N   1      21.154  12.901   7.346  0.00  0.00     0.019 C 
HETATM   10  C   UNK N   1      21.173  15.108   8.404  0.00  0.00     0.019 C 
ENDBRANCH   1   7
BRANCH   6  11
HETATM   11  O   UNK N   1      20.016  13.021  10.197  0.00  0.00    -0.360 OA
HETATM   12  H   UNK N   1      19.447  12.317   9.953  0.00  0.00     0.217 HD
ENDBRANCH   6  11
BRANCH   3  13
HETATM   13  O   UNK N   1      25.277  11.976  11.359  0.00  0.00    -0.361 OA
HETATM   14  H   UNK N   1      25.923  12.652  11.300  0.00  0.00     0.217 HD
ENDBRANCH   3  13
TORSDOF 3
ENDMDL
MODEL 2
REMARK VINA RESULT:      -4.9     13.023     14.917
REMARK  3 active torsions:
REMARK  status: ('A' for Active; 'I' for Inactive)
REMARK    1  A    between atoms: C_2  and  C_5 
REMARK    2  A    between atoms: C_7  and  O_8 
REMARK    3  A    between atoms: C_11  and  O_12 
ROOT
HETATM    1  C   UNK N   1      35.141  11.523  16.713  0.00  0.00    -0.015 A 
HETATM    2  C   UNK N   1      35.327  11.068  18.032  0.00  0.00     0.047 A 
HETATM    3  C   UNK N   1      35.356  11.964  19.103  0.00  0.00     0.066 A 
HETATM    4  C   UNK N   1      35.211  13.332  18.871  0.00  0.00     0.039 A 
HETATM    5  C   UNK N   1      35.031  13.804  17.571  0.00  0.00     0.040 A 
HETATM    6  C   UNK N   1      34.989  12.914  16.493  0.00  0.00     0.072 A 
ENDROOT
BRANCH   1   7
HETATM    7  C   UNK N   1      35.093  10.530  15.557  0.00  0.00    -0.021 C 
HETATM    8  C   UNK N   1      35.262   9.117  16.088  0.00  0.00     0.019 C 
HETATM    9  C   UNK N   1      33.765  10.626  14.826  0.00  0.00     0.019 C 
HETATM   10  C   UNK N   1      36.191  10.768  14.529  0.00  0.00     0.019 C 
ENDBRANCH   1   7
BRANCH   6  11
HETATM   11  O   UNK N   1      34.810  13.400  15.252  0.00  0.00    -0.360 OA
HETATM   12  H   UNK N   1      34.834  14.325  15.102  0.00  0.00     0.217 HD
ENDBRANCH   6  11
BRANCH   3  13
HETATM   13  O   UNK N   1      35.518  11.509  20.355  0.00  0.00    -0.361 OA
HETATM   14  H   UNK N   1      35.102  10.715  20.624  0.00  0.00     0.217 HD
ENDBRANCH   3  13
TORSDOF 3
ENDMDL
MODEL 3
REMARK VINA RESULT:      -4.9     13.341     14.887
REMARK  3 active torsions:
REMARK  status: ('A' for Active; 'I' for Inactive)
REMARK    1  A    between atoms: C_2  and  C_5 
REMARK    2  A    between atoms: C_7  and  O_8 
REMARK    3  A    between atoms: C_11  and  O_12 
ROOT
HETATM    1  C   UNK N   1      35.164  12.014  16.644  0.00  0.00    -0.015 A 
HETATM    2  C   UNK N   1      35.147  13.376  16.999  0.00  0.00     0.047 A 
HETATM    3  C   UNK N   1      35.217  13.769  18.337  0.00  0.00     0.066 A 
HETATM    4  C   UNK N   1      35.294  12.806  19.344  0.00  0.00     0.039 A 
HETATM    5  C   UNK N   1      35.307  11.451  19.014  0.00  0.00     0.040 A 
HETATM    6  C   UNK N   1      35.248  11.047  17.677  0.00  0.00     0.072 A 
ENDROOT
BRANCH   1   7
HETATM    7  C   UNK N   1      35.107  11.601  15.177  0.00  0.00    -0.021 C 
HETATM    8  C   UNK N   1      35.094  12.838  14.297  0.00  0.00     0.019 C 
HETATM    9  C   UNK N   1      36.312  10.750  14.814  0.00  0.00     0.019 C 
HETATM   10  C   UNK N   1      33.864  10.787  14.843  0.00  0.00     0.019 C 
ENDBRANCH   1   7
BRANCH   6  11
HETATM   11  O   UNK N   1      35.267   9.733  17.390  0.00  0.00    -0.360 OA
HETATM   12  H   UNK N   1      36.060   9.327  17.099  0.00  0.00     0.217 HD
ENDBRANCH   6  11
BRANCH   3  13
HETATM   13  O   UNK N   1      35.216  15.073  18.655  0.00  0.00    -0.361 OA
HETATM   14  H   UNK N   1      35.983  15.592  18.515  0.00  0.00     0.217 HD
ENDBRANCH   3  13
TORSDOF 3
ENDMDL
MODEL 4
REMARK VINA RESULT:      -4.8     20.297     22.297
REMARK  3 active torsions:
REMARK  status: ('A' for Active; 'I' for Inactive)
REMARK    1  A    between atoms: C_2  and  C_5 
REMARK    2  A    between atoms: C_7  and  O_8 
REMARK    3  A    between atoms: C_11  and  O_12 
ROOT
HETATM    1  C   UNK N   1      26.764  28.423  -5.212  0.00  0.00    -0.015 A 
HETATM    2  C   UNK N   1      27.722  29.142  -5.952  0.00  0.00     0.047 A 
HETATM    3  C   UNK N   1      28.159  30.399  -5.528  0.00  0.00     0.066 A 
HETATM    4  C   UNK N   1      27.638  30.962  -4.363  0.00  0.00     0.039 A 
HETATM    5  C   UNK N   1      26.684  30.269  -3.618  0.00  0.00     0.040 A 
HETATM    6  C   UNK N   1      26.248  29.005  -4.028  0.00  0.00     0.072 A 
ENDROOT
BRANCH   1   7
HETATM    7  C   UNK N   1      26.311  27.043  -5.678  0.00  0.00    -0.021 C 
HETATM    8  C   UNK N   1      26.829  26.781  -7.082  0.00  0.00     0.019 C 
HETATM    9  C   UNK N   1      26.841  25.965  -4.748  0.00  0.00     0.019 C 
HETATM   10  C   UNK N   1      24.795  26.902  -5.713  0.00  0.00     0.019 C 
ENDBRANCH   1   7
BRANCH   6  11
HETATM   11  O   UNK N   1      25.330  28.359  -3.287  0.00  0.00    -0.360 OA
HETATM   12  H   UNK N   1      24.447  28.671  -3.256  0.00  0.00     0.217 HD
ENDBRANCH   6  11
BRANCH   3  13
HETATM   13  O   UNK N   1      29.084  31.062  -6.238  0.00  0.00    -0.361 OA
HETATM   14  H   UNK N   1      29.511  30.645  -6.960  0.00  0.00     0.217 HD
ENDBRANCH   3  13
TORSDOF 3
ENDMDL
MODEL 5
REMARK VINA RESULT:      -4.7     12.578     14.410
REMARK  3 active torsions:
REMARK  status: ('A' for Active; 'I' for Inactive)
REMARK    1  A    between atoms: C_2  and  C_5 
REMARK    2  A    between atoms: C_7  and  O_8 
REMARK    3  A    between atoms: C_11  and  O_12 
ROOT
HETATM    1  C   UNK N   1      35.481  12.153  14.487  0.00  0.00    -0.015 A 
HETATM    2  C   UNK N   1      36.327  12.915  15.314  0.00  0.00     0.047 A 
HETATM    3  C   UNK N   1      36.795  14.166  14.904  0.00  0.00     0.066 A 
HETATM    4  C   UNK N   1      36.432  14.670  13.655  0.00  0.00     0.039 A 
HETATM    5  C   UNK N   1      35.599  13.929  12.818  0.00  0.00     0.040 A 
HETATM    6  C   UNK N   1      35.116  12.681  13.224  0.00  0.00     0.072 A 
ENDROOT
BRANCH   1   7
HETATM    7  C   UNK N   1      34.963  10.798  14.957  0.00  0.00    -0.021 C 
HETATM    8  C   UNK N   1      35.321  10.592  16.419  0.00  0.00     0.019 C 
HETATM    9  C   UNK N   1      33.454  10.720  14.803  0.00  0.00     0.019 C 
HETATM   10  C   UNK N   1      35.556   9.636  14.171  0.00  0.00     0.019 C 
ENDBRANCH   1   7
BRANCH   6  11
HETATM   11  O   UNK N   1      34.311  11.992  12.396  0.00  0.00    -0.360 OA
HETATM   12  H   UNK N   1      33.615  12.429  11.946  0.00  0.00     0.217 HD
ENDBRANCH   6  11
BRANCH   3  13
HETATM   13  O   UNK N   1      37.588  14.884  15.713  0.00  0.00    -0.361 OA
HETATM   14  H   UNK N   1      38.040  15.635  15.383  0.00  0.00     0.217 HD
ENDBRANCH   3  13
TORSDOF 3
ENDMDL
MODEL 6
REMARK VINA RESULT:      -4.7     10.423     11.968
REMARK  3 active torsions:
REMARK  status: ('A' for Active; 'I' for Inactive)
REMARK    1  A    between atoms: C_2  and  C_5 
REMARK    2  A    between atoms: C_7  and  O_8 
REMARK    3  A    between atoms: C_11  and  O_12 
ROOT
HETATM    1  C   UNK N   1      33.025  16.812   6.805  0.00  0.00    -0.015 A 
HETATM    2  C   UNK N   1      33.837  17.936   7.045  0.00  0.00     0.047 A 
HETATM    3  C   UNK N   1      34.502  18.095   8.263  0.00  0.00     0.066 A 
HETATM    4  C   UNK N   1      34.356  17.136   9.266  0.00  0.00     0.039 A 
HETATM    5  C   UNK N   1      33.553  16.017   9.051  0.00  0.00     0.040 A 
HETATM    6  C   UNK N   1      32.892  15.844   7.831  0.00  0.00     0.072 A 
ENDROOT
BRANCH   1   7
HETATM    7  C   UNK N   1      32.322  16.644   5.463  0.00  0.00    -0.021 C 
HETATM    8  C   UNK N   1      30.825  16.830   5.642  0.00  0.00     0.019 C 
HETATM    9  C   UNK N   1      32.829  17.668   4.462  0.00  0.00     0.019 C 
HETATM   10  C   UNK N   1      32.544  15.268   4.849  0.00  0.00     0.019 C 
ENDBRANCH   1   7
BRANCH   6  11
HETATM   11  O   UNK N   1      32.127  14.752   7.652  0.00  0.00    -0.360 OA
HETATM   12  H   UNK N   1      32.523  13.933   7.426  0.00  0.00     0.217 HD
ENDBRANCH   6  11
BRANCH   3  13
HETATM   13  O   UNK N   1      35.284  19.166   8.467  0.00  0.00    -0.361 OA
HETATM   14  H   UNK N   1      35.282  19.873   7.852  0.00  0.00     0.217 HD
ENDBRANCH   3  13
TORSDOF 3
ENDMDL
MODEL 7
REMARK VINA RESULT:      -4.6      9.135     10.780
REMARK  3 active torsions:
REMARK  status: ('A' for Active; 'I' for Inactive)
REMARK    1  A    between atoms: C_2  and  C_5 
REMARK    2  A    between atoms: C_7  and  O_8 
REMARK    3  A    between atoms: C_11  and  O_12 
ROOT
HETATM    1  C   UNK N   1      31.707  17.380   7.486  0.00  0.00    -0.015 A 
HETATM    2  C   UNK N   1      31.397  18.044   8.688  0.00  0.00     0.047 A 
HETATM    3  C   UNK N   1      30.071  18.200   9.099  0.00  0.00     0.066 A 
HETATM    4  C   UNK N   1      29.034  17.705   8.310  0.00  0.00     0.039 A 
HETATM    5  C   UNK N   1      29.319  17.048   7.113  0.00  0.00     0.040 A 
HETATM    6  C   UNK N   1      30.644  16.877   6.698  0.00  0.00     0.072 A 
ENDROOT
BRANCH   1   7
HETATM    7  C   UNK N   1      33.161  17.200   7.061  0.00  0.00    -0.021 C 
HETATM    8  C   UNK N   1      34.051  18.119   7.879  0.00  0.00     0.019 C 
HETATM    9  C   UNK N   1      33.606  15.764   7.275  0.00  0.00     0.019 C 
HETATM   10  C   UNK N   1      33.389  17.528   5.591  0.00  0.00     0.019 C 
ENDBRANCH   1   7
BRANCH   6  11
HETATM   11  O   UNK N   1      30.887  16.235   5.541  0.00  0.00    -0.360 OA
HETATM   12  H   UNK N   1      30.480  16.526   4.748  0.00  0.00     0.217 HD
ENDBRANCH   6  11
BRANCH   3  13
HETATM   13  O   UNK N   1      29.796  18.823  10.255  0.00  0.00    -0.361 OA
HETATM   14  H   UNK N   1      29.778  19.758  10.293  0.00  0.00     0.217 HD
ENDBRANCH   3  13
TORSDOF 3
ENDMDL
MODEL 8
REMARK VINA RESULT:      -4.6      7.983      9.521
REMARK  3 active torsions:
REMARK  status: ('A' for Active; 'I' for Inactive)
REMARK    1  A    between atoms: C_2  and  C_5 
REMARK    2  A    between atoms: C_7  and  O_8 
REMARK    3  A    between atoms: C_11  and  O_12 
ROOT
HETATM    1  C   UNK N   1      29.904  16.999   7.098  0.00  0.00    -0.015 A 
HETATM    2  C   UNK N   1      28.654  17.249   7.693  0.00  0.00     0.047 A 
HETATM    3  C   UNK N   1      28.555  18.009   8.860  0.00  0.00     0.066 A 
HETATM    4  C   UNK N   1      29.706  18.522   9.458  0.00  0.00     0.039 A 
HETATM    5  C   UNK N   1      30.956  18.282   8.887  0.00  0.00     0.040 A 
HETATM    6  C   UNK N   1      31.065  17.531   7.712  0.00  0.00     0.072 A 
ENDROOT
BRANCH   1   7
HETATM    7  C   UNK N   1      29.994  16.183   5.812  0.00  0.00    -0.021 C 
HETATM    8  C   UNK N   1      28.610  15.699   5.415  0.00  0.00     0.019 C 
HETATM    9  C   UNK N   1      30.564  17.025   4.684  0.00  0.00     0.019 C 
HETATM   10  C   UNK N   1      30.887  14.957   5.953  0.00  0.00     0.019 C 
ENDBRANCH   1   7
BRANCH   6  11
HETATM   11  O   UNK N   1      32.283  17.320   7.183  0.00  0.00    -0.360 OA
HETATM   12  H   UNK N   1      32.939  17.986   7.235  0.00  0.00     0.217 HD
ENDBRANCH   6  11
BRANCH   3  13
HETATM   13  O   UNK N   1      27.352  18.250   9.405  0.00  0.00    -0.361 OA
HETATM   14  H   UNK N   1      26.908  17.576   9.880  0.00  0.00     0.217 HD
ENDBRANCH   3  13
TORSDOF 3
ENDMDL
MODEL 9
REMARK VINA RESULT:      -4.6     10.001     12.033
REMARK  3 active torsions:
REMARK  status: ('A' for Active; 'I' for Inactive)
REMARK    1  A    between atoms: C_2  and  C_5 
REMARK    2  A    between atoms: C_7  and  O_8 
REMARK    3  A    between atoms: C_11  and  O_12 
ROOT
HETATM    1  C   UNK N   1      32.047  17.235   6.239  0.00  0.00    -0.015 A 
HETATM    2  C   UNK N   1      30.845  17.138   5.513  0.00  0.00     0.047 A 
HETATM    3  C   UNK N   1      30.849  17.154   4.116  0.00  0.00     0.066 A 
HETATM    4  C   UNK N   1      32.053  17.280   3.423  0.00  0.00     0.039 A 
HETATM    5  C   UNK N   1      33.254  17.383   4.124  0.00  0.00     0.040 A 
HETATM    6  C   UNK N   1      33.262  17.356   5.523  0.00  0.00     0.072 A 
ENDROOT
BRANCH   1   7
HETATM    7  C   UNK N   1      32.028  17.196   7.764  0.00  0.00    -0.021 C 
HETATM    8  C   UNK N   1      30.621  17.469   8.266  0.00  0.00     0.019 C 
HETATM    9  C   UNK N   1      32.476  15.835   8.269  0.00  0.00     0.019 C 
HETATM   10  C   UNK N   1      32.949  18.234   8.391  0.00  0.00     0.019 C 
ENDBRANCH   1   7
BRANCH   6  11
HETATM   11  O   UNK N   1      34.437  17.453   6.170  0.00  0.00    -0.360 OA
HETATM   12  H   UNK N   1      34.755  18.291   6.444  0.00  0.00     0.217 HD
ENDBRANCH   6  11
BRANCH   3  13
HETATM   13  O   UNK N   1      29.694  17.045   3.441  0.00  0.00    -0.361 OA
HETATM   14  H   UNK N   1      29.618  17.405   2.579  0.00  0.00     0.217 HD
ENDBRANCH   3  13
TORSDOF 3
ENDMDL
