REMARK  3 active torsions:
REMARK  status: ('A' for Active; 'I' for Inactive)
REMARK    1  A    between atoms: C_2  and  C_5 
REMARK    2  A    between atoms: C_7  and  O_8 
REMARK    3  A    between atoms: C_11  and  O_12 
ROOT
HETATM    1  C   UNK N   1       0.256  -0.211   0.049  0.00  0.00    -0.015 A 
HETATM    2  C   UNK N   1       0.242  -1.617  -0.012  0.00  0.00     0.047 A 
HETATM    3  C   UNK N   1      -0.962  -2.319  -0.099  0.00  0.00     0.066 A 
HETATM    4  C   UNK N   1      -2.173  -1.627  -0.115  0.00  0.00     0.039 A 
HETATM    5  C   UNK N   1      -2.182  -0.234  -0.050  0.00  0.00     0.040 A 
HETATM    6  C   UNK N   1      -0.981   0.479   0.026  0.00  0.00     0.072 A 
ENDROOT
BRANCH   1   7
HETATM    7  C   UNK N   1       1.580   0.542   0.124  0.00  0.00    -0.021 C 
HETATM    8  C   UNK N   1       1.759   1.389  -1.124  0.00  0.00     0.019 C 
HETATM    9  C   UNK N   1       1.611   1.448   1.343  0.00  0.00     0.019 C 
HETATM   10  C   UNK N   1       2.782  -0.388   0.224  0.00  0.00     0.019 C 
ENDBRANCH   1   7
BRANCH   6  11
HETATM   11  O   UNK N   1      -1.022   1.822   0.083  0.00  0.00    -0.360 OA
HETATM   12  H   UNK N   1      -0.226   2.315   0.123  0.00  0.00     0.217 HD
ENDBRANCH   6  11
BRANCH   3  13
HETATM   13  O   UNK N   1      -0.954  -3.659  -0.172  0.00  0.00    -0.361 OA
HETATM   14  H   UNK N   1      -1.761  -4.132  -0.222  0.00  0.00     0.217 HD
ENDBRANCH   3  13
TORSDOF 3
