MODEL 1
REMARK VINA RESULT:      -8.5      0.000      0.000
REMARK  2 active torsions:
REMARK  status: ('A' for Active; 'I' for Inactive)
REMARK    1  A    between atoms: C_14  and  C_15 
REMARK    2  A    between atoms: C_16  and  C_17 
ROOT
HETATM    1  C   UNK N   1      35.586  14.318  12.925  0.00  0.00     0.044 A 
HETATM    2  C   UNK N   1      36.784  13.345  11.086  0.00  0.00     0.030 A 
HETATM    3  C   UNK N   1      37.538  12.608  12.016  0.00  0.00     0.089 A 
HETATM    4  C   UNK N   1      35.791  14.209  11.559  0.00  0.00    -0.006 A 
HETATM    5  C   UNK N   1      36.355  13.598  13.828  0.00  0.00     0.046 A 
HETATM    6  N   UNK N   1      37.319  12.756  13.356  0.00  0.00    -0.365 N 
ATOM      7  HN  UNK N   1      37.888  12.227  14.018  1.00  0.00     0.165 HD
ENDROOT
BRANCH   4   8
HETATM    8  C   UNK N   1      34.989  15.081  10.689  0.00  0.00     0.043 A 
HETATM    9  C   UNK N   1      35.441  16.316  10.241  0.00  0.00     0.049 A 
HETATM   10  C   UNK N   1      34.458  16.762   9.404  0.00  0.00     0.056 A 
HETATM   11  C   UNK N   1      34.402  17.991   8.636  0.00  0.00     0.253 A 
HETATM   12  C   UNK N   1      33.478  15.828   9.364  0.00  0.00     0.027 A 
HETATM   13  N   UNK N   1      33.337  18.210   7.825  0.00  0.00    -0.356 N 
HETATM   14  O   UNK N   1      35.299  18.813   8.708  0.00  0.00    -0.268 OA
HETATM   15  C   UNK N   1      32.223  17.274   7.667  0.00  0.00     0.129 A 
HETATM   16  H   UNK N   1      33.312  19.049   7.311  0.00  0.00     0.162 HD
HETATM   17  C   UNK N   1      32.254  15.975   8.524  0.00  0.00     0.078 A 
HETATM   18  N   UNK N   1      33.783  14.778  10.155  0.00  0.00    -0.358 N 
HETATM   19  H   UNK N   1      33.245  13.968  10.309  0.00  0.00     0.166 HD
ENDBRANCH   4   8
BRANCH   5  20
HETATM   20  C   UNK N   1      36.125  13.822  15.279  0.00  0.00     0.029 A 
HETATM   21  C   UNK N   1      35.184  13.011  15.947  0.00  0.00     0.017 A 
HETATM   22  C   UNK N   1      34.910  13.191  17.299  0.00  0.00     0.001 A 
HETATM   23  C   UNK N   1      35.569  14.191  18.012  0.00  0.00     0.003 A 
HETATM   24  C   UNK N   1      36.504  15.006  17.367  0.00  0.00     0.043 A 
HETATM   25  C   UNK N   1      36.788  14.828  16.008  0.00  0.00     0.128 A 
HETATM   26  F   UNK N   1      37.689  15.646  15.413  0.00  0.00    -0.205 F 
ENDBRANCH   5  20
TORSDOF 2
ENDMDL
MODEL 2
REMARK VINA RESULT:      -8.1      1.870      2.362
REMARK  2 active torsions:
REMARK  status: ('A' for Active; 'I' for Inactive)
REMARK    1  A    between atoms: C_14  and  C_15 
REMARK    2  A    between atoms: C_16  and  C_17 
ROOT
HETATM    1  C   UNK N   1      35.591  12.984  14.124  0.00  0.00     0.044 A 
HETATM    2  C   UNK N   1      37.046  12.191  12.387  0.00  0.00     0.030 A 
HETATM    3  C   UNK N   1      37.706  11.407  13.349  0.00  0.00     0.089 A 
HETATM    4  C   UNK N   1      35.970  12.987  12.790  0.00  0.00    -0.006 A 
HETATM    5  C   UNK N   1      36.267  12.220  15.063  0.00  0.00     0.046 A 
HETATM    6  N   UNK N   1      37.315  11.445  14.658  0.00  0.00    -0.365 N 
ATOM      7  HN  UNK N   1      37.817  10.883  15.347  1.00  0.00     0.165 HD
ENDROOT
BRANCH   4   8
HETATM    8  C   UNK N   1      35.250  13.900  11.891  0.00  0.00     0.043 A 
HETATM    9  C   UNK N   1      35.708  15.177  11.593  0.00  0.00     0.049 A 
HETATM   10  C   UNK N   1      34.821  15.658  10.672  0.00  0.00     0.056 A 
HETATM   11  C   UNK N   1      34.815  16.940   9.993  0.00  0.00     0.253 A 
HETATM   12  C   UNK N   1      33.889  14.703  10.442  0.00  0.00     0.027 A 
HETATM   13  N   UNK N   1      33.852  17.189   9.072  0.00  0.00    -0.356 N 
HETATM   14  O   UNK N   1      35.666  17.778  10.236  0.00  0.00    -0.268 OA
HETATM   15  C   UNK N   1      32.801  16.238   8.708  0.00  0.00     0.129 A 
HETATM   16  H   UNK N   1      33.860  18.063   8.620  0.00  0.00     0.162 HD
HETATM   17  C   UNK N   1      32.773  14.879   9.467  0.00  0.00     0.078 A 
HETATM   18  N   UNK N   1      34.132  13.605  11.188  0.00  0.00    -0.358 N 
HETATM   19  H   UNK N   1      33.609  12.771  11.215  0.00  0.00     0.166 HD
ENDBRANCH   4   8
BRANCH   5  20
HETATM   20  C   UNK N   1      35.849  12.325  16.485  0.00  0.00     0.029 A 
HETATM   21  C   UNK N   1      35.565  13.601  17.012  0.00  0.00     0.017 A 
HETATM   22  C   UNK N   1      35.193  13.763  18.344  0.00  0.00     0.001 A 
HETATM   23  C   UNK N   1      35.102  12.649  19.177  0.00  0.00     0.003 A 
HETATM   24  C   UNK N   1      35.381  11.376  18.673  0.00  0.00     0.043 A 
HETATM   25  C   UNK N   1      35.753  11.205  17.334  0.00  0.00     0.128 A 
HETATM   26  F   UNK N   1      36.031   9.958  16.884  0.00  0.00    -0.205 F 
ENDBRANCH   5  20
TORSDOF 2
ENDMDL
MODEL 3
REMARK VINA RESULT:      -8.0     17.908     22.109
REMARK  2 active torsions:
REMARK  status: ('A' for Active; 'I' for Inactive)
REMARK    1  A    between atoms: C_14  and  C_15 
REMARK    2  A    between atoms: C_16  and  C_17 
ROOT
HETATM    1  C   UNK N   1      27.731  25.908  -5.444  0.00  0.00     0.044 A 
HETATM    2  C   UNK N   1      26.548  24.175  -6.611  0.00  0.00     0.030 A 
HETATM    3  C   UNK N   1      25.581  25.129  -6.971  0.00  0.00     0.089 A 
HETATM    4  C   UNK N   1      27.639  24.582  -5.836  0.00  0.00    -0.006 A 
HETATM    5  C   UNK N   1      26.755  26.831  -5.792  0.00  0.00     0.046 A 
HETATM    6  N   UNK N   1      25.696  26.423  -6.549  0.00  0.00    -0.365 N 
ATOM      7  HN  UNK N   1      24.975  27.099  -6.805  1.00  0.00     0.165 HD
ENDROOT
BRANCH   4   8
HETATM    8  C   UNK N   1      28.673  23.663  -5.340  0.00  0.00     0.043 A 
HETATM    9  C   UNK N   1      29.188  23.736  -4.052  0.00  0.00     0.049 A 
HETATM   10  C   UNK N   1      30.042  22.674  -3.958  0.00  0.00     0.056 A 
HETATM   11  C   UNK N   1      30.846  22.246  -2.829  0.00  0.00     0.253 A 
HETATM   12  C   UNK N   1      30.024  22.010  -5.138  0.00  0.00     0.027 A 
HETATM   13  N   UNK N   1      31.595  21.122  -2.946  0.00  0.00    -0.356 N 
HETATM   14  O   UNK N   1      30.844  22.878  -1.787  0.00  0.00    -0.268 OA
HETATM   15  C   UNK N   1      31.648  20.296  -4.154  0.00  0.00     0.129 A 
HETATM   16  H   UNK N   1      32.137  20.845  -2.173  0.00  0.00     0.162 HD
HETATM   17  C   UNK N   1      30.825  20.775  -5.384  0.00  0.00     0.078 A 
HETATM   18  N   UNK N   1      29.185  22.605  -6.011  0.00  0.00    -0.358 N 
HETATM   19  H   UNK N   1      28.988  22.330  -6.936  0.00  0.00     0.166 HD
ENDBRANCH   4   8
BRANCH   5  20
HETATM   20  C   UNK N   1      26.885  28.217  -5.273  0.00  0.00     0.029 A 
HETATM   21  C   UNK N   1      27.778  29.098  -5.916  0.00  0.00     0.017 A 
HETATM   22  C   UNK N   1      27.959  30.400  -5.460  0.00  0.00     0.001 A 
HETATM   23  C   UNK N   1      27.251  30.847  -4.345  0.00  0.00     0.003 A 
HETATM   24  C   UNK N   1      26.363  29.988  -3.692  0.00  0.00     0.043 A 
HETATM   25  C   UNK N   1      26.173  28.678  -4.148  0.00  0.00     0.128 A 
HETATM   26  F   UNK N   1      25.314  27.869  -3.483  0.00  0.00    -0.205 F 
ENDBRANCH   5  20
TORSDOF 2
ENDMDL
MODEL 4
REMARK VINA RESULT:      -7.8      4.867     10.064
REMARK  2 active torsions:
REMARK  status: ('A' for Active; 'I' for Inactive)
REMARK    1  A    between atoms: C_14  and  C_15 
REMARK    2  A    between atoms: C_16  and  C_17 
ROOT
HETATM    1  C   UNK N   1      29.883  17.500   6.338  0.00  0.00     0.044 A 
HETATM    2  C   UNK N   1      30.190  15.179   5.802  0.00  0.00     0.030 A 
HETATM    3  C   UNK N   1      29.019  15.242   5.027  0.00  0.00     0.089 A 
HETATM    4  C   UNK N   1      30.623  16.334   6.462  0.00  0.00    -0.006 A 
HETATM    5  C   UNK N   1      28.718  17.536   5.586  0.00  0.00     0.046 A 
HETATM    6  N   UNK N   1      28.306  16.405   4.944  0.00  0.00    -0.365 N 
ATOM      7  HN  UNK N   1      27.448  16.427   4.392  1.00  0.00     0.165 HD
ENDROOT
BRANCH   4   8
HETATM    8  C   UNK N   1      31.789  16.373   7.355  0.00  0.00     0.043 A 
HETATM    9  C   UNK N   1      32.669  17.447   7.397  0.00  0.00     0.049 A 
HETATM   10  C   UNK N   1      33.546  17.139   8.398  0.00  0.00     0.056 A 
HETATM   11  C   UNK N   1      34.669  17.909   8.897  0.00  0.00     0.253 A 
HETATM   12  C   UNK N   1      33.192  15.939   8.918  0.00  0.00     0.027 A 
HETATM   13  N   UNK N   1      35.385  17.424   9.940  0.00  0.00    -0.356 N 
HETATM   14  O   UNK N   1      34.963  18.980   8.394  0.00  0.00    -0.268 OA
HETATM   15  C   UNK N   1      35.096  16.156  10.612  0.00  0.00     0.129 A 
HETATM   16  H   UNK N   1      36.145  17.957  10.267  0.00  0.00     0.162 HD
HETATM   17  C   UNK N   1      33.922  15.302  10.053  0.00  0.00     0.078 A 
HETATM   18  N   UNK N   1      32.108  15.443   8.286  0.00  0.00    -0.358 N 
HETATM   19  H   UNK N   1      31.649  14.590   8.464  0.00  0.00     0.166 HD
ENDBRANCH   4   8
BRANCH   5  20
HETATM   20  C   UNK N   1      27.940  18.802   5.559  0.00  0.00     0.029 A 
HETATM   21  C   UNK N   1      27.505  19.301   4.314  0.00  0.00     0.017 A 
HETATM   22  C   UNK N   1      26.793  20.494   4.226  0.00  0.00     0.001 A 
HETATM   23  C   UNK N   1      26.507  21.216   5.383  0.00  0.00     0.003 A 
HETATM   24  C   UNK N   1      26.932  20.739   6.626  0.00  0.00     0.043 A 
HETATM   25  C   UNK N   1      27.644  19.538   6.723  0.00  0.00     0.128 A 
HETATM   26  F   UNK N   1      28.052  19.113   7.944  0.00  0.00    -0.205 F 
ENDBRANCH   5  20
TORSDOF 2
ENDMDL
MODEL 5
REMARK VINA RESULT:      -7.6     17.706     21.404
REMARK  2 active torsions:
REMARK  status: ('A' for Active; 'I' for Inactive)
REMARK    1  A    between atoms: C_14  and  C_15 
REMARK    2  A    between atoms: C_16  and  C_17 
ROOT
HETATM    1  C   UNK N   1      28.070  23.805  -5.634  0.00  0.00     0.044 A 
HETATM    2  C   UNK N   1      27.752  22.023  -7.211  0.00  0.00     0.030 A 
HETATM    3  C   UNK N   1      26.545  22.630  -7.597  0.00  0.00     0.089 A 
HETATM    4  C   UNK N   1      28.523  22.630  -6.214  0.00  0.00    -0.006 A 
HETATM    5  C   UNK N   1      26.865  24.378  -6.014  0.00  0.00     0.046 A 
HETATM    6  N   UNK N   1      26.122  23.778  -6.989  0.00  0.00    -0.365 N 
ATOM      7  HN  UNK N   1      25.234  24.195  -7.268  1.00  0.00     0.165 HD
ENDROOT
BRANCH   4   8
HETATM    8  C   UNK N   1      29.764  22.054  -5.680  0.00  0.00     0.043 A 
HETATM    9  C   UNK N   1      30.197  22.275  -4.379  0.00  0.00     0.049 A 
HETATM   10  C   UNK N   1      31.320  21.509  -4.250  0.00  0.00     0.056 A 
HETATM   11  C   UNK N   1      32.179  21.335  -3.095  0.00  0.00     0.253 A 
HETATM   12  C   UNK N   1      31.532  20.867  -5.424  0.00  0.00     0.027 A 
HETATM   13  N   UNK N   1      33.227  20.479  -3.180  0.00  0.00    -0.356 N 
HETATM   14  O   UNK N   1      31.962  21.940  -2.060  0.00  0.00    -0.268 OA
HETATM   15  C   UNK N   1      33.555  19.702  -4.377  0.00  0.00     0.129 A 
HETATM   16  H   UNK N   1      33.802  20.371  -2.389  0.00  0.00     0.162 HD
HETATM   17  C   UNK N   1      32.665  19.919  -5.635  0.00  0.00     0.078 A 
HETATM   18  N   UNK N   1      30.582  21.191  -6.327  0.00  0.00    -0.358 N 
HETATM   19  H   UNK N   1      30.502  20.869  -7.254  0.00  0.00     0.166 HD
ENDBRANCH   4   8
BRANCH   5  20
HETATM   20  C   UNK N   1      26.412  25.597  -5.295  0.00  0.00     0.029 A 
HETATM   21  C   UNK N   1      26.684  25.709  -3.916  0.00  0.00     0.017 A 
HETATM   22  C   UNK N   1      26.262  26.816  -3.187  0.00  0.00     0.001 A 
HETATM   23  C   UNK N   1      25.554  27.835  -3.823  0.00  0.00     0.003 A 
HETATM   24  C   UNK N   1      25.272  27.741  -5.188  0.00  0.00     0.043 A 
HETATM   25  C   UNK N   1      25.697  26.632  -5.929  0.00  0.00     0.128 A 
HETATM   26  F   UNK N   1      25.394  26.568  -7.249  0.00  0.00    -0.205 F 
ENDBRANCH   5  20
TORSDOF 2
ENDMDL
MODEL 6
REMARK VINA RESULT:      -7.4     12.808     14.515
REMARK  2 active torsions:
REMARK  status: ('A' for Active; 'I' for Inactive)
REMARK    1  A    between atoms: C_14  and  C_15 
REMARK    2  A    between atoms: C_16  and  C_17 
ROOT
HETATM    1  C   UNK N   1      22.305  16.163   6.507  0.00  0.00     0.044 A 
HETATM    2  C   UNK N   1      20.850  17.106   4.846  0.00  0.00     0.030 A 
HETATM    3  C   UNK N   1      19.808  16.319   5.364  0.00  0.00     0.089 A 
HETATM    4  C   UNK N   1      22.116  17.023   5.436  0.00  0.00    -0.006 A 
HETATM    5  C   UNK N   1      21.269  15.378   6.992  0.00  0.00     0.046 A 
HETATM    6  N   UNK N   1      20.038  15.469   6.410  0.00  0.00    -0.365 N 
ATOM      7  HN  UNK N   1      19.275  14.891   6.762  1.00  0.00     0.165 HD
ENDROOT
BRANCH   4   8
HETATM    8  C   UNK N   1      23.296  17.742   4.937  0.00  0.00     0.043 A 
HETATM    9  C   UNK N   1      23.216  18.745   3.980  0.00  0.00     0.049 A 
HETATM   10  C   UNK N   1      24.493  19.212   3.857  0.00  0.00     0.056 A 
HETATM   11  C   UNK N   1      25.000  20.277   3.012  0.00  0.00     0.253 A 
HETATM   12  C   UNK N   1      25.284  18.513   4.707  0.00  0.00     0.027 A 
HETATM   13  N   UNK N   1      26.313  20.605   3.087  0.00  0.00    -0.356 N 
HETATM   14  O   UNK N   1      24.258  20.874   2.252  0.00  0.00    -0.268 OA
HETATM   15  C   UNK N   1      27.271  19.950   3.979  0.00  0.00     0.129 A 
HETATM   16  H   UNK N   1      26.642  21.328   2.507  0.00  0.00     0.162 HD
HETATM   17  C   UNK N   1      26.745  18.776   4.855  0.00  0.00     0.078 A 
HETATM   18  N   UNK N   1      24.565  17.594   5.385  0.00  0.00    -0.358 N 
HETATM   19  H   UNK N   1      24.892  16.956   6.059  0.00  0.00     0.166 HD
ENDBRANCH   4   8
BRANCH   5  20
HETATM   20  C   UNK N   1      21.567  14.428   8.095  0.00  0.00     0.029 A 
HETATM   21  C   UNK N   1      22.676  13.568   7.964  0.00  0.00     0.017 A 
HETATM   22  C   UNK N   1      22.989  12.640   8.954  0.00  0.00     0.001 A 
HETATM   23  C   UNK N   1      22.193  12.553  10.095  0.00  0.00     0.003 A 
HETATM   24  C   UNK N   1      21.089  13.395  10.243  0.00  0.00     0.043 A 
HETATM   25  C   UNK N   1      20.770  14.333   9.253  0.00  0.00     0.128 A 
HETATM   26  F   UNK N   1      19.683  15.124   9.423  0.00  0.00    -0.205 F 
ENDBRANCH   5  20
TORSDOF 2
ENDMDL
MODEL 7
REMARK VINA RESULT:      -7.3      6.116     10.471
REMARK  2 active torsions:
REMARK  status: ('A' for Active; 'I' for Inactive)
REMARK    1  A    between atoms: C_14  and  C_15 
REMARK    2  A    between atoms: C_16  and  C_17 
ROOT
HETATM    1  C   UNK N   1      29.419  17.862   6.885  0.00  0.00     0.044 A 
HETATM    2  C   UNK N   1      29.742  17.711   9.259  0.00  0.00     0.030 A 
HETATM    3  C   UNK N   1      28.483  18.311   9.431  0.00  0.00     0.089 A 
HETATM    4  C   UNK N   1      30.208  17.484   7.959  0.00  0.00    -0.006 A 
HETATM    5  C   UNK N   1      28.187  18.471   7.075  0.00  0.00     0.046 A 
HETATM    6  N   UNK N   1      27.742  18.686   8.346  0.00  0.00    -0.365 N 
ATOM      7  HN  UNK N   1      26.837  19.137   8.490  1.00  0.00     0.165 HD
ENDROOT
BRANCH   4   8
HETATM    8  C   UNK N   1      31.535  16.931   7.655  0.00  0.00     0.043 A 
HETATM    9  C   UNK N   1      32.308  16.269   8.600  0.00  0.00     0.049 A 
HETATM   10  C   UNK N   1      33.407  15.841   7.912  0.00  0.00     0.056 A 
HETATM   11  C   UNK N   1      34.544  15.077   8.390  0.00  0.00     0.253 A 
HETATM   12  C   UNK N   1      33.280  16.234   6.622  0.00  0.00     0.027 A 
HETATM   13  N   UNK N   1      35.511  14.719   7.510  0.00  0.00    -0.356 N 
HETATM   14  O   UNK N   1      34.628  14.752   9.562  0.00  0.00    -0.268 OA
HETATM   15  C   UNK N   1      35.485  15.054   6.085  0.00  0.00     0.129 A 
HETATM   16  H   UNK N   1      36.276  14.202   7.849  0.00  0.00     0.162 HD
HETATM   17  C   UNK N   1      34.293  15.913   5.574  0.00  0.00     0.078 A 
HETATM   18  N   UNK N   1      32.129  16.914   6.439  0.00  0.00    -0.358 N 
HETATM   19  H   UNK N   1      31.794  17.310   5.602  0.00  0.00     0.166 HD
ENDBRANCH   4   8
BRANCH   5  20
HETATM   20  C   UNK N   1      27.431  18.914   5.874  0.00  0.00     0.029 A 
HETATM   21  C   UNK N   1      26.791  17.938   5.083  0.00  0.00     0.017 A 
HETATM   22  C   UNK N   1      26.089  18.291   3.933  0.00  0.00     0.001 A 
HETATM   23  C   UNK N   1      26.018  19.629   3.550  0.00  0.00     0.003 A 
HETATM   24  C   UNK N   1      26.648  20.610   4.320  0.00  0.00     0.043 A 
HETATM   25  C   UNK N   1      27.352  20.264   5.479  0.00  0.00     0.128 A 
HETATM   26  F   UNK N   1      27.962  21.240   6.194  0.00  0.00    -0.205 F 
ENDBRANCH   5  20
TORSDOF 2
ENDMDL
MODEL 8
REMARK VINA RESULT:      -7.3      3.703      8.065
REMARK  2 active torsions:
REMARK  status: ('A' for Active; 'I' for Inactive)
REMARK    1  A    between atoms: C_14  and  C_15 
REMARK    2  A    between atoms: C_16  and  C_17 
ROOT
HETATM    1  C   UNK N   1      32.872  16.358   8.513  0.00  0.00     0.044 A 
HETATM    2  C   UNK N   1      34.654  16.047   6.934  0.00  0.00     0.030 A 
HETATM    3  C   UNK N   1      33.882  16.735   5.983  0.00  0.00     0.089 A 
HETATM    4  C   UNK N   1      34.133  15.863   8.219  0.00  0.00    -0.006 A 
HETATM    5  C   UNK N   1      32.116  17.017   7.554  0.00  0.00     0.046 A 
HETATM    6  N   UNK N   1      32.635  17.192   6.304  0.00  0.00    -0.365 N 
ATOM      7  HN  UNK N   1      32.080  17.673   5.595  1.00  0.00     0.165 HD
ENDROOT
BRANCH   4   8
HETATM    8  C   UNK N   1      34.815  15.101   9.274  0.00  0.00     0.043 A 
HETATM    9  C   UNK N   1      36.129  14.665   9.156  0.00  0.00     0.049 A 
HETATM   10  C   UNK N   1      36.412  14.085  10.359  0.00  0.00     0.056 A 
HETATM   11  C   UNK N   1      37.648  13.474  10.810  0.00  0.00     0.253 A 
HETATM   12  C   UNK N   1      35.313  14.179  11.145  0.00  0.00     0.027 A 
HETATM   13  N   UNK N   1      37.719  12.995  12.076  0.00  0.00    -0.356 N 
HETATM   14  O   UNK N   1      38.612  13.398  10.068  0.00  0.00    -0.268 OA
HETATM   15  C   UNK N   1      36.617  13.055  13.037  0.00  0.00     0.129 A 
HETATM   16  H   UNK N   1      38.563  12.582  12.368  0.00  0.00     0.162 HD
HETATM   17  C   UNK N   1      35.273  13.667  12.546  0.00  0.00     0.078 A 
HETATM   18  N   UNK N   1      34.309  14.802  10.493  0.00  0.00    -0.358 N 
HETATM   19  H   UNK N   1      33.405  14.997  10.831  0.00  0.00     0.166 HD
ENDBRANCH   4   8
BRANCH   5  20
HETATM   20  C   UNK N   1      30.744  17.455   7.922  0.00  0.00     0.029 A 
HETATM   21  C   UNK N   1      30.583  18.306   9.034  0.00  0.00     0.017 A 
HETATM   22  C   UNK N   1      29.321  18.729   9.440  0.00  0.00     0.001 A 
HETATM   23  C   UNK N   1      28.191  18.303   8.743  0.00  0.00     0.003 A 
HETATM   24  C   UNK N   1      28.330  17.458   7.639  0.00  0.00     0.043 A 
HETATM   25  C   UNK N   1      29.597  17.032   7.222  0.00  0.00     0.128 A 
HETATM   26  F   UNK N   1      29.693  16.200   6.156  0.00  0.00    -0.205 F 
ENDBRANCH   5  20
TORSDOF 2
ENDMDL
MODEL 9
REMARK VINA RESULT:      -7.2      9.607     13.726
REMARK  2 active torsions:
REMARK  status: ('A' for Active; 'I' for Inactive)
REMARK    1  A    between atoms: C_14  and  C_15 
REMARK    2  A    between atoms: C_16  and  C_17 
ROOT
HETATM    1  C   UNK N   1      25.979  18.524   4.953  0.00  0.00     0.044 A 
HETATM    2  C   UNK N   1      25.518  20.038   3.147  0.00  0.00     0.030 A 
HETATM    3  C   UNK N   1      26.805  20.576   3.320  0.00  0.00     0.089 A 
HETATM    4  C   UNK N   1      25.108  18.992   3.981  0.00  0.00    -0.006 A 
HETATM    5  C   UNK N   1      27.237  19.083   5.122  0.00  0.00     0.046 A 
HETATM    6  N   UNK N   1      27.628  20.101   4.302  0.00  0.00    -0.365 N 
ATOM      7  HN  UNK N   1      28.552  20.516   4.425  1.00  0.00     0.165 HD
ENDROOT
BRANCH   4   8
HETATM    8  C   UNK N   1      23.765  18.399   3.942  0.00  0.00     0.043 A 
HETATM    9  C   UNK N   1      22.629  19.130   3.616  0.00  0.00     0.049 A 
HETATM   10  C   UNK N   1      21.617  18.213   3.607  0.00  0.00     0.056 A 
HETATM   11  C   UNK N   1      20.210  18.409   3.311  0.00  0.00     0.253 A 
HETATM   12  C   UNK N   1      22.139  17.001   3.912  0.00  0.00     0.027 A 
HETATM   13  N   UNK N   1      19.383  17.335   3.317  0.00  0.00    -0.356 N 
HETATM   14  O   UNK N   1      19.777  19.518   3.053  0.00  0.00    -0.268 OA
HETATM   15  C   UNK N   1      19.819  15.967   3.604  0.00  0.00     0.129 A 
HETATM   16  H   UNK N   1      18.431  17.483   3.116  0.00  0.00     0.162 HD
HETATM   17  C   UNK N   1      21.317  15.757   3.968  0.00  0.00     0.078 A 
HETATM   18  N   UNK N   1      23.468  17.091   4.127  0.00  0.00    -0.358 N 
HETATM   19  H   UNK N   1      24.087  16.364   4.366  0.00  0.00     0.166 HD
ENDBRANCH   4   8
BRANCH   5  20
HETATM   20  C   UNK N   1      28.085  18.577   6.232  0.00  0.00     0.029 A 
HETATM   21  C   UNK N   1      28.964  17.505   5.975  0.00  0.00     0.017 A 
HETATM   22  C   UNK N   1      29.765  16.973   6.982  0.00  0.00     0.001 A 
HETATM   23  C   UNK N   1      29.698  17.502   8.270  0.00  0.00     0.003 A 
HETATM   24  C   UNK N   1      28.832  18.563   8.545  0.00  0.00     0.043 A 
HETATM   25  C   UNK N   1      28.027  19.105   7.537  0.00  0.00     0.128 A 
HETATM   26  F   UNK N   1      27.188  20.125   7.842  0.00  0.00    -0.205 F 
ENDBRANCH   5  20
TORSDOF 2
ENDMDL
