REMARK  3 active torsions:
REMARK  status: ('A' for Active; 'I' for Inactive)
REMARK    1  A    between atoms: C_7  and  C_8 
REMARK       I    between atoms: C_8  and  N_10 
REMARK    2  A    between atoms: N_10  and  C_11 
REMARK    3  A    between atoms: C_15  and  C_17 
ROOT
HETATM    1  C   UNK N   1       1.018  -0.450   0.000  0.00  0.00     0.035 A 
HETATM    2  C   UNK N   1       2.307   0.106   0.000  0.00  0.00     0.029 A 
HETATM    3  C   UNK N   1       3.427  -0.743   0.000  0.00  0.00     0.003 A 
HETATM    4  C   UNK N   1       3.256  -2.138  -0.000  0.00  0.00     0.015 A 
HETATM    5  C   UNK N   1       1.963  -2.680   0.000  0.00  0.00     0.012 A 
HETATM    6  C   UNK N   1       0.867  -1.829   0.000  0.00  0.00     0.044 A 
ENDROOT
BRANCH   1   7
HETATM    7  N   UNK N   1      -0.171   0.315   0.000  0.00  0.00    -0.323 N 
HETATM    8  C   UNK N   1      -0.333   1.660   0.000  0.00  0.00     0.256 C 
HETATM    9  O   UNK N   1       0.627   2.416  -0.000  0.00  0.00    -0.267 OA
HETATM   10  H   UNK N   1      -1.006  -0.207   0.000  0.00  0.00     0.169 HD
BRANCH   8  11
HETATM   11  C   UNK N   1      -1.717   2.181   0.000  0.00  0.00     0.035 A 
HETATM   12  C   UNK N   1      -1.990   3.555  -0.000  0.00  0.00     0.059 A 
HETATM   13  C   UNK N   1      -3.318   4.003  -0.000  0.00  0.00     0.117 A 
HETATM   14  F   UNK N   1      -3.586   5.330  -0.000  0.00  0.00    -0.206 F 
HETATM   15  C   UNK N   1      -4.372   3.084   0.000  0.00  0.00     0.042 A 
HETATM   16  C   UNK N   1      -4.105   1.716   0.000  0.00  0.00     0.004 A 
HETATM   17  C   UNK N   1      -2.785   1.268   0.000  0.00  0.00     0.017 A 
ENDBRANCH   8  11
ENDBRANCH   1   7
BRANCH   5  18
HETATM   18  C   UNK N   1       1.713  -4.128  -0.000  0.00  0.00     0.141 A 
HETATM   19  N   UNK N   1       2.653  -5.085  -0.000  0.00  0.00    -0.270 N 
HETATM   20  N   UNK N   1       1.986  -6.231  -0.000  0.00  0.00    -0.007 NA
ATOM     21  HN  UNK N   1       3.666  -4.959  -0.000  1.00  0.00     0.185 HD
HETATM   22  N   UNK N   1       0.686  -5.986  -0.000  0.00  0.00    -0.007 NA
HETATM   23  N   UNK N   1       0.485  -4.678  -0.000  0.00  0.00    -0.270 N 
HETATM   24  H   UNK N   1      -0.379  -4.208   0.000  0.00  0.00     0.185 HD
ENDBRANCH   5  18
TORSDOF 3
