MODEL 1
REMARK VINA RESULT:      -7.4      0.000      0.000
REMARK  3 active torsions:
REMARK  status: ('A' for Active; 'I' for Inactive)
REMARK    1  A    between atoms: C_7  and  C_8 
REMARK       I    between atoms: C_8  and  N_10 
REMARK    2  A    between atoms: N_10  and  C_11 
REMARK    3  A    between atoms: C_15  and  C_17 
ROOT
HETATM    1  C   UNK N   1      30.911  16.669   6.503  0.00  0.00     0.035 A 
HETATM    2  C   UNK N   1      30.915  15.292   6.231  0.00  0.00     0.029 A 
HETATM    3  C   UNK N   1      31.951  14.489   6.738  0.00  0.00     0.003 A 
HETATM    4  C   UNK N   1      32.975  15.062   7.512  0.00  0.00     0.015 A 
HETATM    5  C   UNK N   1      32.959  16.439   7.776  0.00  0.00     0.012 A 
HETATM    6  C   UNK N   1      31.929  17.219   7.269  0.00  0.00     0.044 A 
ENDROOT
BRANCH   1   7
HETATM    7  N   UNK N   1      29.917  17.561   6.041  0.00  0.00    -0.323 N 
HETATM    8  C   UNK N   1      28.760  17.947   6.631  0.00  0.00     0.256 C 
HETATM    9  O   UNK N   1      28.432  17.519   7.728  0.00  0.00    -0.267 OA
HETATM   10  H   UNK N   1      30.090  17.962   5.158  0.00  0.00     0.169 HD
BRANCH   8  11
HETATM   11  C   UNK N   1      27.907  18.907   5.898  0.00  0.00     0.035 A 
HETATM   12  C   UNK N   1      27.404  20.064   6.508  0.00  0.00     0.059 A 
HETATM   13  C   UNK N   1      26.598  20.946   5.774  0.00  0.00     0.117 A 
HETATM   14  F   UNK N   1      26.110  22.065   6.359  0.00  0.00    -0.206 F 
HETATM   15  C   UNK N   1      26.295  20.676   4.436  0.00  0.00     0.042 A 
HETATM   16  C   UNK N   1      26.793  19.526   3.826  0.00  0.00     0.004 A 
HETATM   17  C   UNK N   1      27.595  18.647   4.553  0.00  0.00     0.017 A 
ENDBRANCH   8  11
ENDBRANCH   1   7
BRANCH   5  18
HETATM   18  C   UNK N   1      33.997  17.103   8.577  0.00  0.00     0.141 A 
HETATM   19  N   UNK N   1      34.441  16.695   9.775  0.00  0.00    -0.270 N 
HETATM   20  N   UNK N   1      35.365  17.579  10.125  0.00  0.00    -0.007 NA
ATOM     21  HN  UNK N   1      34.135  15.878  10.305  1.00  0.00     0.185 HD
HETATM   22  N   UNK N   1      35.483  18.495   9.178  0.00  0.00    -0.007 NA
HETATM   23  N   UNK N   1      34.639  18.222   8.196  0.00  0.00    -0.270 N 
HETATM   24  H   UNK N   1      34.508  18.730   7.364  0.00  0.00     0.185 HD
ENDBRANCH   5  18
TORSDOF 3
ENDMDL
MODEL 2
REMARK VINA RESULT:      -7.3      8.218     11.485
REMARK  3 active torsions:
REMARK  status: ('A' for Active; 'I' for Inactive)
REMARK    1  A    between atoms: C_7  and  C_8 
REMARK       I    between atoms: C_8  and  N_10 
REMARK    2  A    between atoms: N_10  and  C_11 
REMARK    3  A    between atoms: C_15  and  C_17 
ROOT
HETATM    1  C   UNK N   1      34.943  12.546  12.752  0.00  0.00     0.035 A 
HETATM    2  C   UNK N   1      34.872  11.475  11.847  0.00  0.00     0.029 A 
HETATM    3  C   UNK N   1      34.826  11.737  10.467  0.00  0.00     0.003 A 
HETATM    4  C   UNK N   1      34.850  13.062   9.998  0.00  0.00     0.015 A 
HETATM    5  C   UNK N   1      34.922  14.122  10.913  0.00  0.00     0.012 A 
HETATM    6  C   UNK N   1      34.967  13.848  12.272  0.00  0.00     0.044 A 
ENDROOT
BRANCH   1   7
HETATM    7  N   UNK N   1      34.994  12.390  14.156  0.00  0.00    -0.323 N 
HETATM    8  C   UNK N   1      36.066  12.356  14.983  0.00  0.00     0.256 C 
HETATM    9  O   UNK N   1      37.205  12.468  14.554  0.00  0.00    -0.267 OA
HETATM   10  H   UNK N   1      34.120  12.291  14.599  0.00  0.00     0.169 HD
BRANCH   8  11
HETATM   11  C   UNK N   1      35.808  12.178  16.429  0.00  0.00     0.035 A 
HETATM   12  C   UNK N   1      35.350  13.229  17.233  0.00  0.00     0.059 A 
HETATM   13  C   UNK N   1      35.119  13.014  18.599  0.00  0.00     0.117 A 
HETATM   14  F   UNK N   1      34.676  14.028  19.379  0.00  0.00    -0.206 F 
HETATM   15  C   UNK N   1      35.344  11.754  19.162  0.00  0.00     0.042 A 
HETATM   16  C   UNK N   1      35.800  10.705  18.365  0.00  0.00     0.004 A 
HETATM   17  C   UNK N   1      36.030  10.917  17.007  0.00  0.00     0.017 A 
ENDBRANCH   8  11
ENDBRANCH   1   7
BRANCH   5  18
HETATM   18  C   UNK N   1      34.951  15.530  10.491  0.00  0.00     0.141 A 
HETATM   19  N   UNK N   1      35.891  16.427  10.824  0.00  0.00    -0.270 N 
HETATM   20  N   UNK N   1      35.524  17.555  10.230  0.00  0.00    -0.007 NA
ATOM     21  HN  UNK N   1      36.714  16.275  11.408  1.00  0.00     0.185 HD
HETATM   22  N   UNK N   1      34.401  17.356   9.560  0.00  0.00    -0.007 NA
HETATM   23  N   UNK N   1      34.019  16.097   9.705  0.00  0.00    -0.270 N 
HETATM   24  H   UNK N   1      33.222  15.669   9.319  0.00  0.00     0.185 HD
ENDBRANCH   5  18
TORSDOF 3
ENDMDL
MODEL 3
REMARK VINA RESULT:      -7.0      2.260      3.035
REMARK  3 active torsions:
REMARK  status: ('A' for Active; 'I' for Inactive)
REMARK    1  A    between atoms: C_7  and  C_8 
REMARK       I    between atoms: C_8  and  N_10 
REMARK    2  A    between atoms: N_10  and  C_11 
REMARK    3  A    between atoms: C_15  and  C_17 
ROOT
HETATM    1  C   UNK N   1      28.727  17.976   7.261  0.00  0.00     0.035 A 
HETATM    2  C   UNK N   1      28.346  17.525   8.535  0.00  0.00     0.029 A 
HETATM    3  C   UNK N   1      29.334  17.122   9.450  0.00  0.00     0.003 A 
HETATM    4  C   UNK N   1      30.692  17.170   9.090  0.00  0.00     0.015 A 
HETATM    5  C   UNK N   1      31.058  17.622   7.815  0.00  0.00     0.012 A 
HETATM    6  C   UNK N   1      30.071  18.017   6.922  0.00  0.00     0.044 A 
ENDROOT
BRANCH   1   7
HETATM    7  N   UNK N   1      27.813  18.403   6.270  0.00  0.00    -0.323 N 
HETATM    8  C   UNK N   1      27.233  19.615   6.095  0.00  0.00     0.256 C 
HETATM    9  O   UNK N   1      27.465  20.547   6.850  0.00  0.00    -0.267 OA
HETATM   10  H   UNK N   1      27.561  17.719   5.609  0.00  0.00     0.169 HD
BRANCH   8  11
HETATM   11  C   UNK N   1      26.305  19.769   4.953  0.00  0.00     0.035 A 
HETATM   12  C   UNK N   1      25.034  19.180   4.949  0.00  0.00     0.059 A 
HETATM   13  C   UNK N   1      24.188  19.353   3.845  0.00  0.00     0.117 A 
HETATM   14  F   UNK N   1      22.959  18.786   3.837  0.00  0.00    -0.206 F 
HETATM   15  C   UNK N   1      24.608  20.111   2.747  0.00  0.00     0.042 A 
HETATM   16  C   UNK N   1      25.872  20.698   2.747  0.00  0.00     0.004 A 
HETATM   17  C   UNK N   1      26.715  20.528   3.844  0.00  0.00     0.017 A 
ENDBRANCH   8  11
ENDBRANCH   1   7
BRANCH   5  18
HETATM   18  C   UNK N   1      32.458  17.698   7.374  0.00  0.00     0.141 A 
HETATM   19  N   UNK N   1      33.465  18.259   8.060  0.00  0.00    -0.270 N 
HETATM   20  N   UNK N   1      34.538  18.102   7.297  0.00  0.00    -0.007 NA
ATOM     21  HN  UNK N   1      33.417  18.710   8.974  1.00  0.00     0.185 HD
HETATM   22  N   UNK N   1      34.201  17.468   6.185  0.00  0.00    -0.007 NA
HETATM   23  N   UNK N   1      32.905  17.203   6.206  0.00  0.00    -0.270 N 
HETATM   24  H   UNK N   1      32.380  16.741   5.514  0.00  0.00     0.185 HD
ENDBRANCH   5  18
TORSDOF 3
ENDMDL
MODEL 4
REMARK VINA RESULT:      -6.9     12.465     15.127
REMARK  3 active torsions:
REMARK  status: ('A' for Active; 'I' for Inactive)
REMARK    1  A    between atoms: C_7  and  C_8 
REMARK       I    between atoms: C_8  and  N_10 
REMARK    2  A    between atoms: N_10  and  C_11 
REMARK    3  A    between atoms: C_15  and  C_17 
ROOT
HETATM    1  C   UNK N   1      27.080  25.633  -4.870  0.00  0.00     0.035 A 
HETATM    2  C   UNK N   1      25.901  25.471  -5.615  0.00  0.00     0.029 A 
HETATM    3  C   UNK N   1      24.949  26.505  -5.636  0.00  0.00     0.003 A 
HETATM    4  C   UNK N   1      25.176  27.690  -4.916  0.00  0.00     0.015 A 
HETATM    5  C   UNK N   1      26.358  27.838  -4.176  0.00  0.00     0.012 A 
HETATM    6  C   UNK N   1      27.289  26.809  -4.165  0.00  0.00     0.044 A 
ENDROOT
BRANCH   1   7
HETATM    7  N   UNK N   1      28.098  24.656  -4.783  0.00  0.00    -0.323 N 
HETATM    8  C   UNK N   1      28.392  23.800  -3.775  0.00  0.00     0.256 C 
HETATM    9  O   UNK N   1      27.740  23.789  -2.741  0.00  0.00    -0.267 OA
HETATM   10  H   UNK N   1      28.681  24.586  -5.574  0.00  0.00     0.169 HD
BRANCH   8  11
HETATM   11  C   UNK N   1      29.531  22.878  -3.971  0.00  0.00     0.035 A 
HETATM   12  C   UNK N   1      30.459  22.622  -2.953  0.00  0.00     0.059 A 
HETATM   13  C   UNK N   1      31.523  21.740  -3.185  0.00  0.00     0.117 A 
HETATM   14  F   UNK N   1      32.422  21.490  -2.204  0.00  0.00    -0.206 F 
HETATM   15  C   UNK N   1      31.663  21.115  -4.428  0.00  0.00     0.042 A 
HETATM   16  C   UNK N   1      30.742  21.367  -5.443  0.00  0.00     0.004 A 
HETATM   17  C   UNK N   1      29.683  22.244  -5.215  0.00  0.00     0.017 A 
ENDBRANCH   8  11
ENDBRANCH   1   7
BRANCH   5  18
HETATM   18  C   UNK N   1      26.659  29.050  -3.401  0.00  0.00     0.141 A 
HETATM   19  N   UNK N   1      26.235  30.289  -3.691  0.00  0.00    -0.270 N 
HETATM   20  N   UNK N   1      26.738  31.062  -2.738  0.00  0.00    -0.007 NA
ATOM     21  HN  UNK N   1      25.651  30.577  -4.477  1.00  0.00     0.185 HD
HETATM   22  N   UNK N   1      27.443  30.325  -1.896  0.00  0.00    -0.007 NA
HETATM   23  N   UNK N   1      27.411  29.061  -2.286  0.00  0.00    -0.270 N 
HETATM   24  H   UNK N   1      27.846  28.292  -1.852  0.00  0.00     0.185 HD
ENDBRANCH   5  18
TORSDOF 3
ENDMDL
MODEL 5
REMARK VINA RESULT:      -6.9      1.743      1.908
REMARK  3 active torsions:
REMARK  status: ('A' for Active; 'I' for Inactive)
REMARK    1  A    between atoms: C_7  and  C_8 
REMARK       I    between atoms: C_8  and  N_10 
REMARK    2  A    between atoms: N_10  and  C_11 
REMARK    3  A    between atoms: C_15  and  C_17 
ROOT
HETATM    1  C   UNK N   1      31.641  17.332   4.672  0.00  0.00     0.035 A 
HETATM    2  C   UNK N   1      32.187  16.537   3.653  0.00  0.00     0.029 A 
HETATM    3  C   UNK N   1      33.421  15.896   3.860  0.00  0.00     0.003 A 
HETATM    4  C   UNK N   1      34.102  16.053   5.079  0.00  0.00     0.015 A 
HETATM    5  C   UNK N   1      33.545  16.850   6.089  0.00  0.00     0.012 A 
HETATM    6  C   UNK N   1      32.326  17.476   5.870  0.00  0.00     0.044 A 
ENDROOT
BRANCH   1   7
HETATM    7  N   UNK N   1      30.409  18.017   4.564  0.00  0.00    -0.323 N 
HETATM    8  C   UNK N   1      29.166  17.622   4.929  0.00  0.00     0.256 C 
HETATM    9  O   UNK N   1      28.970  16.527   5.436  0.00  0.00    -0.267 OA
HETATM   10  H   UNK N   1      30.462  18.916   4.164  0.00  0.00     0.169 HD
BRANCH   8  11
HETATM   11  C   UNK N   1      28.052  18.565   4.690  0.00  0.00     0.035 A 
HETATM   12  C   UNK N   1      27.973  19.798   5.349  0.00  0.00     0.059 A 
HETATM   13  C   UNK N   1      26.898  20.660   5.091  0.00  0.00     0.117 A 
HETATM   14  F   UNK N   1      26.819  21.854   5.725  0.00  0.00    -0.206 F 
HETATM   15  C   UNK N   1      25.904  20.294   4.179  0.00  0.00     0.042 A 
HETATM   16  C   UNK N   1      25.978  19.067   3.521  0.00  0.00     0.004 A 
HETATM   17  C   UNK N   1      27.046  18.208   3.776  0.00  0.00     0.017 A 
ENDBRANCH   8  11
ENDBRANCH   1   7
BRANCH   5  18
HETATM   18  C   UNK N   1      34.204  17.056   7.386  0.00  0.00     0.141 A 
HETATM   19  N   UNK N   1      34.411  18.241   7.980  0.00  0.00    -0.270 N 
HETATM   20  N   UNK N   1      35.029  17.959   9.119  0.00  0.00    -0.007 NA
ATOM     21  HN  UNK N   1      34.149  19.164   7.631  1.00  0.00     0.185 HD
HETATM   22  N   UNK N   1      35.194  16.650   9.220  0.00  0.00    -0.007 NA
HETATM   23  N   UNK N   1      34.688  16.059   8.149  0.00  0.00    -0.270 N 
HETATM   24  H   UNK N   1      34.669  15.095   7.954  0.00  0.00     0.185 HD
ENDBRANCH   5  18
TORSDOF 3
ENDMDL
MODEL 6
REMARK VINA RESULT:      -6.8      7.047     10.965
REMARK  3 active torsions:
REMARK  status: ('A' for Active; 'I' for Inactive)
REMARK    1  A    between atoms: C_7  and  C_8 
REMARK       I    between atoms: C_8  and  N_10 
REMARK    2  A    between atoms: N_10  and  C_11 
REMARK    3  A    between atoms: C_15  and  C_17 
ROOT
HETATM    1  C   UNK N   1      22.035  19.104   3.450  0.00  0.00     0.035 A 
HETATM    2  C   UNK N   1      21.262  20.164   2.950  0.00  0.00     0.029 A 
HETATM    3  C   UNK N   1      19.928  19.931   2.576  0.00  0.00     0.003 A 
HETATM    4  C   UNK N   1      19.373  18.646   2.701  0.00  0.00     0.015 A 
HETATM    5  C   UNK N   1      20.156  17.596   3.201  0.00  0.00     0.012 A 
HETATM    6  C   UNK N   1      21.472  17.842   3.567  0.00  0.00     0.044 A 
ENDROOT
BRANCH   1   7
HETATM    7  N   UNK N   1      23.384  19.233   3.854  0.00  0.00    -0.323 N 
HETATM    8  C   UNK N   1      24.366  20.016   3.347  0.00  0.00     0.256 C 
HETATM    9  O   UNK N   1      24.162  20.758   2.398  0.00  0.00    -0.267 OA
HETATM   10  H   UNK N   1      23.649  18.672   4.618  0.00  0.00     0.169 HD
BRANCH   8  11
HETATM   11  C   UNK N   1      25.698  19.938   3.985  0.00  0.00     0.035 A 
HETATM   12  C   UNK N   1      26.145  20.915   4.884  0.00  0.00     0.059 A 
HETATM   13  C   UNK N   1      27.416  20.800   5.465  0.00  0.00     0.117 A 
HETATM   14  F   UNK N   1      27.851  21.742   6.335  0.00  0.00    -0.206 F 
HETATM   15  C   UNK N   1      28.240  19.715   5.149  0.00  0.00     0.042 A 
HETATM   16  C   UNK N   1      27.799  18.742   4.255  0.00  0.00     0.004 A 
HETATM   17  C   UNK N   1      26.536  18.853   3.676  0.00  0.00     0.017 A 
ENDBRANCH   8  11
ENDBRANCH   1   7
BRANCH   5  18
HETATM   18  C   UNK N   1      19.640  16.229   3.358  0.00  0.00     0.141 A 
HETATM   19  N   UNK N   1      19.117  15.713   4.480  0.00  0.00    -0.270 N 
HETATM   20  N   UNK N   1      18.785  14.467   4.172  0.00  0.00    -0.007 NA
ATOM     21  HN  UNK N   1      19.000  16.180   5.381  1.00  0.00     0.185 HD
HETATM   22  N   UNK N   1      19.092  14.228   2.907  0.00  0.00    -0.007 NA
HETATM   23  N   UNK N   1      19.628  15.313   2.372  0.00  0.00    -0.270 N 
HETATM   24  H   UNK N   1      19.951  15.426   1.450  0.00  0.00     0.185 HD
ENDBRANCH   5  18
TORSDOF 3
ENDMDL
MODEL 7
REMARK VINA RESULT:      -6.8     10.850     12.254
REMARK  3 active torsions:
REMARK  status: ('A' for Active; 'I' for Inactive)
REMARK    1  A    between atoms: C_7  and  C_8 
REMARK       I    between atoms: C_8  and  N_10 
REMARK    2  A    between atoms: N_10  and  C_11 
REMARK    3  A    between atoms: C_15  and  C_17 
ROOT
HETATM    1  C   UNK N   1      20.559  15.635   3.603  0.00  0.00     0.035 A 
HETATM    2  C   UNK N   1      20.130  14.889   2.494  0.00  0.00     0.029 A 
HETATM    3  C   UNK N   1      19.902  15.539   1.269  0.00  0.00     0.003 A 
HETATM    4  C   UNK N   1      20.103  16.926   1.157  0.00  0.00     0.015 A 
HETATM    5  C   UNK N   1      20.531  17.659   2.273  0.00  0.00     0.012 A 
HETATM    6  C   UNK N   1      20.752  17.003   3.475  0.00  0.00     0.044 A 
ENDROOT
BRANCH   1   7
HETATM    7  N   UNK N   1      20.816  15.078   4.877  0.00  0.00    -0.323 N 
HETATM    8  C   UNK N   1      20.010  14.995   5.962  0.00  0.00     0.256 C 
HETATM    9  O   UNK N   1      18.871  15.437   5.943  0.00  0.00    -0.267 OA
HETATM   10  H   UNK N   1      21.715  14.692   4.993  0.00  0.00     0.169 HD
BRANCH   8  11
HETATM   11  C   UNK N   1      20.559  14.348   7.173  0.00  0.00     0.035 A 
HETATM   12  C   UNK N   1      21.283  13.150   7.108  0.00  0.00     0.059 A 
HETATM   13  C   UNK N   1      21.785  12.573   8.283  0.00  0.00     0.117 A 
HETATM   14  F   UNK N   1      22.485  11.416   8.224  0.00  0.00    -0.206 F 
HETATM   15  C   UNK N   1      21.567  13.189   9.520  0.00  0.00     0.042 A 
HETATM   16  C   UNK N   1      20.848  14.380   9.589  0.00  0.00     0.004 A 
HETATM   17  C   UNK N   1      20.347  14.956   8.422  0.00  0.00     0.017 A 
ENDBRANCH   8  11
ENDBRANCH   1   7
BRANCH   5  18
HETATM   18  C   UNK N   1      20.760  19.109   2.225  0.00  0.00     0.141 A 
HETATM   19  N   UNK N   1      20.531  19.904   1.169  0.00  0.00    -0.270 N 
HETATM   20  N   UNK N   1      20.874  21.122   1.566  0.00  0.00    -0.007 NA
ATOM     21  HN  UNK N   1      20.169  19.631   0.254  1.00  0.00     0.185 HD
HETATM   22  N   UNK N   1      21.298  21.076   2.818  0.00  0.00    -0.007 NA
HETATM   23  N   UNK N   1      21.238  19.828   3.257  0.00  0.00    -0.270 N 
HETATM   24  H   UNK N   1      21.490  19.498   4.149  0.00  0.00     0.185 HD
ENDBRANCH   5  18
TORSDOF 3
ENDMDL
MODEL 8
REMARK VINA RESULT:      -6.8      9.947     12.193
REMARK  3 active torsions:
REMARK  status: ('A' for Active; 'I' for Inactive)
REMARK    1  A    between atoms: C_7  and  C_8 
REMARK       I    between atoms: C_8  and  N_10 
REMARK    2  A    between atoms: N_10  and  C_11 
REMARK    3  A    between atoms: C_15  and  C_17 
ROOT
HETATM    1  C   UNK N   1      21.497  16.236   6.299  0.00  0.00     0.035 A 
HETATM    2  C   UNK N   1      21.553  17.631   6.442  0.00  0.00     0.029 A 
HETATM    3  C   UNK N   1      21.346  18.450   5.319  0.00  0.00     0.003 A 
HETATM    4  C   UNK N   1      21.084  17.875   4.063  0.00  0.00     0.015 A 
HETATM    5  C   UNK N   1      21.030  16.480   3.935  0.00  0.00     0.012 A 
HETATM    6  C   UNK N   1      21.237  15.685   5.053  0.00  0.00     0.044 A 
ENDROOT
BRANCH   1   7
HETATM    7  N   UNK N   1      21.691  15.326   7.364  0.00  0.00    -0.323 N 
HETATM    8  C   UNK N   1      20.798  14.843   8.261  0.00  0.00     0.256 C 
HETATM    9  O   UNK N   1      19.624  15.180   8.235  0.00  0.00    -0.267 OA
HETATM   10  H   UNK N   1      22.612  14.993   7.469  0.00  0.00     0.169 HD
BRANCH   8  11
HETATM   11  C   UNK N   1      21.298  13.890   9.276  0.00  0.00     0.035 A 
HETATM   12  C   UNK N   1      20.446  13.300  10.219  0.00  0.00     0.059 A 
HETATM   13  C   UNK N   1      20.964  12.402  11.162  0.00  0.00     0.117 A 
HETATM   14  F   UNK N   1      20.144  11.830  12.075  0.00  0.00    -0.206 F 
HETATM   15  C   UNK N   1      22.328  12.094  11.167  0.00  0.00     0.042 A 
HETATM   16  C   UNK N   1      23.179  12.679  10.231  0.00  0.00     0.004 A 
HETATM   17  C   UNK N   1      22.666  13.572   9.292  0.00  0.00     0.017 A 
ENDBRANCH   8  11
ENDBRANCH   1   7
BRANCH   5  18
HETATM   18  C   UNK N   1      20.761  15.814   2.654  0.00  0.00     0.141 A 
HETATM   19  N   UNK N   1      19.549  15.491   2.178  0.00  0.00    -0.270 N 
HETATM   20  N   UNK N   1      19.775  14.914   1.006  0.00  0.00    -0.007 NA
ATOM     21  HN  UNK N   1      18.645  15.653   2.624  1.00  0.00     0.185 HD
HETATM   22  N   UNK N   1      21.076  14.885   0.771  0.00  0.00    -0.007 NA
HETATM   23  N   UNK N   1      21.719  15.442   1.785  0.00  0.00    -0.270 N 
HETATM   24  H   UNK N   1      22.691  15.558   1.883  0.00  0.00     0.185 HD
ENDBRANCH   5  18
TORSDOF 3
ENDMDL
MODEL 9
REMARK VINA RESULT:      -6.7     11.678     13.158
REMARK  3 active torsions:
REMARK  status: ('A' for Active; 'I' for Inactive)
REMARK    1  A    between atoms: C_7  and  C_8 
REMARK       I    between atoms: C_8  and  N_10 
REMARK    2  A    between atoms: N_10  and  C_11 
REMARK    3  A    between atoms: C_15  and  C_17 
ROOT
HETATM    1  C   UNK N   1      28.817  22.740  -5.830  0.00  0.00     0.035 A 
HETATM    2  C   UNK N   1      28.650  21.834  -6.889  0.00  0.00     0.029 A 
HETATM    3  C   UNK N   1      29.513  20.730  -6.998  0.00  0.00     0.003 A 
HETATM    4  C   UNK N   1      30.535  20.536  -6.053  0.00  0.00     0.015 A 
HETATM    5  C   UNK N   1      30.691  21.449  -5.000  0.00  0.00     0.012 A 
HETATM    6  C   UNK N   1      29.831  22.534  -4.906  0.00  0.00     0.044 A 
ENDROOT
BRANCH   1   7
HETATM    7  N   UNK N   1      28.005  23.880  -5.632  0.00  0.00    -0.323 N 
HETATM    8  C   UNK N   1      27.391  24.318  -4.506  0.00  0.00     0.256 C 
HETATM    9  O   UNK N   1      27.491  23.711  -3.450  0.00  0.00    -0.267 OA
HETATM   10  H   UNK N   1      27.863  24.438  -6.430  0.00  0.00     0.169 HD
BRANCH   8  11
HETATM   11  C   UNK N   1      26.595  25.560  -4.602  0.00  0.00     0.035 A 
HETATM   12  C   UNK N   1      26.777  26.626  -3.712  0.00  0.00     0.059 A 
HETATM   13  C   UNK N   1      25.999  27.785  -3.841  0.00  0.00     0.117 A 
HETATM   14  F   UNK N   1      26.173  28.817  -2.983  0.00  0.00    -0.206 F 
HETATM   15  C   UNK N   1      25.041  27.881  -4.855  0.00  0.00     0.042 A 
HETATM   16  C   UNK N   1      24.856  26.823  -5.743  0.00  0.00     0.004 A 
HETATM   17  C   UNK N   1      25.629  25.669  -5.616  0.00  0.00     0.017 A 
ENDBRANCH   8  11
ENDBRANCH   1   7
BRANCH   5  18
HETATM   18  C   UNK N   1      31.737  21.306  -3.979  0.00  0.00     0.141 A 
HETATM   19  N   UNK N   1      31.661  21.743  -2.713  0.00  0.00    -0.270 N 
HETATM   20  N   UNK N   1      32.815  21.405  -2.155  0.00  0.00    -0.007 NA
ATOM     21  HN  UNK N   1      30.881  22.233  -2.272  1.00  0.00     0.185 HD
HETATM   22  N   UNK N   1      33.571  20.783  -3.045  0.00  0.00    -0.007 NA
HETATM   23  N   UNK N   1      32.922  20.707  -4.196  0.00  0.00    -0.270 N 
HETATM   24  H   UNK N   1      33.239  20.298  -5.033  0.00  0.00     0.185 HD
ENDBRANCH   5  18
TORSDOF 3
ENDMDL
