MODEL 1
REMARK VINA RESULT:      -6.0      0.000      0.000
REMARK  2 active torsions:
REMARK  status: ('A' for Active; 'I' for Inactive)
REMARK    1  A    between atoms: C_1  and  C_9 
REMARK    2  A    between atoms: C_13  and  O_15 
ROOT
HETATM    1  C   UNK N   1      32.024  16.785   7.962  0.00  0.00     0.095 A 
HETATM    2  C   UNK N   1      32.269  15.832   8.857  0.00  0.00     0.101 A 
HETATM    3  C   UNK N   1      33.662  15.594   8.924  0.00  0.00     0.256 A 
HETATM    4  N   UNK N   1      34.379  16.335   8.076  0.00  0.00    -0.247 N 
HETATM    5  S   UNK N   1      33.492  17.472   7.042  0.00  0.00     0.266 S 
HETATM    6  O   UNK N   1      33.008  18.469   8.108  0.00  0.00    -0.200 OA
HETATM    7  O   UNK N   1      34.714  18.340   7.373  0.00  0.00    -0.200 OA
HETATM    8  O   UNK N   1      34.175  14.796   9.687  0.00  0.00    -0.268 OA
HETATM    9  H   UNK N   1      35.359  16.254   8.026  0.00  0.00     0.182 HD
ENDROOT
BRANCH   1  10
HETATM   10  C   UNK N   1      30.623  17.189   7.648  0.00  0.00    -0.010 A 
HETATM   11  C   UNK N   1      30.187  17.261   6.316  0.00  0.00     0.013 A 
HETATM   12  C   UNK N   1      28.879  17.654   6.020  0.00  0.00     0.004 A 
HETATM   13  C   UNK N   1      27.989  17.960   7.053  0.00  0.00     0.036 A 
HETATM   14  C   UNK N   1      28.407  17.878   8.383  0.00  0.00     0.066 A 
HETATM   15  C   UNK N   1      29.721  17.505   8.680  0.00  0.00     0.049 A 
BRANCH  14  16
HETATM   16  O   UNK N   1      27.547  18.153   9.376  0.00  0.00    -0.361 OA
HETATM   17  H   UNK N   1      27.655  18.928   9.893  0.00  0.00     0.217 HD
ENDBRANCH  14  16
ENDBRANCH   1  10
TORSDOF 2
ENDMDL
MODEL 2
REMARK VINA RESULT:      -6.0     10.198     11.483
REMARK  2 active torsions:
REMARK  status: ('A' for Active; 'I' for Inactive)
REMARK    1  A    between atoms: C_1  and  C_9 
REMARK    2  A    between atoms: C_13  and  O_15 
ROOT
HETATM    1  C   UNK N   1      21.525  13.915   8.839  0.00  0.00     0.095 A 
HETATM    2  C   UNK N   1      20.655  14.789   9.336  0.00  0.00     0.101 A 
HETATM    3  C   UNK N   1      19.885  15.340   8.284  0.00  0.00     0.256 A 
HETATM    4  N   UNK N   1      20.224  14.891   7.073  0.00  0.00    -0.247 N 
HETATM    5  S   UNK N   1      21.540  13.703   6.987  0.00  0.00     0.266 S 
HETATM    6  O   UNK N   1      20.852  12.505   7.662  0.00  0.00    -0.200 OA
HETATM    7  O   UNK N   1      20.606  13.116   5.920  0.00  0.00    -0.200 OA
HETATM    8  O   UNK N   1      18.987  16.143   8.453  0.00  0.00    -0.268 OA
HETATM    9  H   UNK N   1      19.764  15.206   6.262  0.00  0.00     0.182 HD
ENDROOT
BRANCH   1  10
HETATM   10  C   UNK N   1      22.506  13.230   9.730  0.00  0.00    -0.010 A 
HETATM   11  C   UNK N   1      23.866  13.190   9.388  0.00  0.00     0.013 A 
HETATM   12  C   UNK N   1      24.785  12.536  10.214  0.00  0.00     0.004 A 
HETATM   13  C   UNK N   1      24.355  11.934  11.399  0.00  0.00     0.036 A 
HETATM   14  C   UNK N   1      23.006  11.981  11.758  0.00  0.00     0.066 A 
HETATM   15  C   UNK N   1      22.084  12.617  10.922  0.00  0.00     0.049 A 
BRANCH  14  16
HETATM   16  O   UNK N   1      22.595  11.420  12.906  0.00  0.00    -0.361 OA
HETATM   17  H   UNK N   1      21.685  11.244  13.046  0.00  0.00     0.217 HD
ENDBRANCH  14  16
ENDBRANCH   1  10
TORSDOF 2
ENDMDL
MODEL 3
REMARK VINA RESULT:      -5.9      8.710     11.255
REMARK  2 active torsions:
REMARK  status: ('A' for Active; 'I' for Inactive)
REMARK    1  A    between atoms: C_1  and  C_9 
REMARK    2  A    between atoms: C_13  and  O_15 
ROOT
HETATM    1  C   UNK N   1      35.584  12.554  15.682  0.00  0.00     0.095 A 
HETATM    2  C   UNK N   1      36.023  13.759  15.330  0.00  0.00     0.101 A 
HETATM    3  C   UNK N   1      36.031  13.865  13.919  0.00  0.00     0.256 A 
HETATM    4  N   UNK N   1      35.639  12.754  13.291  0.00  0.00    -0.247 N 
HETATM    5  S   UNK N   1      35.176  11.371  14.302  0.00  0.00     0.266 S 
HETATM    6  O   UNK N   1      33.889  11.930  14.932  0.00  0.00    -0.200 OA
HETATM    7  O   UNK N   1      34.103  11.251  13.211  0.00  0.00    -0.200 OA
HETATM    8  O   UNK N   1      36.354  14.874  13.319  0.00  0.00    -0.268 OA
HETATM    9  H   UNK N   1      35.608  12.704  12.308  0.00  0.00     0.182 HD
ENDROOT
BRANCH   1  10
HETATM   10  C   UNK N   1      35.534  12.155  17.119  0.00  0.00    -0.010 A 
HETATM   11  C   UNK N   1      35.892  10.855  17.506  0.00  0.00     0.013 A 
HETATM   12  C   UNK N   1      35.831  10.474  18.850  0.00  0.00     0.004 A 
HETATM   13  C   UNK N   1      35.432  11.396  19.821  0.00  0.00     0.036 A 
HETATM   14  C   UNK N   1      35.089  12.699  19.449  0.00  0.00     0.066 A 
HETATM   15  C   UNK N   1      35.129  13.073  18.104  0.00  0.00     0.049 A 
BRANCH  14  16
HETATM   16  O   UNK N   1      34.724  13.590  20.383  0.00  0.00    -0.361 OA
HETATM   17  H   UNK N   1      33.968  13.434  20.916  0.00  0.00     0.217 HD
ENDBRANCH  14  16
ENDBRANCH   1  10
TORSDOF 2
ENDMDL
MODEL 4
REMARK VINA RESULT:      -5.9      8.668     10.629
REMARK  2 active torsions:
REMARK  status: ('A' for Active; 'I' for Inactive)
REMARK    1  A    between atoms: C_1  and  C_9 
REMARK    2  A    between atoms: C_13  and  O_15 
ROOT
HETATM    1  C   UNK N   1      34.854  11.912  15.042  0.00  0.00     0.095 A 
HETATM    2  C   UNK N   1      34.161  10.869  14.596  0.00  0.00     0.101 A 
HETATM    3  C   UNK N   1      34.090  10.917  13.184  0.00  0.00     0.256 A 
HETATM    4  N   UNK N   1      34.688  11.984  12.648  0.00  0.00    -0.247 N 
HETATM    5  S   UNK N   1      35.462  13.126  13.765  0.00  0.00     0.266 S 
HETATM    6  O   UNK N   1      36.620  12.249  14.271  0.00  0.00    -0.200 OA
HETATM    7  O   UNK N   1      36.504  13.137  12.638  0.00  0.00    -0.200 OA
HETATM    8  O   UNK N   1      33.544  10.067  12.505  0.00  0.00    -0.268 OA
HETATM    9  H   UNK N   1      34.700  12.131  11.675  0.00  0.00     0.182 HD
ENDROOT
BRANCH   1  10
HETATM   10  C   UNK N   1      35.029  12.137  16.507  0.00  0.00    -0.010 A 
HETATM   11  C   UNK N   1      35.235  11.051  17.371  0.00  0.00     0.013 A 
HETATM   12  C   UNK N   1      35.384  11.258  18.745  0.00  0.00     0.004 A 
HETATM   13  C   UNK N   1      35.350  12.554  19.265  0.00  0.00     0.036 A 
HETATM   14  C   UNK N   1      35.161  13.645  18.412  0.00  0.00     0.066 A 
HETATM   15  C   UNK N   1      34.991  13.437  17.041  0.00  0.00     0.049 A 
BRANCH  14  16
HETATM   16  O   UNK N   1      35.147  14.892  18.909  0.00  0.00    -0.361 OA
HETATM   17  H   UNK N   1      34.461  15.161  19.488  0.00  0.00     0.217 HD
ENDBRANCH  14  16
ENDBRANCH   1  10
TORSDOF 2
ENDMDL
MODEL 5
REMARK VINA RESULT:      -5.8      3.232      4.899
REMARK  2 active torsions:
REMARK  status: ('A' for Active; 'I' for Inactive)
REMARK    1  A    between atoms: C_1  and  C_9 
REMARK    2  A    between atoms: C_13  and  O_15 
ROOT
HETATM    1  C   UNK N   1      32.985  17.079   6.773  0.00  0.00     0.095 A 
HETATM    2  C   UNK N   1      31.770  17.463   7.149  0.00  0.00     0.101 A 
HETATM    3  C   UNK N   1      31.805  17.892   8.497  0.00  0.00     0.256 A 
HETATM    4  N   UNK N   1      33.007  17.782   9.069  0.00  0.00    -0.247 N 
HETATM    5  S   UNK N   1      34.326  17.146   8.067  0.00  0.00     0.266 S 
HETATM    6  O   UNK N   1      34.479  18.307   7.070  0.00  0.00    -0.200 OA
HETATM    7  O   UNK N   1      35.095  18.235   8.826  0.00  0.00    -0.200 OA
HETATM    8  O   UNK N   1      30.838  18.331   9.092  0.00  0.00    -0.268 OA
HETATM    9  H   UNK N   1      33.154  18.044  10.006  0.00  0.00     0.182 HD
ENDROOT
BRANCH   1  10
HETATM   10  C   UNK N   1      33.217  16.521   5.409  0.00  0.00    -0.010 A 
HETATM   11  C   UNK N   1      32.704  17.175   4.279  0.00  0.00     0.013 A 
HETATM   12  C   UNK N   1      32.907  16.647   3.001  0.00  0.00     0.004 A 
HETATM   13  C   UNK N   1      33.643  15.470   2.840  0.00  0.00     0.036 A 
HETATM   14  C   UNK N   1      34.172  14.818   3.957  0.00  0.00     0.066 A 
HETATM   15  C   UNK N   1      33.952  15.335   5.236  0.00  0.00     0.049 A 
BRANCH  14  16
HETATM   16  O   UNK N   1      34.895  13.698   3.801  0.00  0.00    -0.361 OA
HETATM   17  H   UNK N   1      34.878  13.029   4.458  0.00  0.00     0.217 HD
ENDBRANCH  14  16
ENDBRANCH   1  10
TORSDOF 2
ENDMDL
MODEL 6
REMARK VINA RESULT:      -5.7      2.639      3.431
REMARK  2 active torsions:
REMARK  status: ('A' for Active; 'I' for Inactive)
REMARK    1  A    between atoms: C_1  and  C_9 
REMARK    2  A    between atoms: C_13  and  O_15 
ROOT
HETATM    1  C   UNK N   1      33.392  16.699   7.953  0.00  0.00     0.095 A 
HETATM    2  C   UNK N   1      34.353  17.486   8.427  0.00  0.00     0.101 A 
HETATM    3  C   UNK N   1      34.771  17.013   9.693  0.00  0.00     0.256 A 
HETATM    4  N   UNK N   1      34.102  15.938  10.117  0.00  0.00    -0.247 N 
HETATM    5  S   UNK N   1      32.841  15.294   9.047  0.00  0.00     0.266 S 
HETATM    6  O   UNK N   1      33.719  14.770   7.897  0.00  0.00    -0.200 OA
HETATM    7  O   UNK N   1      33.434  13.973   9.556  0.00  0.00    -0.200 OA
HETATM    8  O   UNK N   1      35.665  17.523  10.344  0.00  0.00    -0.268 OA
HETATM    9  H   UNK N   1      34.299  15.521  10.986  0.00  0.00     0.182 HD
ENDROOT
BRANCH   1  10
HETATM   10  C   UNK N   1      32.728  17.009   6.654  0.00  0.00    -0.010 A 
HETATM   11  C   UNK N   1      33.496  17.328   5.524  0.00  0.00     0.013 A 
HETATM   12  C   UNK N   1      32.874  17.634   4.309  0.00  0.00     0.004 A 
HETATM   13  C   UNK N   1      31.481  17.604   4.209  0.00  0.00     0.036 A 
HETATM   14  C   UNK N   1      30.707  17.273   5.324  0.00  0.00     0.066 A 
HETATM   15  C   UNK N   1      31.326  16.988   6.543  0.00  0.00     0.049 A 
BRANCH  14  16
HETATM   16  O   UNK N   1      29.369  17.226   5.223  0.00  0.00    -0.361 OA
HETATM   17  H   UNK N   1      28.838  17.823   5.712  0.00  0.00     0.217 HD
ENDBRANCH  14  16
ENDBRANCH   1  10
TORSDOF 2
ENDMDL
MODEL 7
REMARK VINA RESULT:      -5.6     12.804     14.485
REMARK  2 active torsions:
REMARK  status: ('A' for Active; 'I' for Inactive)
REMARK    1  A    between atoms: C_1  and  C_9 
REMARK    2  A    between atoms: C_13  and  O_15 
ROOT
HETATM    1  C   UNK N   1      29.245  24.266  -4.013  0.00  0.00     0.095 A 
HETATM    2  C   UNK N   1      29.847  25.446  -3.901  0.00  0.00     0.101 A 
HETATM    3  C   UNK N   1      28.883  26.478  -3.974  0.00  0.00     0.256 A 
HETATM    4  N   UNK N   1      27.636  26.040  -4.167  0.00  0.00    -0.247 N 
HETATM    5  S   UNK N   1      27.401  24.285  -4.283  0.00  0.00     0.266 S 
HETATM    6  O   UNK N   1      27.731  23.882  -2.836  0.00  0.00    -0.200 OA
HETATM    7  O   UNK N   1      26.154  24.648  -3.466  0.00  0.00    -0.200 OA
HETATM    8  O   UNK N   1      29.149  27.661  -3.865  0.00  0.00    -0.268 OA
HETATM    9  H   UNK N   1      26.879  26.665  -4.240  0.00  0.00     0.182 HD
ENDROOT
BRANCH   1  10
HETATM   10  C   UNK N   1      30.043  23.005  -4.029  0.00  0.00    -0.010 A 
HETATM   11  C   UNK N   1      29.900  22.089  -5.083  0.00  0.00     0.013 A 
HETATM   12  C   UNK N   1      30.635  20.900  -5.092  0.00  0.00     0.004 A 
HETATM   13  C   UNK N   1      31.535  20.626  -4.059  0.00  0.00     0.036 A 
HETATM   14  C   UNK N   1      31.697  21.538  -3.012  0.00  0.00     0.066 A 
HETATM   15  C   UNK N   1      30.947  22.716  -2.992  0.00  0.00     0.049 A 
BRANCH  14  16
HETATM   16  O   UNK N   1      32.574  21.284  -2.030  0.00  0.00    -0.361 OA
HETATM   17  H   UNK N   1      32.460  21.669  -1.183  0.00  0.00     0.217 HD
ENDBRANCH  14  16
ENDBRANCH   1  10
TORSDOF 2
ENDMDL
MODEL 8
REMARK VINA RESULT:      -5.5     17.601     18.574
REMARK  2 active torsions:
REMARK  status: ('A' for Active; 'I' for Inactive)
REMARK    1  A    between atoms: C_1  and  C_9 
REMARK    2  A    between atoms: C_13  and  O_15 
ROOT
HETATM    1  C   UNK N   1      26.146  25.984  -7.221  0.00  0.00     0.095 A 
HETATM    2  C   UNK N   1      25.722  26.059  -8.479  0.00  0.00     0.101 A 
HETATM    3  C   UNK N   1      25.448  24.758  -8.964  0.00  0.00     0.256 A 
HETATM    4  N   UNK N   1      25.703  23.787  -8.083  0.00  0.00    -0.247 N 
HETATM    5  S   UNK N   1      26.315  24.277  -6.491  0.00  0.00     0.266 S 
HETATM    6  O   UNK N   1      25.064  24.980  -5.936  0.00  0.00    -0.200 OA
HETATM    7  O   UNK N   1      25.373  23.147  -6.057  0.00  0.00    -0.200 OA
HETATM    8  O   UNK N   1      25.011  24.530 -10.077  0.00  0.00    -0.268 OA
HETATM    9  H   UNK N   1      25.558  22.840  -8.308  0.00  0.00     0.182 HD
ENDROOT
BRANCH   1  10
HETATM   10  C   UNK N   1      26.564  27.213  -6.486  0.00  0.00    -0.010 A 
HETATM   11  C   UNK N   1      27.569  28.043  -7.007  0.00  0.00     0.013 A 
HETATM   12  C   UNK N   1      27.972  29.187  -6.313  0.00  0.00     0.004 A 
HETATM   13  C   UNK N   1      27.362  29.523  -5.102  0.00  0.00     0.036 A 
HETATM   14  C   UNK N   1      26.350  28.712  -4.581  0.00  0.00     0.066 A 
HETATM   15  C   UNK N   1      25.961  27.557  -5.264  0.00  0.00     0.049 A 
BRANCH  14  16
HETATM   16  O   UNK N   1      25.750  29.044  -3.428  0.00  0.00    -0.361 OA
HETATM   17  H   UNK N   1      25.314  28.390  -2.917  0.00  0.00     0.217 HD
ENDBRANCH  14  16
ENDBRANCH   1  10
TORSDOF 2
ENDMDL
MODEL 9
REMARK VINA RESULT:      -5.5     15.752     17.187
REMARK  2 active torsions:
REMARK  status: ('A' for Active; 'I' for Inactive)
REMARK    1  A    between atoms: C_1  and  C_9 
REMARK    2  A    between atoms: C_13  and  O_15 
ROOT
HETATM    1  C   UNK N   1      26.668  26.306  -5.022  0.00  0.00     0.095 A 
HETATM    2  C   UNK N   1      25.900  25.780  -5.972  0.00  0.00     0.101 A 
HETATM    3  C   UNK N   1      25.801  24.382  -5.780  0.00  0.00     0.256 A 
HETATM    4  N   UNK N   1      26.507  23.927  -4.742  0.00  0.00    -0.247 N 
HETATM    5  S   UNK N   1      27.416  25.120  -3.794  0.00  0.00     0.266 S 
HETATM    6  O   UNK N   1      26.248  25.891  -3.156  0.00  0.00    -0.200 OA
HETATM    7  O   UNK N   1      26.915  24.227  -2.652  0.00  0.00    -0.200 OA
HETATM    8  O   UNK N   1      25.131  23.649  -6.484  0.00  0.00    -0.268 OA
HETATM    9  H   UNK N   1      26.521  22.970  -4.511  0.00  0.00     0.182 HD
ENDROOT
BRANCH   1  10
HETATM   10  C   UNK N   1      26.988  27.763  -5.024  0.00  0.00    -0.010 A 
HETATM   11  C   UNK N   1      27.997  28.265  -5.861  0.00  0.00     0.013 A 
HETATM   12  C   UNK N   1      28.308  29.628  -5.854  0.00  0.00     0.004 A 
HETATM   13  C   UNK N   1      27.601  30.503  -5.026  0.00  0.00     0.036 A 
HETATM   14  C   UNK N   1      26.584  30.017  -4.200  0.00  0.00     0.066 A 
HETATM   15  C   UNK N   1      26.286  28.652  -4.191  0.00  0.00     0.049 A 
BRANCH  14  16
HETATM   16  O   UNK N   1      25.892  30.860  -3.419  0.00  0.00    -0.361 OA
HETATM   17  H   UNK N   1      25.158  30.551  -2.924  0.00  0.00     0.217 HD
ENDBRANCH  14  16
ENDBRANCH   1  10
TORSDOF 2
ENDMDL
