MODEL 1
REMARK VINA RESULT:      -5.9      0.000      0.000
REMARK  5 active torsions:
REMARK  status: ('A' for Active; 'I' for Inactive)
REMARK    1  A    between atoms: C_1  and  O_4 
REMARK    2  A    between atoms: C_5  and  N_8 
REMARK    3  A    between atoms: N_10  and  C_12 
REMARK    4  A    between atoms: C_13  and  N_14 
REMARK    5  A    between atoms: C_18  and  N_19 
ROOT
HETATM    1  C   UNK N   1      25.460  22.774  -8.019  0.00  0.00     0.138 A 
HETATM    2  C   UNK N   1      26.237  22.522  -9.119  0.00  0.00     0.146 A 
HETATM    3  N   UNK N   1      26.053  21.246  -9.516  0.00  0.00    -0.282 N 
HETATM    4  N   UNK N   1      25.175  20.676  -8.696  0.00  0.00    -0.282 N 
ATOM      5  HN  UNK N   1      24.842  19.714  -8.752  1.00  0.00     0.188 HD
HETATM    6  C   UNK N   1      24.802  21.589  -7.778  0.00  0.00     0.146 A 
HETATM    7  H   UNK N   1      26.493  20.812 -10.282  0.00  0.00     0.188 HD
ENDROOT
BRANCH   1   8
HETATM    8  N   UNK N   1      25.357  23.986  -7.293  0.00  0.00    -0.293 N 
HETATM    9  N   UNK N   1      25.878  24.075  -6.165  0.00  0.00    -0.300 N 
ATOM     10  HN  UNK N   1      26.371  23.266  -5.788  1.00  0.00     0.187 HD
ATOM     11  HN  UNK N   1      24.859  24.782  -7.692  1.00  0.00     0.187 HD
BRANCH   9  12
HETATM   12  C   UNK N   1      25.812  25.255  -5.390  0.00  0.00     0.048 A 
HETATM   13  C   UNK N   1      26.409  25.340  -4.123  0.00  0.00     0.034 A 
HETATM   14  C   UNK N   1      26.319  26.529  -3.389  0.00  0.00     0.039 A 
HETATM   15  C   UNK N   1      25.635  27.628  -3.920  0.00  0.00     0.065 A 
HETATM   16  C   UNK N   1      25.041  27.542  -5.180  0.00  0.00     0.039 A 
HETATM   17  C   UNK N   1      25.131  26.358  -5.912  0.00  0.00     0.034 A 
BRANCH  15  18
HETATM   18  O   UNK N   1      25.547  28.769  -3.217  0.00  0.00    -0.361 OA
HETATM   19  H   UNK N   1      25.677  28.760  -2.290  0.00  0.00     0.217 HD
ENDBRANCH  15  18
ENDBRANCH   9  12
ENDBRANCH   1   8
BRANCH   2  20
HETATM   20  N   UNK N   1      27.104  23.432  -9.757  0.00  0.00    -0.382 N 
HETATM   21  H   UNK N   1      26.900  24.394  -9.750  0.00  0.00     0.157 HD
HETATM   22  H   UNK N   1      27.913  23.104 -10.211  0.00  0.00     0.157 HD
ENDBRANCH   2  20
BRANCH   6  23
HETATM   23  N   UNK N   1      23.878  21.335  -6.744  0.00  0.00    -0.382 N 
HETATM   24  H   UNK N   1      23.532  20.424  -6.606  0.00  0.00     0.157 HD
HETATM   25  H   UNK N   1      23.580  22.070  -6.160  0.00  0.00     0.157 HD
ENDBRANCH   6  23
TORSDOF 5
ENDMDL
MODEL 2
REMARK VINA RESULT:      -5.9      0.081      1.950
REMARK  5 active torsions:
REMARK  status: ('A' for Active; 'I' for Inactive)
REMARK    1  A    between atoms: C_1  and  O_4 
REMARK    2  A    between atoms: C_5  and  N_8 
REMARK    3  A    between atoms: N_10  and  C_12 
REMARK    4  A    between atoms: C_13  and  N_14 
REMARK    5  A    between atoms: C_18  and  N_19 
ROOT
HETATM    1  C   UNK N   1      25.490  22.733  -7.944  0.00  0.00     0.138 A 
HETATM    2  C   UNK N   1      24.841  21.547  -7.718  0.00  0.00     0.146 A 
HETATM    3  N   UNK N   1      25.240  20.636  -8.629  0.00  0.00    -0.282 N 
HETATM    4  N   UNK N   1      26.129  21.212  -9.433  0.00  0.00    -0.282 N 
ATOM      5  HN  UNK N   1      26.603  20.764 -10.217  1.00  0.00     0.188 HD
HETATM    6  C   UNK N   1      26.295  22.487  -9.033  0.00  0.00     0.146 A 
HETATM    7  H   UNK N   1      24.926  19.705  -8.689  0.00  0.00     0.188 HD
ENDROOT
BRANCH   1   8
HETATM    8  N   UNK N   1      25.359  23.941  -7.217  0.00  0.00    -0.293 N 
HETATM    9  N   UNK N   1      25.969  24.082  -6.139  0.00  0.00    -0.300 N 
ATOM     10  HN  UNK N   1      26.553  23.316  -5.804  1.00  0.00     0.187 HD
ATOM     11  HN  UNK N   1      24.769  24.692  -7.574  1.00  0.00     0.187 HD
BRANCH   9  12
HETATM   12  C   UNK N   1      25.881  25.261  -5.366  0.00  0.00     0.048 A 
HETATM   13  C   UNK N   1      26.464  25.355  -4.094  0.00  0.00     0.034 A 
HETATM   14  C   UNK N   1      26.353  26.543  -3.362  0.00  0.00     0.039 A 
HETATM   15  C   UNK N   1      25.661  27.633  -3.900  0.00  0.00     0.065 A 
HETATM   16  C   UNK N   1      25.081  27.539  -5.166  0.00  0.00     0.039 A 
HETATM   17  C   UNK N   1      25.192  26.355  -5.896  0.00  0.00     0.034 A 
BRANCH  15  18
HETATM   18  O   UNK N   1      25.553  28.774  -3.200  0.00  0.00    -0.361 OA
HETATM   19  H   UNK N   1      25.377  28.744  -2.281  0.00  0.00     0.217 HD
ENDBRANCH  15  18
ENDBRANCH   9  12
ENDBRANCH   1   8
BRANCH   2  20
HETATM   20  N   UNK N   1      23.900  21.288  -6.702  0.00  0.00    -0.382 N 
HETATM   21  H   UNK N   1      23.756  20.368  -6.386  0.00  0.00     0.157 HD
HETATM   22  H   UNK N   1      23.386  22.030  -6.307  0.00  0.00     0.157 HD
ENDBRANCH   2  20
BRANCH   6  23
HETATM   23  N   UNK N   1      27.167  23.402  -9.657  0.00  0.00    -0.382 N 
HETATM   24  H   UNK N   1      27.057  24.369  -9.505  0.00  0.00     0.157 HD
HETATM   25  H   UNK N   1      27.886  23.074 -10.244  0.00  0.00     0.157 HD
ENDBRANCH   6  23
TORSDOF 5
ENDMDL
MODEL 3
REMARK VINA RESULT:      -5.6      4.344      6.433
REMARK  5 active torsions:
REMARK  status: ('A' for Active; 'I' for Inactive)
REMARK    1  A    between atoms: C_1  and  O_4 
REMARK    2  A    between atoms: C_5  and  N_8 
REMARK    3  A    between atoms: N_10  and  C_12 
REMARK    4  A    between atoms: C_13  and  N_14 
REMARK    5  A    between atoms: C_18  and  N_19 
ROOT
HETATM    1  C   UNK N   1      26.232  26.249  -4.259  0.00  0.00     0.138 A 
HETATM    2  C   UNK N   1      25.935  27.497  -3.776  0.00  0.00     0.146 A 
HETATM    3  N   UNK N   1      25.002  28.073  -4.561  0.00  0.00    -0.282 N 
HETATM    4  N   UNK N   1      24.694  27.221  -5.536  0.00  0.00    -0.282 N 
ATOM      5  HN  UNK N   1      24.016  27.385  -6.280  1.00  0.00     0.188 HD
HETATM    6  C   UNK N   1      25.431  26.106  -5.369  0.00  0.00     0.146 A 
HETATM    7  H   UNK N   1      24.615  28.968  -4.435  0.00  0.00     0.188 HD
ENDROOT
BRANCH   1   8
HETATM    8  N   UNK N   1      27.157  25.316  -3.730  0.00  0.00    -0.293 N 
HETATM    9  N   UNK N   1      28.305  25.246  -4.210  0.00  0.00    -0.300 N 
ATOM     10  HN  UNK N   1      28.552  25.868  -4.979  1.00  0.00     0.187 HD
ATOM     11  HN  UNK N   1      26.884  24.704  -2.961  1.00  0.00     0.187 HD
BRANCH   9  12
HETATM   12  C   UNK N   1      29.274  24.337  -3.729  0.00  0.00     0.048 A 
HETATM   13  C   UNK N   1      30.581  24.314  -4.238  0.00  0.00     0.034 A 
HETATM   14  C   UNK N   1      31.510  23.397  -3.732  0.00  0.00     0.039 A 
HETATM   15  C   UNK N   1      31.133  22.506  -2.720  0.00  0.00     0.065 A 
HETATM   16  C   UNK N   1      29.832  22.530  -2.215  0.00  0.00     0.039 A 
HETATM   17  C   UNK N   1      28.906  23.444  -2.719  0.00  0.00     0.034 A 
BRANCH  15  18
HETATM   18  O   UNK N   1      32.022  21.626  -2.234  0.00  0.00    -0.361 OA
HETATM   19  H   UNK N   1      32.276  20.884  -2.746  0.00  0.00     0.217 HD
ENDBRANCH  15  18
ENDBRANCH   9  12
ENDBRANCH   1   8
BRANCH   2  20
HETATM   20  N   UNK N   1      26.500  28.111  -2.640  0.00  0.00    -0.382 N 
HETATM   21  H   UNK N   1      26.504  27.639  -1.777  0.00  0.00     0.157 HD
HETATM   22  H   UNK N   1      26.890  29.012  -2.711  0.00  0.00     0.157 HD
ENDBRANCH   2  20
BRANCH   6  23
HETATM   23  N   UNK N   1      25.367  24.984  -6.221  0.00  0.00    -0.382 N 
HETATM   24  H   UNK N   1      25.923  24.193  -6.034  0.00  0.00     0.157 HD
HETATM   25  H   UNK N   1      24.768  24.993  -7.002  0.00  0.00     0.157 HD
ENDBRANCH   6  23
TORSDOF 5
ENDMDL
MODEL 4
REMARK VINA RESULT:      -5.5      4.365      6.435
REMARK  5 active torsions:
REMARK  status: ('A' for Active; 'I' for Inactive)
REMARK    1  A    between atoms: C_1  and  O_4 
REMARK    2  A    between atoms: C_5  and  N_8 
REMARK    3  A    between atoms: N_10  and  C_12 
REMARK    4  A    between atoms: C_13  and  N_14 
REMARK    5  A    between atoms: C_18  and  N_19 
ROOT
HETATM    1  C   UNK N   1      26.181  26.214  -4.186  0.00  0.00     0.138 A 
HETATM    2  C   UNK N   1      25.364  26.113  -5.282  0.00  0.00     0.146 A 
HETATM    3  N   UNK N   1      24.674  27.263  -5.435  0.00  0.00    -0.282 N 
HETATM    4  N   UNK N   1      25.031  28.096  -4.462  0.00  0.00    -0.282 N 
ATOM      5  HN  UNK N   1      24.673  29.041  -4.324  1.00  0.00     0.188 HD
HETATM    6  C   UNK N   1      25.946  27.477  -3.692  0.00  0.00     0.146 A 
HETATM    7  H   UNK N   1      24.020  27.452  -6.145  0.00  0.00     0.188 HD
ENDROOT
BRANCH   1   8
HETATM    8  N   UNK N   1      27.068  25.234  -3.677  0.00  0.00    -0.293 N 
HETATM    9  N   UNK N   1      28.272  25.268  -3.994  0.00  0.00    -0.300 N 
ATOM     10  HN  UNK N   1      28.593  26.007  -4.619  1.00  0.00     0.187 HD
ATOM     11  HN  UNK N   1      26.721  24.504  -3.054  1.00  0.00     0.187 HD
BRANCH   9  12
HETATM   12  C   UNK N   1      29.208  24.321  -3.522  0.00  0.00     0.048 A 
HETATM   13  C   UNK N   1      28.898  23.432  -2.481  0.00  0.00     0.034 A 
HETATM   14  C   UNK N   1      29.855  22.510  -2.044  0.00  0.00     0.039 A 
HETATM   15  C   UNK N   1      31.119  22.475  -2.645  0.00  0.00     0.065 A 
HETATM   16  C   UNK N   1      31.426  23.359  -3.680  0.00  0.00     0.039 A 
HETATM   17  C   UNK N   1      30.472  24.279  -4.116  0.00  0.00     0.034 A 
BRANCH  15  18
HETATM   18  O   UNK N   1      32.038  21.591  -2.227  0.00  0.00    -0.361 OA
HETATM   19  H   UNK N   1      32.812  21.890  -1.792  0.00  0.00     0.217 HD
ENDBRANCH  15  18
ENDBRANCH   9  12
ENDBRANCH   1   8
BRANCH   2  20
HETATM   20  N   UNK N   1      25.242  24.999  -6.135  0.00  0.00    -0.382 N 
HETATM   21  H   UNK N   1      26.026  24.666  -6.626  0.00  0.00     0.157 HD
HETATM   22  H   UNK N   1      24.370  24.553  -6.240  0.00  0.00     0.157 HD
ENDBRANCH   2  20
BRANCH   6  23
HETATM   23  N   UNK N   1      26.551  28.062  -2.560  0.00  0.00    -0.382 N 
HETATM   24  H   UNK N   1      27.432  28.493  -2.641  0.00  0.00     0.157 HD
HETATM   25  H   UNK N   1      26.090  28.040  -1.690  0.00  0.00     0.157 HD
ENDBRANCH   6  23
TORSDOF 5
ENDMDL
MODEL 5
REMARK VINA RESULT:      -5.5     25.673     26.950
REMARK  5 active torsions:
REMARK  status: ('A' for Active; 'I' for Inactive)
REMARK    1  A    between atoms: C_1  and  O_4 
REMARK    2  A    between atoms: C_5  and  N_8 
REMARK    3  A    between atoms: N_10  and  C_12 
REMARK    4  A    between atoms: C_13  and  N_14 
REMARK    5  A    between atoms: C_18  and  N_19 
ROOT
HETATM    1  C   UNK N   1      35.325  12.905  13.289  0.00  0.00     0.138 A 
HETATM    2  C   UNK N   1      34.630  12.210  12.334  0.00  0.00     0.146 A 
HETATM    3  N   UNK N   1      34.576  12.937  11.199  0.00  0.00    -0.282 N 
HETATM    4  N   UNK N   1      35.221  14.082  11.406  0.00  0.00    -0.282 N 
ATOM      5  HN  UNK N   1      35.343  14.831  10.724  1.00  0.00     0.188 HD
HETATM    6  C   UNK N   1      35.684  14.082  12.671  0.00  0.00     0.146 A 
HETATM    7  H   UNK N   1      34.136  12.667  10.362  0.00  0.00     0.188 HD
ENDROOT
BRANCH   1   8
HETATM    8  N   UNK N   1      35.610  12.500  14.616  0.00  0.00    -0.293 N 
HETATM    9  N   UNK N   1      34.868  12.871  15.546  0.00  0.00    -0.300 N 
ATOM     10  HN  UNK N   1      34.068  13.463  15.328  1.00  0.00     0.187 HD
ATOM     11  HN  UNK N   1      36.417  11.908  14.808  1.00  0.00     0.187 HD
BRANCH   9  12
HETATM   12  C   UNK N   1      35.097  12.503  16.891  0.00  0.00     0.048 A 
HETATM   13  C   UNK N   1      35.020  13.436  17.935  0.00  0.00     0.034 A 
HETATM   14  C   UNK N   1      35.253  13.027  19.254  0.00  0.00     0.039 A 
HETATM   15  C   UNK N   1      35.563  11.690  19.527  0.00  0.00     0.065 A 
HETATM   16  C   UNK N   1      35.640  10.763  18.487  0.00  0.00     0.039 A 
HETATM   17  C   UNK N   1      35.407  11.170  17.173  0.00  0.00     0.034 A 
BRANCH  15  18
HETATM   18  O   UNK N   1      35.788  11.297  20.791  0.00  0.00    -0.361 OA
HETATM   19  H   UNK N   1      35.069  11.177  21.379  0.00  0.00     0.217 HD
ENDBRANCH  15  18
ENDBRANCH   9  12
ENDBRANCH   1   8
BRANCH   2  20
HETATM   20  N   UNK N   1      34.051  10.934  12.483  0.00  0.00    -0.382 N 
HETATM   21  H   UNK N   1      34.013  10.511  13.370  0.00  0.00     0.157 HD
HETATM   22  H   UNK N   1      33.684  10.466  11.698  0.00  0.00     0.157 HD
ENDBRANCH   2  20
BRANCH   6  23
HETATM   23  N   UNK N   1      36.419  15.141  13.242  0.00  0.00    -0.382 N 
HETATM   24  H   UNK N   1      36.075  16.062  13.190  0.00  0.00     0.157 HD
HETATM   25  H   UNK N   1      37.275  14.958  13.692  0.00  0.00     0.157 HD
ENDBRANCH   6  23
TORSDOF 5
ENDMDL
MODEL 6
REMARK VINA RESULT:      -5.5     17.460     18.829
REMARK  5 active torsions:
REMARK  status: ('A' for Active; 'I' for Inactive)
REMARK    1  A    between atoms: C_1  and  O_4 
REMARK    2  A    between atoms: C_5  and  N_8 
REMARK    3  A    between atoms: N_10  and  C_12 
REMARK    4  A    between atoms: C_13  and  N_14 
REMARK    5  A    between atoms: C_18  and  N_19 
ROOT
HETATM    1  C   UNK N   1      33.392  15.304   9.623  0.00  0.00     0.138 A 
HETATM    2  C   UNK N   1      33.611  13.969   9.405  0.00  0.00     0.146 A 
HETATM    3  N   UNK N   1      34.906  13.680   9.651  0.00  0.00    -0.282 N 
HETATM    4  N   UNK N   1      35.520  14.800  10.022  0.00  0.00    -0.282 N 
ATOM      5  HN  UNK N   1      36.505  14.886  10.271  1.00  0.00     0.188 HD
HETATM    6  C   UNK N   1      34.617  15.799  10.011  0.00  0.00     0.146 A 
HETATM    7  H   UNK N   1      35.323  12.793   9.571  0.00  0.00     0.188 HD
ENDROOT
BRANCH   1   8
HETATM    8  N   UNK N   1      32.175  16.014   9.480  0.00  0.00    -0.293 N 
HETATM    9  N   UNK N   1      31.888  16.531   8.384  0.00  0.00    -0.300 N 
ATOM     10  HN  UNK N   1      32.542  16.430   7.608  1.00  0.00     0.187 HD
ATOM     11  HN  UNK N   1      31.537  16.102  10.272  1.00  0.00     0.187 HD
BRANCH   9  12
HETATM   12  C   UNK N   1      30.691  17.252   8.175  0.00  0.00     0.048 A 
HETATM   13  C   UNK N   1      30.051  17.276   6.927  0.00  0.00     0.034 A 
HETATM   14  C   UNK N   1      28.866  18.003   6.765  0.00  0.00     0.039 A 
HETATM   15  C   UNK N   1      28.323  18.705   7.847  0.00  0.00     0.065 A 
HETATM   16  C   UNK N   1      28.960  18.681   9.089  0.00  0.00     0.039 A 
HETATM   17  C   UNK N   1      30.141  17.956   9.250  0.00  0.00     0.034 A 
BRANCH  15  18
HETATM   18  O   UNK N   1      27.186  19.403   7.694  0.00  0.00    -0.361 OA
HETATM   19  H   UNK N   1      26.402  18.968   7.424  0.00  0.00     0.217 HD
ENDBRANCH  15  18
ENDBRANCH   9  12
ENDBRANCH   1   8
BRANCH   2  20
HETATM   20  N   UNK N   1      32.655  13.021   8.989  0.00  0.00    -0.382 N 
HETATM   21  H   UNK N   1      32.939  12.221   8.493  0.00  0.00     0.157 HD
HETATM   22  H   UNK N   1      31.703  13.160   9.195  0.00  0.00     0.157 HD
ENDBRANCH   2  20
BRANCH   6  23
HETATM   23  N   UNK N   1      34.914  17.134  10.350  0.00  0.00    -0.382 N 
HETATM   24  H   UNK N   1      35.591  17.634   9.838  0.00  0.00     0.157 HD
HETATM   25  H   UNK N   1      34.445  17.567  11.100  0.00  0.00     0.157 HD
ENDBRANCH   6  23
TORSDOF 5
ENDMDL
MODEL 7
REMARK VINA RESULT:      -5.5     17.655     18.978
REMARK  5 active torsions:
REMARK  status: ('A' for Active; 'I' for Inactive)
REMARK    1  A    between atoms: C_1  and  O_4 
REMARK    2  A    between atoms: C_5  and  N_8 
REMARK    3  A    between atoms: N_10  and  C_12 
REMARK    4  A    between atoms: C_13  and  N_14 
REMARK    5  A    between atoms: C_18  and  N_19 
ROOT
HETATM    1  C   UNK N   1      33.497  15.341   9.520  0.00  0.00     0.138 A 
HETATM    2  C   UNK N   1      34.586  15.795  10.218  0.00  0.00     0.146 A 
HETATM    3  N   UNK N   1      35.298  14.744  10.674  0.00  0.00    -0.282 N 
HETATM    4  N   UNK N   1      34.690  13.628  10.285  0.00  0.00    -0.282 N 
ATOM      5  HN  UNK N   1      35.001  12.677  10.484  1.00  0.00     0.188 HD
HETATM    6  C   UNK N   1      33.593  13.969   9.582  0.00  0.00     0.146 A 
HETATM    7  H   UNK N   1      36.126  14.795  11.204  0.00  0.00     0.188 HD
ENDROOT
BRANCH   1   8
HETATM    8  N   UNK N   1      32.498  16.113   8.880  0.00  0.00    -0.293 N 
HETATM    9  N   UNK N   1      31.405  16.301   9.448  0.00  0.00    -0.300 N 
ATOM     10  HN  UNK N   1      31.255  15.890  10.369  1.00  0.00     0.187 HD
ATOM     11  HN  UNK N   1      32.672  16.514   7.958  1.00  0.00     0.187 HD
BRANCH   9  12
HETATM   12  C   UNK N   1      30.367  17.061   8.864  0.00  0.00     0.048 A 
HETATM   13  C   UNK N   1      30.236  17.186   7.473  0.00  0.00     0.034 A 
HETATM   14  C   UNK N   1      29.193  17.949   6.937  0.00  0.00     0.039 A 
HETATM   15  C   UNK N   1      28.283  18.586   7.788  0.00  0.00     0.065 A 
HETATM   16  C   UNK N   1      28.414  18.461   9.172  0.00  0.00     0.039 A 
HETATM   17  C   UNK N   1      29.454  17.700   9.707  0.00  0.00     0.034 A 
BRANCH  15  18
HETATM   18  O   UNK N   1      27.281  19.318   7.276  0.00  0.00    -0.361 OA
HETATM   19  H   UNK N   1      27.404  19.783   6.472  0.00  0.00     0.217 HD
ENDBRANCH  15  18
ENDBRANCH   9  12
ENDBRANCH   1   8
BRANCH   2  20
HETATM   20  N   UNK N   1      34.935  17.142  10.440  0.00  0.00    -0.382 N 
HETATM   21  H   UNK N   1      35.842  17.372  10.742  0.00  0.00     0.157 HD
HETATM   22  H   UNK N   1      34.270  17.853  10.294  0.00  0.00     0.157 HD
ENDBRANCH   2  20
BRANCH   6  23
HETATM   23  N   UNK N   1      32.701  13.038   9.011  0.00  0.00    -0.382 N 
HETATM   24  H   UNK N   1      32.497  13.078   8.048  0.00  0.00     0.157 HD
HETATM   25  H   UNK N   1      32.282  12.348   9.575  0.00  0.00     0.157 HD
ENDBRANCH   6  23
TORSDOF 5
ENDMDL
MODEL 8
REMARK VINA RESULT:      -5.5     13.068     14.608
REMARK  5 active torsions:
REMARK  status: ('A' for Active; 'I' for Inactive)
REMARK    1  A    between atoms: C_1  and  O_4 
REMARK    2  A    between atoms: C_5  and  N_8 
REMARK    3  A    between atoms: N_10  and  C_12 
REMARK    4  A    between atoms: C_13  and  N_14 
REMARK    5  A    between atoms: C_18  and  N_19 
ROOT
HETATM    1  C   UNK N   1      29.016  18.005   7.151  0.00  0.00     0.138 A 
HETATM    2  C   UNK N   1      28.758  17.906   8.494  0.00  0.00     0.146 A 
HETATM    3  N   UNK N   1      29.713  17.157   9.081  0.00  0.00    -0.282 N 
HETATM    4  N   UNK N   1      30.577  16.773   8.145  0.00  0.00    -0.282 N 
ATOM      5  HN  UNK N   1      31.404  16.196   8.295  1.00  0.00     0.188 HD
HETATM    6  C   UNK N   1      30.171  17.279   6.965  0.00  0.00     0.146 A 
HETATM    7  H   UNK N   1      29.763  16.932  10.037  0.00  0.00     0.188 HD
ENDROOT
BRANCH   1   8
HETATM    8  N   UNK N   1      28.261  18.700   6.175  0.00  0.00    -0.293 N 
HETATM    9  N   UNK N   1      27.115  18.305   5.886  0.00  0.00    -0.300 N 
ATOM     10  HN  UNK N   1      26.745  17.483   6.363  1.00  0.00     0.187 HD
ATOM     11  HN  UNK N   1      28.653  19.520   5.712  1.00  0.00     0.187 HD
BRANCH   9  12
HETATM   12  C   UNK N   1      26.310  18.953   4.922  0.00  0.00     0.048 A 
HETATM   13  C   UNK N   1      24.939  18.682   4.802  0.00  0.00     0.034 A 
HETATM   14  C   UNK N   1      24.179  19.348   3.833  0.00  0.00     0.039 A 
HETATM   15  C   UNK N   1      24.788  20.281   2.987  0.00  0.00     0.065 A 
HETATM   16  C   UNK N   1      26.152  20.550   3.107  0.00  0.00     0.039 A 
HETATM   17  C   UNK N   1      26.910  19.887   4.073  0.00  0.00     0.034 A 
BRANCH  15  18
HETATM   18  O   UNK N   1      24.061  20.921   2.057  0.00  0.00    -0.361 OA
HETATM   19  H   UNK N   1      23.476  20.439   1.507  0.00  0.00     0.217 HD
ENDBRANCH  15  18
ENDBRANCH   9  12
ENDBRANCH   1   8
BRANCH   2  20
HETATM   20  N   UNK N   1      27.674  18.485   9.182  0.00  0.00    -0.382 N 
HETATM   21  H   UNK N   1      27.809  18.874  10.076  0.00  0.00     0.157 HD
HETATM   22  H   UNK N   1      26.780  18.501   8.769  0.00  0.00     0.157 HD
ENDBRANCH   2  20
BRANCH   6  23
HETATM   23  N   UNK N   1      30.847  17.076   5.745  0.00  0.00    -0.382 N 
HETATM   24  H   UNK N   1      31.696  16.577   5.729  0.00  0.00     0.157 HD
HETATM   25  H   UNK N   1      30.471  17.434   4.908  0.00  0.00     0.157 HD
ENDBRANCH   6  23
TORSDOF 5
ENDMDL
MODEL 9
REMARK VINA RESULT:      -5.4     26.502     27.783
REMARK  5 active torsions:
REMARK  status: ('A' for Active; 'I' for Inactive)
REMARK    1  A    between atoms: C_1  and  O_4 
REMARK    2  A    between atoms: C_5  and  N_8 
REMARK    3  A    between atoms: N_10  and  C_12 
REMARK    4  A    between atoms: C_13  and  N_14 
REMARK    5  A    between atoms: C_18  and  N_19 
ROOT
HETATM    1  C   UNK N   1      35.603  13.395  14.312  0.00  0.00     0.138 A 
HETATM    2  C   UNK N   1      36.453  14.390  13.906  0.00  0.00     0.146 A 
HETATM    3  N   UNK N   1      36.524  14.399  12.559  0.00  0.00    -0.282 N 
HETATM    4  N   UNK N   1      35.738  13.432  12.094  0.00  0.00    -0.282 N 
ATOM      5  HN  UNK N   1      35.593  13.202  11.111  1.00  0.00     0.188 HD
HETATM    6  C   UNK N   1      35.169  12.810  13.144  0.00  0.00     0.146 A 
HETATM    7  H   UNK N   1      37.064  15.015  12.015  0.00  0.00     0.188 HD
ENDROOT
BRANCH   1   8
HETATM    8  N   UNK N   1      35.250  13.047  15.639  0.00  0.00    -0.293 N 
HETATM    9  N   UNK N   1      35.801  12.075  16.189  0.00  0.00    -0.300 N 
ATOM     10  HN  UNK N   1      36.499  11.547  15.666  1.00  0.00     0.187 HD
ATOM     11  HN  UNK N   1      34.548  13.592  16.141  1.00  0.00     0.187 HD
BRANCH   9  12
HETATM   12  C   UNK N   1      35.495  11.677  17.510  0.00  0.00     0.048 A 
HETATM   13  C   UNK N   1      35.320  10.327  17.852  0.00  0.00     0.034 A 
HETATM   14  C   UNK N   1      35.018   9.977  19.174  0.00  0.00     0.039 A 
HETATM   15  C   UNK N   1      34.889  10.973  20.149  0.00  0.00     0.065 A 
HETATM   16  C   UNK N   1      35.063  12.315  19.806  0.00  0.00     0.039 A 
HETATM   17  C   UNK N   1      35.365  12.664  18.490  0.00  0.00     0.034 A 
BRANCH  15  18
HETATM   18  O   UNK N   1      34.599  10.639  21.417  0.00  0.00    -0.361 OA
HETATM   19  H   UNK N   1      34.651   9.745  21.689  0.00  0.00     0.217 HD
ENDBRANCH  15  18
ENDBRANCH   9  12
ENDBRANCH   1   8
BRANCH   2  20
HETATM   20  N   UNK N   1      37.157  15.281  14.741  0.00  0.00    -0.382 N 
HETATM   21  H   UNK N   1      36.696  15.724  15.488  0.00  0.00     0.157 HD
HETATM   22  H   UNK N   1      38.111  15.459  14.575  0.00  0.00     0.157 HD
ENDBRANCH   2  20
BRANCH   6  23
HETATM   23  N   UNK N   1      34.272  11.728  13.028  0.00  0.00    -0.382 N 
HETATM   24  H   UNK N   1      33.319  11.897  12.846  0.00  0.00     0.157 HD
HETATM   25  H   UNK N   1      34.599  10.805  13.129  0.00  0.00     0.157 HD
ENDBRANCH   6  23
TORSDOF 5
ENDMDL
