REMARK  8 active torsions:
REMARK  status: ('A' for Active; 'I' for Inactive)
REMARK    1  A    between atoms: C_3  and  S_11 
REMARK    2  A    between atoms: S_11  and  N_17 
REMARK    3  A    between atoms: C_14  and  O_15 
REMARK    4  A    between atoms: C_14  and  C_16 
REMARK    5  A    between atoms: O_15  and  P_20 
REMARK    6  A    between atoms: C_16  and  N_17 
REMARK    7  A    between atoms: O_19  and  P_20 
REMARK    8  A    between atoms: P_20  and  O_21 
ROOT
HETATM    1  S   UNK N   1       0.118   0.201  -0.024  0.00  0.00     0.258 S 
HETATM    2  O   UNK N   1       0.924  -0.343  -1.215  0.00  0.00    -0.201 OA
HETATM    3  O   UNK N   1       0.866  -0.446   1.152  0.00  0.00    -0.201 OA
ENDROOT
BRANCH   1   4
HETATM    4  C   UNK N   1      -1.558  -0.433  -0.039  0.00  0.00     0.080 A 
HETATM    5  C   UNK N   1      -1.727  -1.808   0.147  0.00  0.00     0.026 A 
HETATM    6  C   UNK N   1      -2.998  -2.378   0.150  0.00  0.00     0.014 A 
HETATM    7  C   UNK N   1      -4.118  -1.574  -0.033  0.00  0.00    -0.026 A 
HETATM    8  C   UNK N   1      -3.966  -0.179  -0.227  0.00  0.00    -0.025 A 
HETATM    9  C   UNK N   1      -5.392  -2.147  -0.025  0.00  0.00     0.012 A 
HETATM   10  C   UNK N   1      -2.679   0.391  -0.230  0.00  0.00     0.037 A 
HETATM   11  C   UNK N   1      -5.101   0.617  -0.410  0.00  0.00     0.012 A 
HETATM   12  C   UNK N   1      -6.375   0.034  -0.400  0.00  0.00     0.001 A 
HETATM   13  C   UNK N   1      -6.520  -1.344  -0.207  0.00  0.00     0.001 A 
ENDBRANCH   1   4
BRANCH   1  14
HETATM   14  N   UNK N   1       0.531   1.926   0.118  0.00  0.00    -0.313 N 
HETATM   15  H   UNK N   1      -0.079   2.651   0.494  0.00  0.00     0.172 HD
BRANCH  14  16
HETATM   16  C   UNK N   1       1.888   2.139  -0.393  0.00  0.00     0.159 C 
BRANCH  16  17
HETATM   17  C   UNK N   1       2.935   1.501   0.517  0.00  0.00     0.200 C 
BRANCH  17  18
HETATM   18  O   UNK N   1       4.017   1.054  -0.254  0.00  0.00    -0.295 OA
BRANCH  18  19
HETATM   19  P   UNK N   1       5.378   1.010   0.831  0.00  0.00     0.390 P 
HETATM   20  O   UNK N   1       6.686   0.673   0.067  0.00  0.00    -0.632 OA
BRANCH  19  21
HETATM   21  O   UNK N   1       5.101  -0.591   0.216  0.00  0.00    -0.307 OA
HETATM   22  H   UNK N   1       4.249  -0.904  -0.127  0.00  0.00     0.222 HD
ENDBRANCH  19  21
BRANCH  19  23
HETATM   23  O   UNK N   1       5.577   2.335  -0.274  0.00  0.00    -0.307 OA
HETATM   24  H   UNK N   1       6.273   2.609  -0.892  0.00  0.00     0.222 HD
ENDBRANCH  19  23
ENDBRANCH  18  19
ENDBRANCH  17  18
ENDBRANCH  16  17
ENDBRANCH  14  16
ENDBRANCH   1  14
TORSDOF 8
