MODEL 1
REMARK VINA RESULT:      -7.1      0.000      0.000
REMARK  8 active torsions:
REMARK  status: ('A' for Active; 'I' for Inactive)
REMARK    1  A    between atoms: C_3  and  S_11 
REMARK    2  A    between atoms: S_11  and  N_17 
REMARK    3  A    between atoms: C_14  and  O_15 
REMARK    4  A    between atoms: C_14  and  C_16 
REMARK    5  A    between atoms: O_15  and  P_20 
REMARK    6  A    between atoms: C_16  and  N_17 
REMARK    7  A    between atoms: O_19  and  P_20 
REMARK    8  A    between atoms: P_20  and  O_21 
ROOT
HETATM    1  S   UNK N   1      36.160  13.451  13.548  0.00  0.00     0.258 S 
HETATM    2  O   UNK N   1      36.439  14.953  13.721  0.00  0.00    -0.201 OA
HETATM    3  O   UNK N   1      34.773  13.488  12.888  0.00  0.00    -0.201 OA
ENDROOT
BRANCH   1   4
HETATM    4  C   UNK N   1      36.004  12.639  15.137  0.00  0.00     0.080 A 
HETATM    5  C   UNK N   1      36.286  11.271  15.191  0.00  0.00     0.026 A 
HETATM    6  C   UNK N   1      36.189  10.567  16.389  0.00  0.00     0.014 A 
HETATM    7  C   UNK N   1      35.808  11.229  17.552  0.00  0.00    -0.026 A 
HETATM    8  C   UNK N   1      35.515  12.615  17.516  0.00  0.00    -0.025 A 
HETATM    9  C   UNK N   1      35.716  10.523  18.753  0.00  0.00     0.012 A 
HETATM   10  C   UNK N   1      35.614  13.320  16.302  0.00  0.00     0.037 A 
HETATM   11  C   UNK N   1      35.133  13.267  18.693  0.00  0.00     0.012 A 
HETATM   12  C   UNK N   1      35.044  12.551  19.893  0.00  0.00     0.001 A 
HETATM   13  C   UNK N   1      35.336  11.183  19.924  0.00  0.00     0.001 A 
ENDBRANCH   1   4
BRANCH   1  14
HETATM   14  N   UNK N   1      37.228  12.888  12.240  0.00  0.00    -0.313 N 
HETATM   15  H   UNK N   1      38.140  12.451  12.369  0.00  0.00     0.172 HD
BRANCH  14  16
HETATM   16  C   UNK N   1      36.589  13.156  10.949  0.00  0.00     0.159 C 
BRANCH  16  17
HETATM   17  C   UNK N   1      37.081  14.468  10.342  0.00  0.00     0.200 C 
BRANCH  17  18
HETATM   18  O   UNK N   1      36.086  15.002   9.512  0.00  0.00    -0.295 OA
BRANCH  18  19
HETATM   19  P   UNK N   1      35.219  16.146  10.497  0.00  0.00     0.390 P 
HETATM   20  O   UNK N   1      35.616  17.602  10.136  0.00  0.00    -0.632 OA
BRANCH  19  21
HETATM   21  O   UNK N   1      36.907  16.230  10.897  0.00  0.00    -0.307 OA
HETATM   22  H   UNK N   1      37.461  15.457  11.093  0.00  0.00     0.222 HD
ENDBRANCH  19  21
BRANCH  19  23
HETATM   23  O   UNK N   1      34.715  16.326   8.845  0.00  0.00    -0.307 OA
HETATM   24  H   UNK N   1      34.042  15.904   8.287  0.00  0.00     0.222 HD
ENDBRANCH  19  23
ENDBRANCH  18  19
ENDBRANCH  17  18
ENDBRANCH  16  17
ENDBRANCH  14  16
ENDBRANCH   1  14
TORSDOF 8
ENDMDL
MODEL 2
REMARK VINA RESULT:      -6.9      2.276      2.977
REMARK  8 active torsions:
REMARK  status: ('A' for Active; 'I' for Inactive)
REMARK    1  A    between atoms: C_3  and  S_11 
REMARK    2  A    between atoms: S_11  and  N_17 
REMARK    3  A    between atoms: C_14  and  O_15 
REMARK    4  A    between atoms: C_14  and  C_16 
REMARK    5  A    between atoms: O_15  and  P_20 
REMARK    6  A    between atoms: C_16  and  N_17 
REMARK    7  A    between atoms: O_19  and  P_20 
REMARK    8  A    between atoms: P_20  and  O_21 
ROOT
HETATM    1  S   UNK N   1      36.672  13.451  11.475  0.00  0.00     0.258 S 
HETATM    2  O   UNK N   1      35.707  12.642  10.593  0.00  0.00    -0.201 OA
HETATM    3  O   UNK N   1      37.960  12.627  11.327  0.00  0.00    -0.201 OA
ENDROOT
BRANCH   1   4
HETATM    4  C   UNK N   1      36.168  13.399  13.194  0.00  0.00     0.080 A 
HETATM    5  C   UNK N   1      35.218  12.440  13.557  0.00  0.00     0.026 A 
HETATM    6  C   UNK N   1      34.776  12.334  14.874  0.00  0.00     0.014 A 
HETATM    7  C   UNK N   1      35.283  13.191  15.845  0.00  0.00    -0.026 A 
HETATM    8  C   UNK N   1      36.244  14.172  15.495  0.00  0.00    -0.025 A 
HETATM    9  C   UNK N   1      34.842  13.080  17.166  0.00  0.00     0.012 A 
HETATM   10  C   UNK N   1      36.686  14.274  14.163  0.00  0.00     0.037 A 
HETATM   11  C   UNK N   1      36.744  15.026  16.482  0.00  0.00     0.012 A 
HETATM   12  C   UNK N   1      36.296  14.908  17.805  0.00  0.00     0.001 A 
HETATM   13  C   UNK N   1      35.349  13.937  18.146  0.00  0.00     0.001 A 
ENDBRANCH   1   4
BRANCH   1  14
HETATM   14  N   UNK N   1      37.031  14.950  10.585  0.00  0.00    -0.313 N 
HETATM   15  H   UNK N   1      37.785  15.070   9.910  0.00  0.00     0.172 HD
BRANCH  14  16
HETATM   16  C   UNK N   1      36.070  15.984  10.979  0.00  0.00     0.159 C 
BRANCH  16  17
HETATM   17  C   UNK N   1      35.091  16.297   9.850  0.00  0.00     0.200 C 
BRANCH  17  18
HETATM   18  O   UNK N   1      35.209  17.645   9.487  0.00  0.00    -0.295 OA
BRANCH  18  19
HETATM   19  P   UNK N   1      33.995  17.909   8.267  0.00  0.00     0.390 P 
HETATM   20  O   UNK N   1      34.634  17.989   6.855  0.00  0.00    -0.632 OA
BRANCH  19  21
HETATM   21  O   UNK N   1      35.016  19.312   8.351  0.00  0.00    -0.307 OA
HETATM   22  H   UNK N   1      35.464  19.613   9.158  0.00  0.00     0.222 HD
ENDBRANCH  19  21
BRANCH  19  23
HETATM   23  O   UNK N   1      34.702  16.341   8.032  0.00  0.00    -0.307 OA
HETATM   24  H   UNK N   1      34.363  15.431   8.041  0.00  0.00     0.222 HD
ENDBRANCH  19  23
ENDBRANCH  18  19
ENDBRANCH  17  18
ENDBRANCH  16  17
ENDBRANCH  14  16
ENDBRANCH   1  14
TORSDOF 8
ENDMDL
MODEL 3
REMARK VINA RESULT:      -6.7      1.875      2.394
REMARK  8 active torsions:
REMARK  status: ('A' for Active; 'I' for Inactive)
REMARK    1  A    between atoms: C_3  and  S_11 
REMARK    2  A    between atoms: S_11  and  N_17 
REMARK    3  A    between atoms: C_14  and  O_15 
REMARK    4  A    between atoms: C_14  and  C_16 
REMARK    5  A    between atoms: O_15  and  P_20 
REMARK    6  A    between atoms: C_16  and  N_17 
REMARK    7  A    between atoms: O_19  and  P_20 
REMARK    8  A    between atoms: P_20  and  O_21 
ROOT
HETATM    1  S   UNK N   1      35.357  13.021  12.089  0.00  0.00     0.258 S 
HETATM    2  O   UNK N   1      35.119  11.855  11.115  0.00  0.00    -0.201 OA
HETATM    3  O   UNK N   1      36.806  13.398  11.741  0.00  0.00    -0.201 OA
ENDROOT
BRANCH   1   4
HETATM    4  C   UNK N   1      35.317  12.458  13.789  0.00  0.00     0.080 A 
HETATM    5  C   UNK N   1      35.288  11.078  14.009  0.00  0.00     0.026 A 
HETATM    6  C   UNK N   1      35.258  10.560  15.301  0.00  0.00     0.014 A 
HETATM    7  C   UNK N   1      35.256  11.422  16.393  0.00  0.00    -0.026 A 
HETATM    8  C   UNK N   1      35.281  12.824  16.190  0.00  0.00    -0.025 A 
HETATM    9  C   UNK N   1      35.230  10.900  17.688  0.00  0.00     0.012 A 
HETATM   10  C   UNK N   1      35.311  13.341  14.881  0.00  0.00     0.037 A 
HETATM   11  C   UNK N   1      35.279  13.678  17.296  0.00  0.00     0.012 A 
HETATM   12  C   UNK N   1      35.253  13.147  18.593  0.00  0.00     0.001 A 
HETATM   13  C   UNK N   1      35.230  11.762  18.788  0.00  0.00     0.001 A 
ENDBRANCH   1   4
BRANCH   1  14
HETATM   14  N   UNK N   1      34.411  14.395  11.470  0.00  0.00    -0.313 N 
HETATM   15  H   UNK N   1      33.425  14.366  11.212  0.00  0.00     0.172 HD
BRANCH  14  16
HETATM   16  C   UNK N   1      35.274  15.576  11.389  0.00  0.00     0.159 C 
BRANCH  16  17
HETATM   17  C   UNK N   1      35.401  16.078   9.952  0.00  0.00     0.200 C 
BRANCH  17  18
HETATM   18  O   UNK N   1      35.119  17.451   9.908  0.00  0.00    -0.295 OA
BRANCH  18  19
HETATM   19  P   UNK N   1      34.439  17.738   8.331  0.00  0.00     0.390 P 
HETATM   20  O   UNK N   1      33.447  18.930   8.363  0.00  0.00    -0.632 OA
BRANCH  19  21
HETATM   21  O   UNK N   1      33.175  17.201   9.396  0.00  0.00    -0.307 OA
HETATM   22  H   UNK N   1      32.485  16.566   9.147  0.00  0.00     0.222 HD
ENDBRANCH  19  21
BRANCH  19  23
HETATM   23  O   UNK N   1      35.423  19.096   8.779  0.00  0.00    -0.307 OA
HETATM   24  H   UNK N   1      35.346  20.058   8.677  0.00  0.00     0.222 HD
ENDBRANCH  19  23
ENDBRANCH  18  19
ENDBRANCH  17  18
ENDBRANCH  16  17
ENDBRANCH  14  16
ENDBRANCH   1  14
TORSDOF 8
ENDMDL
MODEL 4
REMARK VINA RESULT:      -6.6      2.609      3.856
REMARK  8 active torsions:
REMARK  status: ('A' for Active; 'I' for Inactive)
REMARK    1  A    between atoms: C_3  and  S_11 
REMARK    2  A    between atoms: S_11  and  N_17 
REMARK    3  A    between atoms: C_14  and  O_15 
REMARK    4  A    between atoms: C_14  and  C_16 
REMARK    5  A    between atoms: O_15  and  P_20 
REMARK    6  A    between atoms: C_16  and  N_17 
REMARK    7  A    between atoms: O_19  and  P_20 
REMARK    8  A    between atoms: P_20  and  O_21 
ROOT
HETATM    1  S   UNK N   1      36.018  14.561  10.399  0.00  0.00     0.258 S 
HETATM    2  O   UNK N   1      37.344  14.099   9.773  0.00  0.00    -0.201 OA
HETATM    3  O   UNK N   1      36.287  16.064  10.572  0.00  0.00    -0.201 OA
ENDROOT
BRANCH   1   4
HETATM    4  C   UNK N   1      35.791  13.842  12.025  0.00  0.00     0.080 A 
HETATM    5  C   UNK N   1      36.388  14.496  13.106  0.00  0.00     0.026 A 
HETATM    6  C   UNK N   1      36.256  14.001  14.402  0.00  0.00     0.014 A 
HETATM    7  C   UNK N   1      35.522  12.842  14.629  0.00  0.00    -0.026 A 
HETATM    8  C   UNK N   1      34.913  12.164  13.545  0.00  0.00    -0.025 A 
HETATM    9  C   UNK N   1      35.387  12.351  15.930  0.00  0.00     0.012 A 
HETATM   10  C   UNK N   1      35.050  12.668  12.238  0.00  0.00     0.037 A 
HETATM   11  C   UNK N   1      34.177  11.000  13.789  0.00  0.00     0.012 A 
HETATM   12  C   UNK N   1      34.047  10.514  15.097  0.00  0.00     0.001 A 
HETATM   13  C   UNK N   1      34.649  11.188  16.164  0.00  0.00     0.001 A 
ENDBRANCH   1   4
BRANCH   1  14
HETATM   14  N   UNK N   1      34.801  14.502   9.103  0.00  0.00    -0.313 N 
HETATM   15  H   UNK N   1      33.817  14.265   9.226  0.00  0.00     0.172 HD
BRANCH  14  16
HETATM   16  C   UNK N   1      35.438  14.846   7.829  0.00  0.00     0.159 C 
BRANCH  16  17
HETATM   17  C   UNK N   1      34.799  16.082   7.200  0.00  0.00     0.200 C 
BRANCH  17  18
HETATM   18  O   UNK N   1      33.628  16.411   7.897  0.00  0.00    -0.295 OA
BRANCH  18  19
HETATM   19  P   UNK N   1      33.581  18.151   7.938  0.00  0.00     0.390 P 
HETATM   20  O   UNK N   1      35.013  18.743   8.019  0.00  0.00    -0.632 OA
BRANCH  19  21
HETATM   21  O   UNK N   1      34.186  17.572   9.460  0.00  0.00    -0.307 OA
HETATM   22  H   UNK N   1      34.295  18.125  10.250  0.00  0.00     0.222 HD
ENDBRANCH  19  21
BRANCH  19  23
HETATM   23  O   UNK N   1      34.335  17.639   6.460  0.00  0.00    -0.307 OA
HETATM   24  H   UNK N   1      35.235  17.691   6.100  0.00  0.00     0.222 HD
ENDBRANCH  19  23
ENDBRANCH  18  19
ENDBRANCH  17  18
ENDBRANCH  16  17
ENDBRANCH  14  16
ENDBRANCH   1  14
TORSDOF 8
ENDMDL
MODEL 5
REMARK VINA RESULT:      -6.6      5.248      9.750
REMARK  8 active torsions:
REMARK  status: ('A' for Active; 'I' for Inactive)
REMARK    1  A    between atoms: C_3  and  S_11 
REMARK    2  A    between atoms: S_11  and  N_17 
REMARK    3  A    between atoms: C_14  and  O_15 
REMARK    4  A    between atoms: C_14  and  C_16 
REMARK    5  A    between atoms: O_15  and  P_20 
REMARK    6  A    between atoms: C_16  and  N_17 
REMARK    7  A    between atoms: O_19  and  P_20 
REMARK    8  A    between atoms: P_20  and  O_21 
ROOT
HETATM    1  S   UNK N   1      34.838  16.369   9.804  0.00  0.00     0.258 S 
HETATM    2  O   UNK N   1      35.521  17.696  10.176  0.00  0.00    -0.201 OA
HETATM    3  O   UNK N   1      36.024  15.586   9.219  0.00  0.00    -0.201 OA
ENDROOT
BRANCH   1   4
HETATM    4  C   UNK N   1      33.630  16.611   8.503  0.00  0.00     0.080 A 
HETATM    5  C   UNK N   1      32.285  16.417   8.830  0.00  0.00     0.026 A 
HETATM    6  C   UNK N   1      31.285  16.587   7.875  0.00  0.00     0.014 A 
HETATM    7  C   UNK N   1      31.622  16.956   6.577  0.00  0.00    -0.026 A 
HETATM    8  C   UNK N   1      32.980  17.153   6.226  0.00  0.00    -0.025 A 
HETATM    9  C   UNK N   1      30.618  17.130   5.623  0.00  0.00     0.012 A 
HETATM   10  C   UNK N   1      33.986  16.979   7.195  0.00  0.00     0.037 A 
HETATM   11  C   UNK N   1      33.305  17.524   4.918  0.00  0.00     0.012 A 
HETATM   12  C   UNK N   1      32.291  17.697   3.966  0.00  0.00     0.001 A 
HETATM   13  C   UNK N   1      30.951  17.502   4.318  0.00  0.00     0.001 A 
ENDBRANCH   1   4
BRANCH   1  14
HETATM   14  N   UNK N   1      34.500  15.530  11.336  0.00  0.00    -0.313 N 
HETATM   15  H   UNK N   1      34.264  15.983  12.219  0.00  0.00     0.172 HD
BRANCH  14  16
HETATM   16  C   UNK N   1      34.616  14.084  11.128  0.00  0.00     0.159 C 
BRANCH  16  17
HETATM   17  C   UNK N   1      35.496  13.434  12.193  0.00  0.00     0.200 C 
BRANCH  17  18
HETATM   18  O   UNK N   1      34.982  13.722  13.466  0.00  0.00    -0.295 OA
BRANCH  18  19
HETATM   19  P   UNK N   1      36.118  13.040  14.594  0.00  0.00     0.390 P 
HETATM   20  O   UNK N   1      36.369  14.006  15.783  0.00  0.00    -0.632 OA
BRANCH  19  21
HETATM   21  O   UNK N   1      36.838  14.436  13.852  0.00  0.00    -0.307 OA
HETATM   22  H   UNK N   1      36.673  15.350  14.133  0.00  0.00     0.222 HD
ENDBRANCH  19  21
BRANCH  19  23
HETATM   23  O   UNK N   1      34.568  13.176  15.364  0.00  0.00    -0.307 OA
HETATM   24  H   UNK N   1      33.667  12.896  15.137  0.00  0.00     0.222 HD
ENDBRANCH  19  23
ENDBRANCH  18  19
ENDBRANCH  17  18
ENDBRANCH  16  17
ENDBRANCH  14  16
ENDBRANCH   1  14
TORSDOF 8
ENDMDL
MODEL 6
REMARK VINA RESULT:      -6.5      6.187      9.666
REMARK  8 active torsions:
REMARK  status: ('A' for Active; 'I' for Inactive)
REMARK    1  A    between atoms: C_3  and  S_11 
REMARK    2  A    between atoms: S_11  and  N_17 
REMARK    3  A    between atoms: C_14  and  O_15 
REMARK    4  A    between atoms: C_14  and  C_16 
REMARK    5  A    between atoms: O_15  and  P_20 
REMARK    6  A    between atoms: C_16  and  N_17 
REMARK    7  A    between atoms: O_19  and  P_20 
REMARK    8  A    between atoms: P_20  and  O_21 
ROOT
HETATM    1  S   UNK N   1      34.382  17.582   8.382  0.00  0.00     0.258 S 
HETATM    2  O   UNK N   1      35.038  18.900   7.938  0.00  0.00    -0.201 OA
HETATM    3  O   UNK N   1      35.220  16.562   7.596  0.00  0.00    -0.201 OA
ENDROOT
BRANCH   1   4
HETATM    4  C   UNK N   1      32.689  17.480   7.804  0.00  0.00     0.080 A 
HETATM    5  C   UNK N   1      32.487  17.169   6.456  0.00  0.00     0.026 A 
HETATM    6  C   UNK N   1      31.201  17.069   5.930  0.00  0.00     0.014 A 
HETATM    7  C   UNK N   1      30.099  17.280   6.752  0.00  0.00    -0.026 A 
HETATM    8  C   UNK N   1      30.284  17.600   8.119  0.00  0.00    -0.025 A 
HETATM    9  C   UNK N   1      28.810  17.175   6.224  0.00  0.00     0.012 A 
HETATM   10  C   UNK N   1      31.586  17.700   8.645  0.00  0.00     0.037 A 
HETATM   11  C   UNK N   1      29.166  17.809   8.933  0.00  0.00     0.012 A 
HETATM   12  C   UNK N   1      27.877  17.702   8.395  0.00  0.00     0.001 A 
HETATM   13  C   UNK N   1      27.699  17.384   7.044  0.00  0.00     0.001 A 
ENDBRANCH   1   4
BRANCH   1  14
HETATM   14  N   UNK N   1      34.878  17.316  10.070  0.00  0.00    -0.313 N 
HETATM   15  H   UNK N   1      35.021  18.047  10.766  0.00  0.00     0.172 HD
BRANCH  14  16
HETATM   16  C   UNK N   1      35.048  15.879  10.301  0.00  0.00     0.159 C 
BRANCH  16  17
HETATM   17  C   UNK N   1      35.638  15.600  11.681  0.00  0.00     0.200 C 
BRANCH  17  18
HETATM   18  O   UNK N   1      34.903  14.585  12.310  0.00  0.00    -0.295 OA
BRANCH  18  19
HETATM   19  P   UNK N   1      36.002  13.245  12.473  0.00  0.00     0.390 P 
HETATM   20  O   UNK N   1      36.196  12.864  13.965  0.00  0.00    -0.632 OA
BRANCH  19  21
HETATM   21  O   UNK N   1      36.735  14.656  13.171  0.00  0.00    -0.307 OA
HETATM   22  H   UNK N   1      36.900  15.482  12.688  0.00  0.00     0.222 HD
ENDBRANCH  19  21
BRANCH  19  23
HETATM   23  O   UNK N   1      34.421  12.748  12.992  0.00  0.00    -0.307 OA
HETATM   24  H   UNK N   1      33.516  13.034  12.791  0.00  0.00     0.222 HD
ENDBRANCH  19  23
ENDBRANCH  18  19
ENDBRANCH  17  18
ENDBRANCH  16  17
ENDBRANCH  14  16
ENDBRANCH   1  14
TORSDOF 8
ENDMDL
MODEL 7
REMARK VINA RESULT:      -6.5     15.749     16.997
REMARK  8 active torsions:
REMARK  status: ('A' for Active; 'I' for Inactive)
REMARK    1  A    between atoms: C_3  and  S_11 
REMARK    2  A    between atoms: S_11  and  N_17 
REMARK    3  A    between atoms: C_14  and  O_15 
REMARK    4  A    between atoms: C_14  and  C_16 
REMARK    5  A    between atoms: O_15  and  P_20 
REMARK    6  A    between atoms: C_16  and  N_17 
REMARK    7  A    between atoms: O_19  and  P_20 
REMARK    8  A    between atoms: P_20  and  O_21 
ROOT
HETATM    1  S   UNK N   1      21.864  17.039   5.635  0.00  0.00     0.258 S 
HETATM    2  O   UNK N   1      23.328  17.491   5.507  0.00  0.00    -0.201 OA
HETATM    3  O   UNK N   1      21.184  18.363   6.017  0.00  0.00    -0.201 OA
ENDROOT
BRANCH   1   4
HETATM    4  C   UNK N   1      21.662  15.892   6.997  0.00  0.00     0.080 A 
HETATM    5  C   UNK N   1      20.633  16.149   7.907  0.00  0.00     0.026 A 
HETATM    6  C   UNK N   1      20.410  15.304   8.992  0.00  0.00     0.014 A 
HETATM    7  C   UNK N   1      21.218  14.187   9.177  0.00  0.00    -0.026 A 
HETATM    8  C   UNK N   1      22.268  13.913   8.268  0.00  0.00    -0.025 A 
HETATM    9  C   UNK N   1      20.989  13.338  10.263  0.00  0.00     0.012 A 
HETATM   10  C   UNK N   1      22.489  14.771   7.174  0.00  0.00     0.037 A 
HETATM   11  C   UNK N   1      23.073  12.787   8.467  0.00  0.00     0.012 A 
HETATM   12  C   UNK N   1      22.837  11.940   9.558  0.00  0.00     0.001 A 
HETATM   13  C   UNK N   1      21.797  12.215  10.453  0.00  0.00     0.001 A 
ENDBRANCH   1   4
BRANCH   1  14
HETATM   14  N   UNK N   1      21.284  16.735   3.981  0.00  0.00    -0.313 N 
HETATM   15  H   UNK N   1      21.854  16.392   3.208  0.00  0.00     0.172 HD
BRANCH  14  16
HETATM   16  C   UNK N   1      19.856  17.057   3.905  0.00  0.00     0.159 C 
BRANCH  16  17
HETATM   17  C   UNK N   1      19.599  18.242   2.977  0.00  0.00     0.200 C 
BRANCH  17  18
HETATM   18  O   UNK N   1      20.800  18.630   2.367  0.00  0.00    -0.295 OA
BRANCH  18  19
HETATM   19  P   UNK N   1      20.812  20.370   2.424  0.00  0.00     0.390 P 
HETATM   20  O   UNK N   1      22.141  20.935   1.854  0.00  0.00    -0.632 OA
BRANCH  19  21
HETATM   21  O   UNK N   1      22.023  19.767   3.514  0.00  0.00    -0.307 OA
HETATM   22  H   UNK N   1      22.966  19.987   3.457  0.00  0.00     0.222 HD
ENDBRANCH  19  21
BRANCH  19  23
HETATM   23  O   UNK N   1      20.813  19.857   0.765  0.00  0.00    -0.307 OA
HETATM   24  H   UNK N   1      20.826  18.997   0.317  0.00  0.00     0.222 HD
ENDBRANCH  19  23
ENDBRANCH  18  19
ENDBRANCH  17  18
ENDBRANCH  16  17
ENDBRANCH  14  16
ENDBRANCH   1  14
TORSDOF 8
ENDMDL
MODEL 8
REMARK VINA RESULT:      -6.5      8.460     11.786
REMARK  8 active torsions:
REMARK  status: ('A' for Active; 'I' for Inactive)
REMARK    1  A    between atoms: C_3  and  S_11 
REMARK    2  A    between atoms: S_11  and  N_17 
REMARK    3  A    between atoms: C_14  and  O_15 
REMARK    4  A    between atoms: C_14  and  C_16 
REMARK    5  A    between atoms: O_15  and  P_20 
REMARK    6  A    between atoms: C_16  and  N_17 
REMARK    7  A    between atoms: O_19  and  P_20 
REMARK    8  A    between atoms: P_20  and  O_21 
ROOT
HETATM    1  S   UNK N   1      31.075  15.604   5.471  0.00  0.00     0.258 S 
HETATM    2  O   UNK N   1      31.287  15.456   3.956  0.00  0.00    -0.201 OA
HETATM    3  O   UNK N   1      30.362  14.282   5.795  0.00  0.00    -0.201 OA
ENDROOT
BRANCH   1   4
HETATM    4  C   UNK N   1      29.950  16.951   5.834  0.00  0.00     0.080 A 
HETATM    5  C   UNK N   1      29.745  17.273   7.179  0.00  0.00     0.026 A 
HETATM    6  C   UNK N   1      28.886  18.308   7.543  0.00  0.00     0.014 A 
HETATM    7  C   UNK N   1      28.222  19.035   6.561  0.00  0.00    -0.026 A 
HETATM    8  C   UNK N   1      28.414  18.720   5.193  0.00  0.00    -0.025 A 
HETATM    9  C   UNK N   1      27.365  20.075   6.928  0.00  0.00     0.012 A 
HETATM   10  C   UNK N   1      29.282  17.673   4.831  0.00  0.00     0.037 A 
HETATM   11  C   UNK N   1      27.740  19.459   4.216  0.00  0.00     0.012 A 
HETATM   12  C   UNK N   1      26.883  20.501   4.593  0.00  0.00     0.001 A 
HETATM   13  C   UNK N   1      26.697  20.809   5.945  0.00  0.00     0.001 A 
ENDBRANCH   1   4
BRANCH   1  14
HETATM   14  N   UNK N   1      32.675  15.410   6.226  0.00  0.00    -0.313 N 
HETATM   15  H   UNK N   1      33.568  15.620   5.781  0.00  0.00     0.172 HD
BRANCH  14  16
HETATM   16  C   UNK N   1      32.504  14.900   7.589  0.00  0.00     0.159 C 
BRANCH  16  17
HETATM   17  C   UNK N   1      33.407  15.634   8.578  0.00  0.00     0.200 C 
BRANCH  17  18
HETATM   18  O   UNK N   1      34.300  16.457   7.877  0.00  0.00    -0.295 OA
BRANCH  18  19
HETATM   19  P   UNK N   1      33.802  18.089   8.224  0.00  0.00     0.390 P 
HETATM   20  O   UNK N   1      35.025  19.044   8.265  0.00  0.00    -0.632 OA
BRANCH  19  21
HETATM   21  O   UNK N   1      34.749  17.498   9.555  0.00  0.00    -0.307 OA
HETATM   22  H   UNK N   1      35.700  17.310   9.508  0.00  0.00     0.222 HD
ENDBRANCH  19  21
BRANCH  19  23
HETATM   23  O   UNK N   1      34.447  18.023   6.612  0.00  0.00    -0.307 OA
HETATM   24  H   UNK N   1      34.150  18.343   5.746  0.00  0.00     0.222 HD
ENDBRANCH  19  23
ENDBRANCH  18  19
ENDBRANCH  17  18
ENDBRANCH  16  17
ENDBRANCH  14  16
ENDBRANCH   1  14
TORSDOF 8
ENDMDL
MODEL 9
REMARK VINA RESULT:      -6.4      6.322     10.243
REMARK  8 active torsions:
REMARK  status: ('A' for Active; 'I' for Inactive)
REMARK    1  A    between atoms: C_3  and  S_11 
REMARK    2  A    between atoms: S_11  and  N_17 
REMARK    3  A    between atoms: C_14  and  O_15 
REMARK    4  A    between atoms: C_14  and  C_16 
REMARK    5  A    between atoms: O_15  and  P_20 
REMARK    6  A    between atoms: C_16  and  N_17 
REMARK    7  A    between atoms: O_19  and  P_20 
REMARK    8  A    between atoms: P_20  and  O_21 
ROOT
HETATM    1  S   UNK N   1      34.229  17.600   8.392  0.00  0.00     0.258 S 
HETATM    2  O   UNK N   1      34.922  18.927   8.042  0.00  0.00    -0.201 OA
HETATM    3  O   UNK N   1      35.129  16.598   7.652  0.00  0.00    -0.201 OA
ENDROOT
BRANCH   1   4
HETATM    4  C   UNK N   1      32.590  17.520   7.671  0.00  0.00     0.080 A 
HETATM    5  C   UNK N   1      31.503  17.741   8.521  0.00  0.00     0.026 A 
HETATM    6  C   UNK N   1      30.197  17.698   8.037  0.00  0.00     0.014 A 
HETATM    7  C   UNK N   1      29.966  17.434   6.691  0.00  0.00    -0.026 A 
HETATM    8  C   UNK N   1      31.056  17.203   5.816  0.00  0.00    -0.025 A 
HETATM    9  C   UNK N   1      28.656  17.396   6.206  0.00  0.00     0.012 A 
HETATM   10  C   UNK N   1      32.373  17.247   6.311  0.00  0.00     0.037 A 
HETATM   11  C   UNK N   1      30.808  16.938   4.465  0.00  0.00     0.012 A 
HETATM   12  C   UNK N   1      29.492  16.903   3.988  0.00  0.00     0.001 A 
HETATM   13  C   UNK N   1      28.419  17.132   4.856  0.00  0.00     0.001 A 
ENDBRANCH   1   4
BRANCH   1  14
HETATM   14  N   UNK N   1      34.580  17.286  10.108  0.00  0.00    -0.313 N 
HETATM   15  H   UNK N   1      34.146  17.762  10.897  0.00  0.00     0.172 HD
BRANCH  14  16
HETATM   16  C   UNK N   1      35.595  16.233  10.206  0.00  0.00     0.159 C 
BRANCH  16  17
HETATM   17  C   UNK N   1      35.252  15.225  11.301  0.00  0.00     0.200 C 
BRANCH  17  18
HETATM   18  O   UNK N   1      35.856  13.994  11.011  0.00  0.00    -0.295 OA
BRANCH  18  19
HETATM   19  P   UNK N   1      35.610  13.008  12.425  0.00  0.00     0.390 P 
HETATM   20  O   UNK N   1      35.228  13.880  13.650  0.00  0.00    -0.632 OA
BRANCH  19  21
HETATM   21  O   UNK N   1      37.008  14.007  12.677  0.00  0.00    -0.307 OA
HETATM   22  H   UNK N   1      36.973  14.956  12.875  0.00  0.00     0.222 HD
ENDBRANCH  19  21
BRANCH  19  23
HETATM   23  O   UNK N   1      34.100  13.738  11.973  0.00  0.00    -0.307 OA
HETATM   24  H   UNK N   1      33.822  14.355  11.278  0.00  0.00     0.222 HD
ENDBRANCH  19  23
ENDBRANCH  18  19
ENDBRANCH  17  18
ENDBRANCH  16  17
ENDBRANCH  14  16
ENDBRANCH   1  14
TORSDOF 8
ENDMDL
