MODEL 1
REMARK VINA RESULT:      -5.9      0.000      0.000
REMARK  5 active torsions:
REMARK  status: ('A' for Active; 'I' for Inactive)
REMARK    1  A    between atoms: C_2  and  C_5 
REMARK    2  A    between atoms: C_14  and  C_15 
REMARK       I    between atoms: C_15  and  N_17 
REMARK    3  A    between atoms: N_17  and  C_18 
REMARK    4  A    between atoms: C_18  and  C_19 
REMARK    5  A    between atoms: C_19  and  S_20 
ROOT
HETATM    1  C   UNK N   1      27.467  19.777   6.984  0.00  0.00     0.145 A 
HETATM    2  C   UNK N   1      28.167  18.871   6.209  0.00  0.00     0.034 A 
HETATM    3  C   UNK N   1      28.553  17.909   7.066  0.00  0.00     0.104 A 
HETATM    4  N   UNK N   1      28.135  18.178   8.304  0.00  0.00    -0.288 N 
HETATM    5  C   UNK N   1      28.341  17.373   9.494  0.00  0.00     0.178 C 
HETATM    6  N   UNK N   1      27.460  19.326   8.272  0.00  0.00    -0.293 N 
ATOM      7  HN  UNK N   1      27.017  19.785   9.067  1.00  0.00     0.187 HD
HETATM    8  S   UNK N   1      29.377  16.746   6.258  0.00  0.00    -0.065 SA
HETATM    9  C   UNK N   1      28.547  18.661   4.855  0.00  0.00     0.041 A 
HETATM   10  C   UNK N   1      29.267  17.440   4.724  0.00  0.00     0.075 A 
ENDROOT
BRANCH  10  11
HETATM   11  C   UNK N   1      29.794  16.804   3.489  0.00  0.00     0.258 C 
HETATM   12  O   UNK N   1      29.023  16.159   2.797  0.00  0.00    -0.267 OA
HETATM   13  N   UNK N   1      31.081  16.926   3.075  0.00  0.00    -0.356 N 
HETATM   14  H   UNK N   1      31.324  16.503   2.220  0.00  0.00     0.162 HD
BRANCH  13  15
HETATM   15  C   UNK N   1      32.119  17.625   3.788  0.00  0.00     0.133 C 
BRANCH  15  16
HETATM   16  C   UNK N   1      33.000  16.620   4.511  0.00  0.00     0.090 C 
BRANCH  16  17
HETATM   17  S   UNK N   1      33.539  17.292   6.115  0.00  0.00    -0.181 SA
HETATM   18  H   UNK N   1      32.693  17.605   7.134  0.00  0.00     0.101 HD
ENDBRANCH  16  17
ENDBRANCH  15  16
ENDBRANCH  13  15
ENDBRANCH  10  11
BRANCH   1  19
HETATM   19  C   UNK N   1      26.799  21.031   6.520  0.00  0.00     0.434 C 
HETATM   20  F   UNK N   1      25.996  21.531   7.528  0.00  0.00    -0.165 F 
HETATM   21  F   UNK N   1      27.758  21.970   6.190  0.00  0.00    -0.165 F 
HETATM   22  F   UNK N   1      26.020  20.772   5.406  0.00  0.00    -0.165 F 
ENDBRANCH   1  19
TORSDOF 5
ENDMDL
MODEL 2
REMARK VINA RESULT:      -5.9      4.584      5.440
REMARK  5 active torsions:
REMARK  status: ('A' for Active; 'I' for Inactive)
REMARK    1  A    between atoms: C_2  and  C_5 
REMARK    2  A    between atoms: C_14  and  C_15 
REMARK       I    between atoms: C_15  and  N_17 
REMARK    3  A    between atoms: N_17  and  C_18 
REMARK    4  A    between atoms: C_18  and  C_19 
REMARK    5  A    between atoms: C_19  and  S_20 
ROOT
HETATM    1  C   UNK N   1      29.362  17.570   7.848  0.00  0.00     0.145 A 
HETATM    2  C   UNK N   1      30.743  17.563   7.909  0.00  0.00     0.034 A 
HETATM    3  C   UNK N   1      31.133  16.869   6.826  0.00  0.00     0.104 A 
HETATM    4  N   UNK N   1      30.079  16.455   6.120  0.00  0.00    -0.288 N 
HETATM    5  C   UNK N   1      30.095  15.694   4.884  0.00  0.00     0.178 C 
HETATM    6  N   UNK N   1      28.978  16.882   6.734  0.00  0.00    -0.293 N 
ATOM      7  HN  UNK N   1      28.018  16.723   6.427  1.00  0.00     0.187 HD
HETATM    8  S   UNK N   1      32.770  16.811   6.765  0.00  0.00    -0.065 SA
HETATM    9  C   UNK N   1      31.800  18.067   8.716  0.00  0.00     0.041 A 
HETATM   10  C   UNK N   1      33.061  17.707   8.164  0.00  0.00     0.075 A 
ENDROOT
BRANCH  10  11
HETATM   11  C   UNK N   1      34.419  18.075   8.643  0.00  0.00     0.258 C 
HETATM   12  O   UNK N   1      34.934  19.088   8.199  0.00  0.00    -0.267 OA
HETATM   13  N   UNK N   1      35.107  17.358   9.568  0.00  0.00    -0.356 N 
HETATM   14  H   UNK N   1      35.982  17.705   9.853  0.00  0.00     0.162 HD
BRANCH  13  15
HETATM   15  C   UNK N   1      34.656  16.127  10.166  0.00  0.00     0.133 C 
BRANCH  15  16
HETATM   16  C   UNK N   1      35.495  15.826  11.397  0.00  0.00     0.090 C 
BRANCH  16  17
HETATM   17  S   UNK N   1      35.222  14.111  11.943  0.00  0.00    -0.181 SA
HETATM   18  H   UNK N   1      34.966  13.751  13.229  0.00  0.00     0.101 HD
ENDBRANCH  16  17
ENDBRANCH  15  16
ENDBRANCH  13  15
ENDBRANCH  10  11
BRANCH   1  19
HETATM   19  C   UNK N   1      28.422  18.230   8.805  0.00  0.00     0.434 C 
HETATM   20  F   UNK N   1      27.767  19.269   8.172  0.00  0.00    -0.165 F 
HETATM   21  F   UNK N   1      27.494  17.307   9.250  0.00  0.00    -0.165 F 
HETATM   22  F   UNK N   1      29.119  18.727   9.891  0.00  0.00    -0.165 F 
ENDBRANCH   1  19
TORSDOF 5
ENDMDL
MODEL 3
REMARK VINA RESULT:      -5.7      4.850      5.948
REMARK  5 active torsions:
REMARK  status: ('A' for Active; 'I' for Inactive)
REMARK    1  A    between atoms: C_2  and  C_5 
REMARK    2  A    between atoms: C_14  and  C_15 
REMARK       I    between atoms: C_15  and  N_17 
REMARK    3  A    between atoms: N_17  and  C_18 
REMARK    4  A    between atoms: C_18  and  C_19 
REMARK    5  A    between atoms: C_19  and  S_20 
ROOT
HETATM    1  C   UNK N   1      31.219  16.849   4.804  0.00  0.00     0.145 A 
HETATM    2  C   UNK N   1      31.935  17.234   5.922  0.00  0.00     0.034 A 
HETATM    3  C   UNK N   1      31.018  17.335   6.901  0.00  0.00     0.104 A 
HETATM    4  N   UNK N   1      29.799  17.040   6.445  0.00  0.00    -0.288 N 
HETATM    5  C   UNK N   1      28.560  17.021   7.201  0.00  0.00     0.178 C 
HETATM    6  N   UNK N   1      29.905  16.734   5.154  0.00  0.00    -0.293 N 
ATOM      7  HN  UNK N   1      29.140  16.462   4.536  1.00  0.00     0.187 HD
HETATM    8  S   UNK N   1      31.750  17.763   8.304  0.00  0.00    -0.065 SA
HETATM    9  C   UNK N   1      33.272  17.509   6.318  0.00  0.00     0.041 A 
HETATM   10  C   UNK N   1      33.325  17.833   7.702  0.00  0.00     0.075 A 
ENDROOT
BRANCH  10  11
HETATM   11  C   UNK N   1      34.517  18.125   8.540  0.00  0.00     0.258 C 
HETATM   12  O   UNK N   1      35.096  19.186   8.373  0.00  0.00    -0.267 OA
HETATM   13  N   UNK N   1      34.979  17.285   9.502  0.00  0.00    -0.356 N 
HETATM   14  H   UNK N   1      35.751  17.586  10.034  0.00  0.00     0.162 HD
BRANCH  13  15
HETATM   15  C   UNK N   1      34.431  15.988   9.805  0.00  0.00     0.133 C 
BRANCH  15  16
HETATM   16  C   UNK N   1      35.238  14.918   9.089  0.00  0.00     0.090 C 
BRANCH  16  17
HETATM   17  S   UNK N   1      34.195  14.042   7.881  0.00  0.00    -0.181 SA
HETATM   18  H   UNK N   1      34.126  12.688   7.773  0.00  0.00     0.101 HD
ENDBRANCH  16  17
ENDBRANCH  15  16
ENDBRANCH  13  15
ENDBRANCH  10  11
BRANCH   1  19
HETATM   19  C   UNK N   1      31.763  16.572   3.439  0.00  0.00     0.434 C 
HETATM   20  F   UNK N   1      30.730  16.564   2.521  0.00  0.00    -0.165 F 
HETATM   21  F   UNK N   1      32.672  17.554   3.098  0.00  0.00    -0.165 F 
HETATM   22  F   UNK N   1      32.397  15.343   3.419  0.00  0.00    -0.165 F 
ENDBRANCH   1  19
TORSDOF 5
ENDMDL
MODEL 4
REMARK VINA RESULT:      -5.7      9.614     11.016
REMARK  5 active torsions:
REMARK  status: ('A' for Active; 'I' for Inactive)
REMARK    1  A    between atoms: C_2  and  C_5 
REMARK    2  A    between atoms: C_14  and  C_15 
REMARK       I    between atoms: C_15  and  N_17 
REMARK    3  A    between atoms: N_17  and  C_18 
REMARK    4  A    between atoms: C_18  and  C_19 
REMARK    5  A    between atoms: C_19  and  S_20 
ROOT
HETATM    1  C   UNK N   1      36.818  13.340  13.279  0.00  0.00     0.145 A 
HETATM    2  C   UNK N   1      36.437  14.177  12.246  0.00  0.00     0.034 A 
HETATM    3  C   UNK N   1      36.930  13.602  11.135  0.00  0.00     0.104 A 
HETATM    4  N   UNK N   1      37.584  12.477  11.431  0.00  0.00    -0.288 N 
HETATM    5  C   UNK N   1      38.238  11.572  10.503  0.00  0.00     0.178 C 
HETATM    6  N   UNK N   1      37.522  12.298  12.749  0.00  0.00    -0.293 N 
ATOM      7  HN  UNK N   1      37.929  11.521  13.270  1.00  0.00     0.187 HD
HETATM    8  S   UNK N   1      36.518  14.491   9.822  0.00  0.00    -0.065 SA
HETATM    9  C   UNK N   1      35.702  15.375  12.030  0.00  0.00     0.041 A 
HETATM   10  C   UNK N   1      35.657  15.687  10.643  0.00  0.00     0.075 A 
ENDROOT
BRANCH  10  11
HETATM   11  C   UNK N   1      34.948  16.806   9.968  0.00  0.00     0.258 C 
HETATM   12  O   UNK N   1      35.498  17.894   9.922  0.00  0.00    -0.267 OA
HETATM   13  N   UNK N   1      33.734  16.673   9.376  0.00  0.00    -0.356 N 
HETATM   14  H   UNK N   1      33.365  17.462   8.917  0.00  0.00     0.162 HD
BRANCH  13  15
HETATM   15  C   UNK N   1      32.942  15.470   9.367  0.00  0.00     0.133 C 
BRANCH  15  16
HETATM   16  C   UNK N   1      32.073  15.445   8.122  0.00  0.00     0.090 C 
BRANCH  16  17
HETATM   17  S   UNK N   1      31.457  17.117   7.748  0.00  0.00    -0.181 SA
HETATM   18  H   UNK N   1      31.624  18.192   8.565  0.00  0.00     0.101 HD
ENDBRANCH  16  17
ENDBRANCH  15  16
ENDBRANCH  13  15
ENDBRANCH  10  11
BRANCH   1  19
HETATM   19  C   UNK N   1      36.507  13.504  14.732  0.00  0.00     0.434 C 
HETATM   20  F   UNK N   1      37.087  14.668  15.202  0.00  0.00    -0.165 F 
HETATM   21  F   UNK N   1      35.138  13.572  14.905  0.00  0.00    -0.165 F 
HETATM   22  F   UNK N   1      37.000  12.430  15.449  0.00  0.00    -0.165 F 
ENDBRANCH   1  19
TORSDOF 5
ENDMDL
MODEL 5
REMARK VINA RESULT:      -5.5      8.112      9.793
REMARK  5 active torsions:
REMARK  status: ('A' for Active; 'I' for Inactive)
REMARK    1  A    between atoms: C_2  and  C_5 
REMARK    2  A    between atoms: C_14  and  C_15 
REMARK       I    between atoms: C_15  and  N_17 
REMARK    3  A    between atoms: N_17  and  C_18 
REMARK    4  A    between atoms: C_18  and  C_19 
REMARK    5  A    between atoms: C_19  and  S_20 
ROOT
HETATM    1  C   UNK N   1      20.694  19.180   2.406  0.00  0.00     0.145 A 
HETATM    2  C   UNK N   1      20.957  18.229   3.374  0.00  0.00     0.034 A 
HETATM    3  C   UNK N   1      20.645  17.055   2.798  0.00  0.00     0.104 A 
HETATM    4  N   UNK N   1      20.208  17.237   1.550  0.00  0.00    -0.288 N 
HETATM    5  C   UNK N   1      19.792  16.214   0.608  0.00  0.00     0.178 C 
HETATM    6  N   UNK N   1      20.235  18.542   1.290  0.00  0.00    -0.293 N 
ATOM      7  HN  UNK N   1      19.961  18.986   0.414  1.00  0.00     0.187 HD
HETATM    8  S   UNK N   1      20.943  15.828   3.844  0.00  0.00    -0.065 SA
HETATM    9  C   UNK N   1      21.455  18.136   4.702  0.00  0.00     0.041 A 
HETATM   10  C   UNK N   1      21.510  16.776   5.119  0.00  0.00     0.075 A 
ENDROOT
BRANCH  10  11
HETATM   11  C   UNK N   1      22.022  16.220   6.398  0.00  0.00     0.258 C 
HETATM   12  O   UNK N   1      23.203  15.921   6.468  0.00  0.00    -0.267 OA
HETATM   13  N   UNK N   1      21.251  16.053   7.503  0.00  0.00    -0.356 N 
HETATM   14  H   UNK N   1      21.691  15.717   8.317  0.00  0.00     0.162 HD
BRANCH  13  15
HETATM   15  C   UNK N   1      19.838  16.327   7.579  0.00  0.00     0.133 C 
BRANCH  15  16
HETATM   16  C   UNK N   1      19.572  17.293   8.721  0.00  0.00     0.090 C 
BRANCH  16  17
HETATM   17  S   UNK N   1      17.822  17.214   9.219  0.00  0.00    -0.181 SA
HETATM   18  H   UNK N   1      17.401  17.024  10.498  0.00  0.00     0.101 HD
ENDBRANCH  16  17
ENDBRANCH  15  16
ENDBRANCH  13  15
ENDBRANCH  10  11
BRANCH   1  19
HETATM   19  C   UNK N   1      20.891  20.658   2.519  0.00  0.00     0.434 C 
HETATM   20  F   UNK N   1      22.235  20.936   2.682  0.00  0.00    -0.165 F 
HETATM   21  F   UNK N   1      20.431  21.273   1.371  0.00  0.00    -0.165 F 
HETATM   22  F   UNK N   1      20.191  21.150   3.606  0.00  0.00    -0.165 F 
ENDBRANCH   1  19
TORSDOF 5
ENDMDL
MODEL 6
REMARK VINA RESULT:      -5.4      4.364      6.452
REMARK  5 active torsions:
REMARK  status: ('A' for Active; 'I' for Inactive)
REMARK    1  A    between atoms: C_2  and  C_5 
REMARK    2  A    between atoms: C_14  and  C_15 
REMARK       I    between atoms: C_15  and  N_17 
REMARK    3  A    between atoms: N_17  and  C_18 
REMARK    4  A    between atoms: C_18  and  C_19 
REMARK    5  A    between atoms: C_19  and  S_20 
ROOT
HETATM    1  C   UNK N   1      32.906  16.869   7.321  0.00  0.00     0.145 A 
HETATM    2  C   UNK N   1      31.558  17.139   7.473  0.00  0.00     0.034 A 
HETATM    3  C   UNK N   1      30.955  16.450   6.488  0.00  0.00     0.104 A 
HETATM    4  N   UNK N   1      31.850  15.787   5.753  0.00  0.00    -0.288 N 
HETATM    5  C   UNK N   1      31.584  14.925   4.616  0.00  0.00     0.178 C 
HETATM    6  N   UNK N   1      33.058  16.032   6.254  0.00  0.00    -0.293 N 
ATOM      7  HN  UNK N   1      33.941  15.660   5.904  1.00  0.00     0.187 HD
HETATM    8  S   UNK N   1      29.332  16.664   6.576  0.00  0.00    -0.065 SA
HETATM    9  C   UNK N   1      30.682  17.863   8.327  0.00  0.00     0.041 A 
HETATM   10  C   UNK N   1      29.329  17.676   7.926  0.00  0.00     0.075 A 
ENDROOT
BRANCH  10  11
HETATM   11  C   UNK N   1      28.093  18.192   8.569  0.00  0.00     0.258 C 
HETATM   12  O   UNK N   1      27.686  17.630   9.573  0.00  0.00    -0.267 OA
HETATM   13  N   UNK N   1      27.409  19.274   8.117  0.00  0.00    -0.356 N 
HETATM   14  H   UNK N   1      26.626  19.565   8.636  0.00  0.00     0.162 HD
BRANCH  13  15
HETATM   15  C   UNK N   1      27.739  20.029   6.935  0.00  0.00     0.133 C 
BRANCH  15  16
HETATM   16  C   UNK N   1      26.492  20.209   6.086  0.00  0.00     0.090 C 
BRANCH  16  17
HETATM   17  S   UNK N   1      26.934  20.286   4.322  0.00  0.00    -0.181 SA
HETATM   18  H   UNK N   1      28.049  19.718   3.789  0.00  0.00     0.101 HD
ENDBRANCH  16  17
ENDBRANCH  15  16
ENDBRANCH  13  15
ENDBRANCH  10  11
BRANCH   1  19
HETATM   19  C   UNK N   1      34.026  17.371   8.175  0.00  0.00     0.434 C 
HETATM   20  F   UNK N   1      33.713  17.183   9.508  0.00  0.00    -0.165 F 
HETATM   21  F   UNK N   1      35.181  16.676   7.873  0.00  0.00    -0.165 F 
HETATM   22  F   UNK N   1      34.235  18.718   7.943  0.00  0.00    -0.165 F 
ENDBRANCH   1  19
TORSDOF 5
ENDMDL
MODEL 7
REMARK VINA RESULT:      -5.4      3.255      4.663
REMARK  5 active torsions:
REMARK  status: ('A' for Active; 'I' for Inactive)
REMARK    1  A    between atoms: C_2  and  C_5 
REMARK    2  A    between atoms: C_14  and  C_15 
REMARK       I    between atoms: C_15  and  N_17 
REMARK    3  A    between atoms: N_17  and  C_18 
REMARK    4  A    between atoms: C_18  and  C_19 
REMARK    5  A    between atoms: C_19  and  S_20 
ROOT
HETATM    1  C   UNK N   1      30.219  17.555   8.757  0.00  0.00     0.145 A 
HETATM    2  C   UNK N   1      29.885  17.555   7.415  0.00  0.00     0.034 A 
HETATM    3  C   UNK N   1      30.995  17.139   6.782  0.00  0.00     0.104 A 
HETATM    4  N   UNK N   1      31.976  16.891   7.653  0.00  0.00    -0.288 N 
HETATM    5  C   UNK N   1      33.314  16.413   7.354  0.00  0.00     0.178 C 
HETATM    6  N   UNK N   1      31.514  17.139   8.876  0.00  0.00    -0.293 N 
ATOM      7  HN  UNK N   1      32.034  17.037   9.747  1.00  0.00     0.187 HD
HETATM    8  S   UNK N   1      30.719  17.067   5.168  0.00  0.00    -0.065 SA
HETATM    9  C   UNK N   1      28.773  17.824   6.570  0.00  0.00     0.041 A 
HETATM   10  C   UNK N   1      29.111  17.576   5.210  0.00  0.00     0.075 A 
ENDROOT
BRANCH  10  11
HETATM   11  C   UNK N   1      28.240  17.665   4.009  0.00  0.00     0.258 C 
HETATM   12  O   UNK N   1      28.089  16.663   3.329  0.00  0.00    -0.267 OA
HETATM   13  N   UNK N   1      27.582  18.795   3.644  0.00  0.00    -0.356 N 
HETATM   14  H   UNK N   1      26.994  18.743   2.856  0.00  0.00     0.162 HD
BRANCH  13  15
HETATM   15  C   UNK N   1      27.676  20.065   4.318  0.00  0.00     0.133 C 
BRANCH  15  16
HETATM   16  C   UNK N   1      26.357  20.370   5.007  0.00  0.00     0.090 C 
BRANCH  16  17
HETATM   17  S   UNK N   1      26.650  21.278   6.558  0.00  0.00    -0.181 SA
HETATM   18  H   UNK N   1      27.850  21.809   6.916  0.00  0.00     0.101 HD
ENDBRANCH  16  17
ENDBRANCH  15  16
ENDBRANCH  13  15
ENDBRANCH  10  11
BRANCH   1  19
HETATM   19  C   UNK N   1      29.333  17.915   9.905  0.00  0.00     0.434 C 
HETATM   20  F   UNK N   1      28.047  18.131   9.449  0.00  0.00    -0.165 F 
HETATM   21  F   UNK N   1      29.327  16.883  10.824  0.00  0.00    -0.165 F 
HETATM   22  F   UNK N   1      29.796  19.064  10.521  0.00  0.00    -0.165 F 
ENDBRANCH   1  19
TORSDOF 5
ENDMDL
MODEL 8
REMARK VINA RESULT:      -5.2      3.831      5.107
REMARK  5 active torsions:
REMARK  status: ('A' for Active; 'I' for Inactive)
REMARK    1  A    between atoms: C_2  and  C_5 
REMARK    2  A    between atoms: C_14  and  C_15 
REMARK       I    between atoms: C_15  and  N_17 
REMARK    3  A    between atoms: N_17  and  C_18 
REMARK    4  A    between atoms: C_18  and  C_19 
REMARK    5  A    between atoms: C_19  and  S_20 
ROOT
HETATM    1  C   UNK N   1      31.857  17.427   7.795  0.00  0.00     0.145 A 
HETATM    2  C   UNK N   1      30.759  17.382   6.956  0.00  0.00     0.034 A 
HETATM    3  C   UNK N   1      29.704  17.231   7.776  0.00  0.00     0.104 A 
HETATM    4  N   UNK N   1      30.095  17.178   9.052  0.00  0.00    -0.288 N 
HETATM    5  C   UNK N   1      29.250  17.037  10.223  0.00  0.00     0.178 C 
HETATM    6  N   UNK N   1      31.420  17.301   9.082  0.00  0.00    -0.293 N 
ATOM      7  HN  UNK N   1      32.005  17.301   9.918  1.00  0.00     0.187 HD
HETATM    8  S   UNK N   1      28.321  17.191   6.898  0.00  0.00    -0.065 SA
HETATM    9  C   UNK N   1      30.441  17.471   5.574  0.00  0.00     0.041 A 
HETATM   10  C   UNK N   1      29.034  17.380   5.381  0.00  0.00     0.075 A 
ENDROOT
BRANCH  10  11
HETATM   11  C   UNK N   1      28.264  17.488   4.114  0.00  0.00     0.258 C 
HETATM   12  O   UNK N   1      28.105  16.479   3.446  0.00  0.00    -0.267 OA
HETATM   13  N   UNK N   1      27.705  18.644   3.674  0.00  0.00    -0.356 N 
HETATM   14  H   UNK N   1      27.177  18.606   2.844  0.00  0.00     0.162 HD
BRANCH  13  15
HETATM   15  C   UNK N   1      27.824  19.924   4.326  0.00  0.00     0.133 C 
BRANCH  15  16
HETATM   16  C   UNK N   1      26.516  20.261   5.020  0.00  0.00     0.090 C 
BRANCH  16  17
HETATM   17  S   UNK N   1      26.828  21.277   6.498  0.00  0.00    -0.181 SA
HETATM   18  H   UNK N   1      27.875  22.136   6.626  0.00  0.00     0.101 HD
ENDBRANCH  16  17
ENDBRANCH  15  16
ENDBRANCH  13  15
ENDBRANCH  10  11
BRANCH   1  19
HETATM   19  C   UNK N   1      33.287  17.608   7.397  0.00  0.00     0.434 C 
HETATM   20  F   UNK N   1      33.360  17.898   6.048  0.00  0.00    -0.165 F 
HETATM   21  F   UNK N   1      33.839  18.648   8.120  0.00  0.00    -0.165 F 
HETATM   22  F   UNK N   1      34.002  16.452   7.652  0.00  0.00    -0.165 F 
ENDBRANCH   1  19
TORSDOF 5
ENDMDL
MODEL 9
REMARK VINA RESULT:      -5.1      8.578     10.254
REMARK  5 active torsions:
REMARK  status: ('A' for Active; 'I' for Inactive)
REMARK    1  A    between atoms: C_2  and  C_5 
REMARK    2  A    between atoms: C_14  and  C_15 
REMARK       I    between atoms: C_15  and  N_17 
REMARK    3  A    between atoms: N_17  and  C_18 
REMARK    4  A    between atoms: C_18  and  C_19 
REMARK    5  A    between atoms: C_19  and  S_20 
ROOT
HETATM    1  C   UNK N   1      20.388  17.043   1.768  0.00  0.00     0.145 A 
HETATM    2  C   UNK N   1      20.929  16.982   3.040  0.00  0.00     0.034 A 
HETATM    3  C   UNK N   1      21.066  18.265   3.418  0.00  0.00     0.104 A 
HETATM    4  N   UNK N   1      20.649  19.093   2.458  0.00  0.00    -0.288 N 
HETATM    5  C   UNK N   1      20.625  20.544   2.500  0.00  0.00     0.178 C 
HETATM    6  N   UNK N   1      20.223  18.357   1.434  0.00  0.00    -0.293 N 
ATOM      7  HN  UNK N   1      19.843  18.710   0.557  1.00  0.00     0.187 HD
HETATM    8  S   UNK N   1      21.678  18.332   4.937  0.00  0.00    -0.065 SA
HETATM    9  C   UNK N   1      21.328  16.022   4.008  0.00  0.00     0.041 A 
HETATM   10  C   UNK N   1      21.790  16.668   5.189  0.00  0.00     0.075 A 
ENDROOT
BRANCH  10  11
HETATM   11  C   UNK N   1      22.240  16.053   6.465  0.00  0.00     0.258 C 
HETATM   12  O   UNK N   1      23.410  15.720   6.565  0.00  0.00    -0.267 OA
HETATM   13  N   UNK N   1      21.425  15.868   7.535  0.00  0.00    -0.356 N 
HETATM   14  H   UNK N   1      21.827  15.492   8.351  0.00  0.00     0.162 HD
BRANCH  13  15
HETATM   15  C   UNK N   1      20.019  16.178   7.570  0.00  0.00     0.133 C 
BRANCH  15  16
HETATM   16  C   UNK N   1      19.759  17.229   8.635  0.00  0.00     0.090 C 
BRANCH  16  17
HETATM   17  S   UNK N   1      18.007  17.207   9.131  0.00  0.00    -0.181 SA
HETATM   18  H   UNK N   1      17.251  16.079   9.210  0.00  0.00     0.101 HD
ENDBRANCH  16  17
ENDBRANCH  15  16
ENDBRANCH  13  15
ENDBRANCH  10  11
BRANCH   1  19
HETATM   19  C   UNK N   1      20.013  15.891   0.894  0.00  0.00     0.434 C 
HETATM   20  F   UNK N   1      21.148  15.180   0.551  0.00  0.00    -0.165 F 
HETATM   21  F   UNK N   1      19.141  15.062   1.573  0.00  0.00    -0.165 F 
HETATM   22  F   UNK N   1      19.398  16.347  -0.258  0.00  0.00    -0.165 F 
ENDBRANCH   1  19
TORSDOF 5
ENDMDL
