MODEL 1
REMARK VINA RESULT:      -5.6      0.000      0.000
REMARK  7 active torsions:
REMARK  status: ('A' for Active; 'I' for Inactive)
REMARK    1  A    between atoms: C_4  and  C_7 
REMARK    2  A    between atoms: C_7  and  N_18 
REMARK    3  A    between atoms: C_10  and  C_12 
REMARK    4  A    between atoms: C_10  and  S_16 
REMARK    5  A    between atoms: C_11  and  C_12 
REMARK    6  A    between atoms: C_11  and  C_13 
REMARK       I    between atoms: C_13  and  N_17 
REMARK    7  A    between atoms: C_14  and  N_17 
ROOT
HETATM    1  C   UNK N   1      35.680  15.069  12.068  0.00  0.00     0.275 C 
HETATM    2  C   UNK N   1      34.720  15.663  11.047  0.00  0.00     0.055 C 
HETATM    3  C   UNK N   1      36.723  13.670  10.454  0.00  0.00     0.275 C 
HETATM    4  C   UNK N   1      35.863  14.248   9.328  0.00  0.00     0.055 C 
HETATM    5  C   UNK N   1      35.427  15.668   9.702  0.00  0.00     0.087 C 
HETATM    6  N   UNK N   1      35.973  13.678  11.711  0.00  0.00     0.092 N 
ENDROOT
BRANCH   5   7
HETATM    7  N   UNK N   1      34.567  16.234   8.690  0.00  0.00    -0.356 N 
HETATM    8  C   UNK N   1      34.535  17.569   8.455  0.00  0.00     0.217 C 
HETATM    9  O   UNK N   1      35.243  18.325   9.106  0.00  0.00    -0.274 OA
HETATM   10  H   UNK N   1      33.990  15.639   8.159  0.00  0.00     0.162 HD
BRANCH   8  11
HETATM   11  C   UNK N   1      33.605  18.111   7.408  0.00  0.00     0.103 C 
BRANCH  11  12
HETATM   12  C   UNK N   1      33.728  17.334   6.106  0.00  0.00     0.019 C 
BRANCH  12  13
HETATM   13  C   UNK N   1      32.365  16.989   5.553  0.00  0.00     0.071 C 
BRANCH  13  14
HETATM   14  S   UNK N   1      31.920  15.325   6.119  0.00  0.00    -0.182 SA
HETATM   15  H   UNK N   1      32.446  14.821   7.268  0.00  0.00     0.101 HD
ENDBRANCH  13  14
ENDBRANCH  12  13
ENDBRANCH  11  12
ENDBRANCH   8  11
ENDBRANCH   5   7
BRANCH   6  16
HETATM   16  C   UNK N   1      36.833  13.096  12.738  0.00  0.00     0.311 C 
BRANCH  16  17
HETATM   17  C   UNK N   1      36.164  12.997  14.086  0.00  0.00    -0.030 A 
HETATM   18  C   UNK N   1      36.724  13.680  15.170  0.00  0.00     0.009 A 
HETATM   19  C   UNK N   1      36.112  13.628  16.426  0.00  0.00     0.001 A 
HETATM   20  C   UNK N   1      34.934  12.897  16.603  0.00  0.00     0.000 A 
HETATM   21  C   UNK N   1      34.371  12.209  15.526  0.00  0.00     0.001 A 
HETATM   22  C   UNK N   1      34.985  12.256  14.272  0.00  0.00     0.009 A 
ENDBRANCH  16  17
ENDBRANCH   6  16
TORSDOF 7
ENDMDL
MODEL 2
REMARK VINA RESULT:      -5.5     16.101     19.261
REMARK  7 active torsions:
REMARK  status: ('A' for Active; 'I' for Inactive)
REMARK    1  A    between atoms: C_4  and  C_7 
REMARK    2  A    between atoms: C_7  and  N_18 
REMARK    3  A    between atoms: C_10  and  C_12 
REMARK    4  A    between atoms: C_10  and  S_16 
REMARK    5  A    between atoms: C_11  and  C_12 
REMARK    6  A    between atoms: C_11  and  C_13 
REMARK       I    between atoms: C_13  and  N_17 
REMARK    7  A    between atoms: C_14  and  N_17 
ROOT
HETATM    1  C   UNK N   1      29.668  24.763  -3.585  0.00  0.00     0.275 C 
HETATM    2  C   UNK N   1      30.818  24.020  -4.249  0.00  0.00     0.055 C 
HETATM    3  C   UNK N   1      28.863  22.801  -2.510  0.00  0.00     0.275 C 
HETATM    4  C   UNK N   1      30.022  21.967  -3.060  0.00  0.00     0.055 C 
HETATM    5  C   UNK N   1      31.221  22.881  -3.328  0.00  0.00     0.087 C 
HETATM    6  N   UNK N   1      28.517  23.863  -3.455  0.00  0.00     0.092 N 
ENDROOT
BRANCH   5   7
HETATM    7  N   UNK N   1      32.323  22.143  -3.900  0.00  0.00    -0.356 N 
HETATM    8  C   UNK N   1      33.133  21.374  -3.132  0.00  0.00     0.217 C 
HETATM    9  O   UNK N   1      32.942  21.292  -1.927  0.00  0.00    -0.274 OA
HETATM   10  H   UNK N   1      32.491  22.200  -4.868  0.00  0.00     0.162 HD
BRANCH   8  11
HETATM   11  C   UNK N   1      34.281  20.647  -3.772  0.00  0.00     0.103 C 
BRANCH  11  12
HETATM   12  C   UNK N   1      33.790  19.502  -4.645  0.00  0.00     0.019 C 
BRANCH  12  13
HETATM   13  C   UNK N   1      34.218  18.170  -4.078  0.00  0.00     0.071 C 
BRANCH  13  14
HETATM   14  S   UNK N   1      35.316  17.363  -5.275  0.00  0.00    -0.182 SA
HETATM   15  H   UNK N   1      34.893  17.118  -6.545  0.00  0.00     0.101 HD
ENDBRANCH  13  14
ENDBRANCH  12  13
ENDBRANCH  11  12
ENDBRANCH   8  11
ENDBRANCH   5   7
BRANCH   6  16
HETATM   16  C   UNK N   1      27.395  24.608  -2.888  0.00  0.00     0.311 C 
BRANCH  16  17
HETATM   17  C   UNK N   1      26.627  25.397  -3.917  0.00  0.00    -0.030 A 
HETATM   18  C   UNK N   1      26.256  24.772  -5.111  0.00  0.00     0.009 A 
HETATM   19  C   UNK N   1      25.520  25.471  -6.073  0.00  0.00     0.001 A 
HETATM   20  C   UNK N   1      25.148  26.799  -5.843  0.00  0.00     0.000 A 
HETATM   21  C   UNK N   1      25.517  27.431  -4.655  0.00  0.00     0.001 A 
HETATM   22  C   UNK N   1      26.257  26.735  -3.696  0.00  0.00     0.009 A 
ENDBRANCH  16  17
ENDBRANCH   6  16
TORSDOF 7
ENDMDL
MODEL 3
REMARK VINA RESULT:      -5.5      1.243      1.448
REMARK  7 active torsions:
REMARK  status: ('A' for Active; 'I' for Inactive)
REMARK    1  A    between atoms: C_4  and  C_7 
REMARK    2  A    between atoms: C_7  and  N_18 
REMARK    3  A    between atoms: C_10  and  C_12 
REMARK    4  A    between atoms: C_10  and  S_16 
REMARK    5  A    between atoms: C_11  and  C_12 
REMARK    6  A    between atoms: C_11  and  C_13 
REMARK       I    between atoms: C_13  and  N_17 
REMARK    7  A    between atoms: C_14  and  N_17 
ROOT
HETATM    1  C   UNK N   1      35.543  14.350  12.314  0.00  0.00     0.275 C 
HETATM    2  C   UNK N   1      34.649  15.018  11.279  0.00  0.00     0.055 C 
HETATM    3  C   UNK N   1      36.970  13.418  10.657  0.00  0.00     0.275 C 
HETATM    4  C   UNK N   1      36.190  14.103   9.532  0.00  0.00     0.055 C 
HETATM    5  C   UNK N   1      35.515  15.364  10.079  0.00  0.00     0.087 C 
HETATM    6  N   UNK N   1      36.072  13.097  11.766  0.00  0.00     0.092 N 
ENDROOT
BRANCH   5   7
HETATM    7  N   UNK N   1      34.722  16.015   9.064  0.00  0.00    -0.356 N 
HETATM    8  C   UNK N   1      34.728  17.364   8.918  0.00  0.00     0.217 C 
HETATM    9  O   UNK N   1      35.413  18.058   9.655  0.00  0.00    -0.274 OA
HETATM   10  H   UNK N   1      34.163  15.470   8.464  0.00  0.00     0.162 HD
BRANCH   8  11
HETATM   11  C   UNK N   1      33.865  17.994   7.863  0.00  0.00     0.103 C 
BRANCH  11  12
HETATM   12  C   UNK N   1      32.395  17.947   8.252  0.00  0.00     0.019 C 
BRANCH  12  13
HETATM   13  C   UNK N   1      31.648  16.933   7.419  0.00  0.00     0.071 C 
BRANCH  13  14
HETATM   14  S   UNK N   1      32.212  17.073   5.701  0.00  0.00    -0.182 SA
HETATM   15  H   UNK N   1      32.393  15.961   4.940  0.00  0.00     0.101 HD
ENDBRANCH  13  14
ENDBRANCH  12  13
ENDBRANCH  11  12
ENDBRANCH   8  11
ENDBRANCH   5   7
BRANCH   6  16
HETATM   16  C   UNK N   1      36.865  12.428  12.793  0.00  0.00     0.311 C 
BRANCH  16  17
HETATM   17  C   UNK N   1      36.024  11.736  13.836  0.00  0.00    -0.030 A 
HETATM   18  C   UNK N   1      36.317  11.941  15.187  0.00  0.00     0.009 A 
HETATM   19  C   UNK N   1      35.539  11.333  16.177  0.00  0.00     0.001 A 
HETATM   20  C   UNK N   1      34.459  10.520  15.820  0.00  0.00     0.000 A 
HETATM   21  C   UNK N   1      34.162  10.308  14.472  0.00  0.00     0.001 A 
HETATM   22  C   UNK N   1      34.942  10.910  13.483  0.00  0.00     0.009 A 
ENDBRANCH  16  17
ENDBRANCH   6  16
TORSDOF 7
ENDMDL
MODEL 4
REMARK VINA RESULT:      -5.4      4.683     10.165
REMARK  7 active torsions:
REMARK  status: ('A' for Active; 'I' for Inactive)
REMARK    1  A    between atoms: C_4  and  C_7 
REMARK    2  A    between atoms: C_7  and  N_18 
REMARK    3  A    between atoms: C_10  and  C_12 
REMARK    4  A    between atoms: C_10  and  S_16 
REMARK    5  A    between atoms: C_11  and  C_12 
REMARK    6  A    between atoms: C_11  and  C_13 
REMARK       I    between atoms: C_13  and  N_17 
REMARK    7  A    between atoms: C_14  and  N_17 
ROOT
HETATM    1  C   UNK N   1      28.967  17.688   8.350  0.00  0.00     0.275 C 
HETATM    2  C   UNK N   1      30.327  18.134   8.864  0.00  0.00     0.055 C 
HETATM    3  C   UNK N   1      29.884  16.771   6.358  0.00  0.00     0.275 C 
HETATM    4  C   UNK N   1      31.309  17.103   6.805  0.00  0.00     0.055 C 
HETATM    5  C   UNK N   1      31.361  17.154   8.335  0.00  0.00     0.087 C 
HETATM    6  N   UNK N   1      28.949  17.764   6.886  0.00  0.00     0.092 N 
ENDROOT
BRANCH   5   7
HETATM    7  N   UNK N   1      32.678  17.518   8.802  0.00  0.00    -0.356 N 
HETATM    8  C   UNK N   1      33.589  16.577   9.155  0.00  0.00     0.217 C 
HETATM    9  O   UNK N   1      33.305  15.390   9.084  0.00  0.00    -0.274 OA
HETATM   10  H   UNK N   1      32.921  18.470   8.866  0.00  0.00     0.162 HD
BRANCH   8  11
HETATM   11  C   UNK N   1      34.936  17.010   9.659  0.00  0.00     0.103 C 
BRANCH  11  12
HETATM   12  C   UNK N   1      35.316  16.261  10.927  0.00  0.00     0.019 C 
BRANCH  12  13
HETATM   13  C   UNK N   1      36.450  15.298  10.666  0.00  0.00     0.071 C 
BRANCH  13  14
HETATM   14  S   UNK N   1      36.292  13.901  11.811  0.00  0.00    -0.182 SA
HETATM   15  H   UNK N   1      37.013  13.867  12.964  0.00  0.00     0.101 HD
ENDBRANCH  13  14
ENDBRANCH  12  13
ENDBRANCH  11  12
ENDBRANCH   8  11
ENDBRANCH   5   7
BRANCH   6  16
HETATM   16  C   UNK N   1      27.615  17.408   6.409  0.00  0.00     0.311 C 
BRANCH  16  17
HETATM   17  C   UNK N   1      27.070  18.378   5.391  0.00  0.00    -0.030 A 
HETATM   18  C   UNK N   1      27.498  19.708   5.428  0.00  0.00     0.009 A 
HETATM   19  C   UNK N   1      27.030  20.625   4.481  0.00  0.00     0.001 A 
HETATM   20  C   UNK N   1      26.136  20.214   3.489  0.00  0.00     0.000 A 
HETATM   21  C   UNK N   1      25.702  18.887   3.447  0.00  0.00     0.001 A 
HETATM   22  C   UNK N   1      26.164  17.973   4.396  0.00  0.00     0.009 A 
ENDBRANCH  16  17
ENDBRANCH   6  16
TORSDOF 7
ENDMDL
MODEL 5
REMARK VINA RESULT:      -5.4      1.704      2.195
REMARK  7 active torsions:
REMARK  status: ('A' for Active; 'I' for Inactive)
REMARK    1  A    between atoms: C_4  and  C_7 
REMARK    2  A    between atoms: C_7  and  N_18 
REMARK    3  A    between atoms: C_10  and  C_12 
REMARK    4  A    between atoms: C_10  and  S_16 
REMARK    5  A    between atoms: C_11  and  C_12 
REMARK    6  A    between atoms: C_11  and  C_13 
REMARK       I    between atoms: C_13  and  N_17 
REMARK    7  A    between atoms: C_14  and  N_17 
ROOT
HETATM    1  C   UNK N   1      34.570  15.124  10.819  0.00  0.00     0.275 C 
HETATM    2  C   UNK N   1      33.776  15.455   9.565  0.00  0.00     0.055 C 
HETATM    3  C   UNK N   1      36.215  13.913   9.605  0.00  0.00     0.275 C 
HETATM    4  C   UNK N   1      35.544  14.247   8.271  0.00  0.00     0.055 C 
HETATM    5  C   UNK N   1      34.760  15.554   8.411  0.00  0.00     0.087 C 
HETATM    6  N   UNK N   1      35.208  13.814  10.661  0.00  0.00     0.092 N 
ENDROOT
BRANCH   5   7
HETATM    7  N   UNK N   1      34.064  15.881   7.188  0.00  0.00    -0.356 N 
HETATM    8  C   UNK N   1      34.054  17.144   6.696  0.00  0.00     0.217 C 
HETATM    9  O   UNK N   1      34.641  18.039   7.288  0.00  0.00    -0.274 OA
HETATM   10  H   UNK N   1      33.585  15.172   6.702  0.00  0.00     0.162 HD
BRANCH   8  11
HETATM   11  C   UNK N   1      33.294  17.437   5.434  0.00  0.00     0.103 C 
BRANCH  11  12
HETATM   12  C   UNK N   1      32.750  16.160   4.811  0.00  0.00     0.019 C 
BRANCH  12  13
HETATM   13  C   UNK N   1      33.376  15.911   3.459  0.00  0.00     0.071 C 
BRANCH  13  14
HETATM   14  S   UNK N   1      34.216  14.304   3.503  0.00  0.00    -0.182 SA
HETATM   15  H   UNK N   1      34.810  13.804   2.386  0.00  0.00     0.101 HD
ENDBRANCH  13  14
ENDBRANCH  12  13
ENDBRANCH  11  12
ENDBRANCH   8  11
ENDBRANCH   5   7
BRANCH   6  16
HETATM   16  C   UNK N   1      35.904  13.473  11.900  0.00  0.00     0.311 C 
BRANCH  16  17
HETATM   17  C   UNK N   1      35.164  12.460  12.736  0.00  0.00    -0.030 A 
HETATM   18  C   UNK N   1      34.975  12.715  14.097  0.00  0.00     0.009 A 
HETATM   19  C   UNK N   1      34.271  11.805  14.893  0.00  0.00     0.001 A 
HETATM   20  C   UNK N   1      33.749  10.638  14.329  0.00  0.00     0.000 A 
HETATM   21  C   UNK N   1      33.936  10.375  12.971  0.00  0.00     0.001 A 
HETATM   22  C   UNK N   1      34.644  11.280  12.177  0.00  0.00     0.009 A 
ENDBRANCH  16  17
ENDBRANCH   6  16
TORSDOF 7
ENDMDL
MODEL 6
REMARK VINA RESULT:      -5.4      3.429      8.103
REMARK  7 active torsions:
REMARK  status: ('A' for Active; 'I' for Inactive)
REMARK    1  A    between atoms: C_4  and  C_7 
REMARK    2  A    between atoms: C_7  and  N_18 
REMARK    3  A    between atoms: C_10  and  C_12 
REMARK    4  A    between atoms: C_10  and  S_16 
REMARK    5  A    between atoms: C_11  and  C_12 
REMARK    6  A    between atoms: C_11  and  C_13 
REMARK       I    between atoms: C_13  and  N_17 
REMARK    7  A    between atoms: C_14  and  N_17 
ROOT
HETATM    1  C   UNK N   1      33.375  15.307   9.149  0.00  0.00     0.275 C 
HETATM    2  C   UNK N   1      33.735  14.766  10.525  0.00  0.00     0.055 C 
HETATM    3  C   UNK N   1      34.864  17.149   9.349  0.00  0.00     0.275 C 
HETATM    4  C   UNK N   1      35.361  16.660  10.711  0.00  0.00     0.055 C 
HETATM    5  C   UNK N   1      35.182  15.142  10.801  0.00  0.00     0.087 C 
HETATM    6  N   UNK N   1      33.463  16.770   9.161  0.00  0.00     0.092 N 
ENDROOT
BRANCH   5   7
HETATM    7  N   UNK N   1      35.588  14.643  12.094  0.00  0.00    -0.356 N 
HETATM    8  C   UNK N   1      36.383  13.551  12.212  0.00  0.00     0.217 C 
HETATM    9  O   UNK N   1      36.773  12.964  11.213  0.00  0.00    -0.274 OA
HETATM   10  H   UNK N   1      35.281  15.104  12.907  0.00  0.00     0.162 HD
BRANCH   8  11
HETATM   11  C   UNK N   1      36.757  13.057  13.580  0.00  0.00     0.103 C 
BRANCH  11  12
HETATM   12  C   UNK N   1      35.595  13.198  14.553  0.00  0.00     0.019 C 
BRANCH  12  13
HETATM   13  C   UNK N   1      36.085  13.610  15.921  0.00  0.00     0.071 C 
BRANCH  13  14
HETATM   14  S   UNK N   1      37.152  15.065  15.735  0.00  0.00    -0.182 SA
HETATM   15  H   UNK N   1      38.475  14.995  16.042  0.00  0.00     0.101 HD
ENDBRANCH  13  14
ENDBRANCH  12  13
ENDBRANCH  11  12
ENDBRANCH   8  11
ENDBRANCH   5   7
BRANCH   6  16
HETATM   16  C   UNK N   1      33.041  17.281   7.859  0.00  0.00     0.311 C 
BRANCH  16  17
HETATM   17  C   UNK N   1      31.559  17.541   7.776  0.00  0.00    -0.030 A 
HETATM   18  C   UNK N   1      30.853  17.078   6.661  0.00  0.00     0.009 A 
HETATM   19  C   UNK N   1      29.473  17.282   6.567  0.00  0.00     0.001 A 
HETATM   20  C   UNK N   1      28.790  17.944   7.592  0.00  0.00     0.000 A 
HETATM   21  C   UNK N   1      29.489  18.412   8.707  0.00  0.00     0.001 A 
HETATM   22  C   UNK N   1      30.868  18.214   8.798  0.00  0.00     0.009 A 
ENDBRANCH  16  17
ENDBRANCH   6  16
TORSDOF 7
ENDMDL
MODEL 7
REMARK VINA RESULT:      -5.4      1.768      2.217
REMARK  7 active torsions:
REMARK  status: ('A' for Active; 'I' for Inactive)
REMARK    1  A    between atoms: C_4  and  C_7 
REMARK    2  A    between atoms: C_7  and  N_18 
REMARK    3  A    between atoms: C_10  and  C_12 
REMARK    4  A    between atoms: C_10  and  S_16 
REMARK    5  A    between atoms: C_11  and  C_12 
REMARK    6  A    between atoms: C_11  and  C_13 
REMARK       I    between atoms: C_13  and  N_17 
REMARK    7  A    between atoms: C_14  and  N_17 
ROOT
HETATM    1  C   UNK N   1      36.078  14.727  12.635  0.00  0.00     0.275 C 
HETATM    2  C   UNK N   1      35.060  15.216  11.616  0.00  0.00     0.055 C 
HETATM    3  C   UNK N   1      35.780  12.450  12.021  0.00  0.00     0.275 C 
HETATM    4  C   UNK N   1      34.796  12.829  10.912  0.00  0.00     0.055 C 
HETATM    5  C   UNK N   1      35.091  14.255  10.439  0.00  0.00     0.087 C 
HETATM    6  N   UNK N   1      35.681  13.404  13.126  0.00  0.00     0.092 N 
ENDROOT
BRANCH   5   7
HETATM    7  N   UNK N   1      34.150  14.675   9.428  0.00  0.00    -0.356 N 
HETATM    8  C   UNK N   1      34.546  14.933   8.157  0.00  0.00     0.217 C 
HETATM    9  O   UNK N   1      35.722  14.812   7.843  0.00  0.00    -0.274 OA
HETATM   10  H   UNK N   1      33.200  14.779   9.665  0.00  0.00     0.162 HD
BRANCH   8  11
HETATM   11  C   UNK N   1      33.532  15.392   7.148  0.00  0.00     0.103 C 
BRANCH  11  12
HETATM   12  C   UNK N   1      33.915  16.739   6.556  0.00  0.00     0.019 C 
BRANCH  12  13
HETATM   13  C   UNK N   1      33.808  17.834   7.591  0.00  0.00     0.071 C 
BRANCH  13  14
HETATM   14  S   UNK N   1      32.146  17.782   8.313  0.00  0.00    -0.182 SA
HETATM   15  H   UNK N   1      31.179  16.996   7.766  0.00  0.00     0.101 HD
ENDBRANCH  13  14
ENDBRANCH  12  13
ENDBRANCH  11  12
ENDBRANCH   8  11
ENDBRANCH   5   7
BRANCH   6  16
HETATM   16  C   UNK N   1      36.623  12.979  14.159  0.00  0.00     0.311 C 
BRANCH  16  17
HETATM   17  C   UNK N   1      36.398  13.661  15.484  0.00  0.00    -0.030 A 
HETATM   18  C   UNK N   1      37.142  14.804  15.791  0.00  0.00     0.009 A 
HETATM   19  C   UNK N   1      36.938  15.473  17.002  0.00  0.00     0.001 A 
HETATM   20  C   UNK N   1      35.983  15.005  17.910  0.00  0.00     0.000 A 
HETATM   21  C   UNK N   1      35.238  13.862  17.612  0.00  0.00     0.001 A 
HETATM   22  C   UNK N   1      35.446  13.190  16.405  0.00  0.00     0.009 A 
ENDBRANCH  16  17
ENDBRANCH   6  16
TORSDOF 7
ENDMDL
MODEL 8
REMARK VINA RESULT:      -5.3      5.283      7.974
REMARK  7 active torsions:
REMARK  status: ('A' for Active; 'I' for Inactive)
REMARK    1  A    between atoms: C_4  and  C_7 
REMARK    2  A    between atoms: C_7  and  N_18 
REMARK    3  A    between atoms: C_10  and  C_12 
REMARK    4  A    between atoms: C_10  and  S_16 
REMARK    5  A    between atoms: C_11  and  C_12 
REMARK    6  A    between atoms: C_11  and  C_13 
REMARK       I    between atoms: C_13  and  N_17 
REMARK    7  A    between atoms: C_14  and  N_17 
ROOT
HETATM    1  C   UNK N   1      35.430  11.025  18.981  0.00  0.00     0.275 C 
HETATM    2  C   UNK N   1      35.277  12.236  18.073  0.00  0.00     0.055 C 
HETATM    3  C   UNK N   1      34.951   9.495  17.225  0.00  0.00     0.275 C 
HETATM    4  C   UNK N   1      34.846  10.629  16.203  0.00  0.00     0.055 C 
HETATM    5  C   UNK N   1      35.693  11.815  16.673  0.00  0.00     0.087 C 
HETATM    6  N   UNK N   1      34.517   9.966  18.541  0.00  0.00     0.092 N 
ENDROOT
BRANCH   5   7
HETATM    7  N   UNK N   1      35.580  12.931  15.763  0.00  0.00    -0.356 N 
HETATM    8  C   UNK N   1      36.515  13.162  14.808  0.00  0.00     0.217 C 
HETATM    9  O   UNK N   1      37.481  12.420  14.702  0.00  0.00    -0.274 OA
HETATM   10  H   UNK N   1      34.809  13.538  15.838  0.00  0.00     0.162 HD
BRANCH   8  11
HETATM   11  C   UNK N   1      36.365  14.351  13.904  0.00  0.00     0.103 C 
BRANCH  11  12
HETATM   12  C   UNK N   1      35.600  13.989  12.640  0.00  0.00     0.019 C 
BRANCH  12  13
HETATM   13  C   UNK N   1      36.421  14.289  11.408  0.00  0.00     0.071 C 
BRANCH  13  14
HETATM   14  S   UNK N   1      37.483  12.861  11.063  0.00  0.00    -0.182 SA
HETATM   15  H   UNK N   1      36.967  11.734  10.503  0.00  0.00     0.101 HD
ENDBRANCH  13  14
ENDBRANCH  12  13
ENDBRANCH  11  12
ENDBRANCH   8  11
ENDBRANCH   5   7
BRANCH   6  16
HETATM   16  C   UNK N   1      34.618   8.839  19.465  0.00  0.00     0.311 C 
BRANCH  16  17
HETATM   17  C   UNK N   1      33.313   8.107  19.652  0.00  0.00    -0.030 A 
HETATM   18  C   UNK N   1      32.189   8.825  20.073  0.00  0.00     0.009 A 
HETATM   19  C   UNK N   1      30.959   8.178  20.231  0.00  0.00     0.001 A 
HETATM   20  C   UNK N   1      30.846   6.811  19.965  0.00  0.00     0.000 A 
HETATM   21  C   UNK N   1      31.965   6.086  19.548  0.00  0.00     0.001 A 
HETATM   22  C   UNK N   1      33.195   6.730  19.395  0.00  0.00     0.009 A 
ENDBRANCH  16  17
ENDBRANCH   6  16
TORSDOF 7
ENDMDL
MODEL 9
REMARK VINA RESULT:      -5.3      3.194      8.447
REMARK  7 active torsions:
REMARK  status: ('A' for Active; 'I' for Inactive)
REMARK    1  A    between atoms: C_4  and  C_7 
REMARK    2  A    between atoms: C_7  and  N_18 
REMARK    3  A    between atoms: C_10  and  C_12 
REMARK    4  A    between atoms: C_10  and  S_16 
REMARK    5  A    between atoms: C_11  and  C_12 
REMARK    6  A    between atoms: C_11  and  C_13 
REMARK       I    between atoms: C_13  and  N_17 
REMARK    7  A    between atoms: C_14  and  N_17 
ROOT
HETATM    1  C   UNK N   1      34.198  15.037   8.499  0.00  0.00     0.275 C 
HETATM    2  C   UNK N   1      33.851  14.130   9.671  0.00  0.00     0.055 C 
HETATM    3  C   UNK N   1      35.132  16.705   9.911  0.00  0.00     0.275 C 
HETATM    4  C   UNK N   1      34.900  15.848  11.157  0.00  0.00     0.055 C 
HETATM    5  C   UNK N   1      34.884  14.369  10.759  0.00  0.00     0.087 C 
HETATM    6  N   UNK N   1      34.091  16.438   8.918  0.00  0.00     0.092 N 
ENDROOT
BRANCH   5   7
HETATM    7  N   UNK N   1      34.614  13.523  11.897  0.00  0.00    -0.356 N 
HETATM    8  C   UNK N   1      35.595  13.173  12.766  0.00  0.00     0.217 C 
HETATM    9  O   UNK N   1      36.738  13.573  12.597  0.00  0.00    -0.274 OA
HETATM   10  H   UNK N   1      33.699  13.192  12.046  0.00  0.00     0.162 HD
BRANCH   8  11
HETATM   11  C   UNK N   1      35.267  12.270  13.921  0.00  0.00     0.103 C 
BRANCH  11  12
HETATM   12  C   UNK N   1      35.296  13.029  15.239  0.00  0.00     0.019 C 
BRANCH  12  13
HETATM   13  C   UNK N   1      35.364  12.076  16.409  0.00  0.00     0.071 C 
BRANCH  13  14
HETATM   14  S   UNK N   1      36.459  10.700  15.965  0.00  0.00    -0.182 SA
HETATM   15  H   UNK N   1      36.608  10.326  14.666  0.00  0.00     0.101 HD
ENDBRANCH  13  14
ENDBRANCH  12  13
ENDBRANCH  11  12
ENDBRANCH   8  11
ENDBRANCH   5   7
BRANCH   6  16
HETATM   16  C   UNK N   1      34.352  17.298   7.767  0.00  0.00     0.311 C 
BRANCH  16  17
HETATM   17  C   UNK N   1      33.218  17.319   6.774  0.00  0.00    -0.030 A 
HETATM   18  C   UNK N   1      33.515  17.408   5.410  0.00  0.00     0.009 A 
HETATM   19  C   UNK N   1      32.485  17.404   4.464  0.00  0.00     0.001 A 
HETATM   20  C   UNK N   1      31.153  17.306   4.877  0.00  0.00     0.000 A 
HETATM   21  C   UNK N   1      30.848  17.221   6.237  0.00  0.00     0.001 A 
HETATM   22  C   UNK N   1      31.876  17.230   7.183  0.00  0.00     0.009 A 
ENDBRANCH  16  17
ENDBRANCH   6  16
TORSDOF 7
ENDMDL
