REMARK  7 active torsions:
REMARK  status: ('A' for Active; 'I' for Inactive)
REMARK    1  A    between atoms: C_4  and  C_7 
REMARK    2  A    between atoms: C_7  and  N_18 
REMARK    3  A    between atoms: C_10  and  C_12 
REMARK    4  A    between atoms: C_10  and  S_16 
REMARK    5  A    between atoms: C_11  and  C_12 
REMARK    6  A    between atoms: C_11  and  C_13 
REMARK       I    between atoms: C_13  and  N_17 
REMARK    7  A    between atoms: C_14  and  N_17 
ROOT
HETATM    1  C   UNK N   1       1.299   0.016   0.816  0.00  0.00     0.275 C 
HETATM    2  C   UNK N   1       0.159  -0.920   0.443  0.00  0.00     0.055 C 
HETATM    3  C   UNK N   1       0.304   1.867  -0.295  0.00  0.00     0.275 C 
HETATM    4  C   UNK N   1      -0.931   1.042  -0.664  0.00  0.00     0.055 C 
HETATM    5  C   UNK N   1      -1.109  -0.087   0.355  0.00  0.00     0.087 C 
HETATM    6  N   UNK N   1       1.486   1.006  -0.249  0.00  0.00     0.092 N 
ENDROOT
BRANCH   5   7
HETATM    7  N   UNK N   1      -2.234  -0.926   0.015  0.00  0.00    -0.356 N 
HETATM    8  C   UNK N   1      -3.509  -0.477   0.123  0.00  0.00     0.217 C 
HETATM    9  O   UNK N   1      -3.729   0.660   0.516  0.00  0.00    -0.274 OA
HETATM   10  H   UNK N   1      -2.073  -1.844  -0.301  0.00  0.00     0.162 HD
BRANCH   8  11
HETATM   11  C   UNK N   1      -4.645  -1.398  -0.219  0.00  0.00     0.103 C 
BRANCH  11  12
HETATM   12  C   UNK N   1      -5.989  -0.727   0.020  0.00  0.00     0.019 C 
BRANCH  12  13
HETATM   13  C   UNK N   1      -7.126  -1.675  -0.279  0.00  0.00     0.071 C 
BRANCH  13  14
HETATM   14  S   UNK N   1      -8.690  -0.787  -0.048  0.00  0.00    -0.182 SA
HETATM   15  H   UNK N   1      -8.700   0.562   0.126  0.00  0.00     0.101 HD
ENDBRANCH  13  14
ENDBRANCH  12  13
ENDBRANCH  11  12
ENDBRANCH   8  11
ENDBRANCH   5   7
BRANCH   6  16
HETATM   16  C   UNK N   1       2.631   1.850   0.084  0.00  0.00     0.311 C 
BRANCH  16  17
HETATM   17  C   UNK N   1       3.951   1.131  -0.030  0.00  0.00    -0.030 A 
HETATM   18  C   UNK N   1       5.129   1.833   0.243  0.00  0.00     0.009 A 
HETATM   19  C   UNK N   1       6.367   1.186   0.170  0.00  0.00     0.001 A 
HETATM   20  C   UNK N   1       6.432  -0.168  -0.171  0.00  0.00     0.000 A 
HETATM   21  C   UNK N   1       5.260  -0.875  -0.448  0.00  0.00     0.001 A 
HETATM   22  C   UNK N   1       4.024  -0.228  -0.381  0.00  0.00     0.009 A 
ENDBRANCH  16  17
ENDBRANCH   6  16
TORSDOF 7
