MODEL 1
REMARK VINA RESULT:      -6.0      0.000      0.000
REMARK  9 active torsions:
REMARK  status: ('A' for Active; 'I' for Inactive)
REMARK    1  A    between atoms: O_3  and  C_6 
REMARK    2  A    between atoms: C_4  and  O_22 
REMARK    3  A    between atoms: C_7  and  C_10 
REMARK    4  A    between atoms: C_10  and  N_21 
REMARK    5  A    between atoms: C_13  and  C_15 
REMARK    6  A    between atoms: C_13  and  S_19 
REMARK    7  A    between atoms: C_14  and  C_15 
REMARK    8  A    between atoms: C_14  and  C_16 
REMARK       I    between atoms: C_16  and  N_20 
REMARK    9  A    between atoms: C_17  and  N_20 
ROOT
HETATM    1  C   UNK N   1      36.306  15.347  11.761  0.00  0.00     0.275 C 
HETATM    2  C   UNK N   1      35.317  16.330  11.143  0.00  0.00     0.055 C 
HETATM    3  C   UNK N   1      35.231  13.474  10.813  0.00  0.00     0.275 C 
HETATM    4  C   UNK N   1      34.167  14.323  10.123  0.00  0.00     0.055 C 
HETATM    5  C   UNK N   1      34.699  15.737   9.875  0.00  0.00     0.087 C 
HETATM    6  N   UNK N   1      35.598  14.112  12.076  0.00  0.00     0.092 N 
ENDROOT
BRANCH   6   7
HETATM    7  C   UNK N   1      36.506  13.238  12.802  0.00  0.00     0.316 C 
BRANCH   7   8
HETATM    8  C   UNK N   1      36.088  12.929  14.232  0.00  0.00     0.037 A 
HETATM    9  C   UNK N   1      36.365  13.782  15.340  0.00  0.00     0.079 A 
HETATM   10  C   UNK N   1      35.922  13.413  16.622  0.00  0.00     0.037 A 
HETATM   11  C   UNK N   1      35.224  12.226  16.822  0.00  0.00     0.005 A 
HETATM   12  C   UNK N   1      34.963  11.384  15.746  0.00  0.00     0.037 A 
HETATM   13  C   UNK N   1      35.389  11.723  14.451  0.00  0.00     0.079 A 
BRANCH   9  14
HETATM   14  O   UNK N   1      37.052  14.939  15.168  0.00  0.00    -0.355 OA
HETATM   15  C   UNK N   1      37.420  15.771  16.203  0.00  0.00     0.210 C 
ENDBRANCH   9  14
BRANCH  13  16
HETATM   16  O   UNK N   1      35.137  10.899  13.402  0.00  0.00    -0.355 OA
HETATM   17  C   UNK N   1      33.896  10.365  13.138  0.00  0.00     0.210 C 
ENDBRANCH  13  16
ENDBRANCH   7   8
ENDBRANCH   6   7
BRANCH   5  18
HETATM   18  N   UNK N   1      33.607  16.576   9.453  0.00  0.00    -0.356 N 
HETATM   19  C   UNK N   1      33.629  17.265   8.290  0.00  0.00     0.217 C 
HETATM   20  O   UNK N   1      34.607  17.219   7.557  0.00  0.00    -0.274 OA
HETATM   21  H   UNK N   1      32.815  16.650  10.032  0.00  0.00     0.162 HD
BRANCH  19  22
HETATM   22  C   UNK N   1      32.440  18.085   7.905  0.00  0.00     0.103 C 
BRANCH  22  23
HETATM   23  C   UNK N   1      31.155  17.497   8.463  0.00  0.00     0.019 C 
BRANCH  23  24
HETATM   24  C   UNK N   1      30.324  18.574   9.134  0.00  0.00     0.071 C 
BRANCH  24  25
HETATM   25  S   UNK N   1      28.581  18.414   8.655  0.00  0.00    -0.182 SA
HETATM   26  H   UNK N   1      28.196  18.191   7.369  0.00  0.00     0.101 HD
ENDBRANCH  24  25
ENDBRANCH  23  24
ENDBRANCH  22  23
ENDBRANCH  19  22
ENDBRANCH   5  18
TORSDOF 9
ENDMDL
MODEL 2
REMARK VINA RESULT:      -6.0      0.412      2.668
REMARK  9 active torsions:
REMARK  status: ('A' for Active; 'I' for Inactive)
REMARK    1  A    between atoms: O_3  and  C_6 
REMARK    2  A    between atoms: C_4  and  O_22 
REMARK    3  A    between atoms: C_7  and  C_10 
REMARK    4  A    between atoms: C_10  and  N_21 
REMARK    5  A    between atoms: C_13  and  C_15 
REMARK    6  A    between atoms: C_13  and  S_19 
REMARK    7  A    between atoms: C_14  and  C_15 
REMARK    8  A    between atoms: C_14  and  C_16 
REMARK       I    between atoms: C_16  and  N_20 
REMARK    9  A    between atoms: C_17  and  N_20 
ROOT
HETATM    1  C   UNK N   1      36.256  15.426  11.690  0.00  0.00     0.275 C 
HETATM    2  C   UNK N   1      35.317  16.442  11.047  0.00  0.00     0.055 C 
HETATM    3  C   UNK N   1      34.956  13.588  10.987  0.00  0.00     0.275 C 
HETATM    4  C   UNK N   1      33.925  14.473  10.290  0.00  0.00     0.055 C 
HETATM    5  C   UNK N   1      34.561  15.803   9.881  0.00  0.00     0.087 C 
HETATM    6  N   UNK N   1      35.465  14.295  12.161  0.00  0.00     0.092 N 
ENDROOT
BRANCH   6   7
HETATM    7  C   UNK N   1      36.342  13.404  12.906  0.00  0.00     0.316 C 
BRANCH   7   8
HETATM    8  C   UNK N   1      35.830  13.009  14.282  0.00  0.00     0.037 A 
HETATM    9  C   UNK N   1      34.936  11.923  14.513  0.00  0.00     0.079 A 
HETATM   10  C   UNK N   1      34.533  11.628  15.828  0.00  0.00     0.037 A 
HETATM   11  C   UNK N   1      34.991  12.385  16.901  0.00  0.00     0.005 A 
HETATM   12  C   UNK N   1      35.852  13.455  16.679  0.00  0.00     0.037 A 
HETATM   13  C   UNK N   1      36.277  13.776  15.379  0.00  0.00     0.079 A 
BRANCH   9  14
HETATM   14  O   UNK N   1      34.471  11.177  13.480  0.00  0.00    -0.355 OA
HETATM   15  C   UNK N   1      35.020   9.973  13.096  0.00  0.00     0.210 C 
ENDBRANCH   9  14
BRANCH  13  16
HETATM   16  O   UNK N   1      37.116  14.822  15.164  0.00  0.00    -0.355 OA
HETATM   17  C   UNK N   1      37.420  15.760  16.124  0.00  0.00     0.210 C 
ENDBRANCH  13  16
ENDBRANCH   7   8
ENDBRANCH   6   7
BRANCH   5  18
HETATM   18  N   UNK N   1      33.520  16.703   9.452  0.00  0.00    -0.356 N 
HETATM   19  C   UNK N   1      33.620  17.444   8.327  0.00  0.00     0.217 C 
HETATM   20  O   UNK N   1      34.628  17.396   7.636  0.00  0.00    -0.274 OA
HETATM   21  H   UNK N   1      32.706  16.780  10.000  0.00  0.00     0.162 HD
BRANCH  19  22
HETATM   22  C   UNK N   1      32.481  18.327   7.931  0.00  0.00     0.103 C 
BRANCH  22  23
HETATM   23  C   UNK N   1      31.141  17.677   8.239  0.00  0.00     0.019 C 
BRANCH  23  24
HETATM   24  C   UNK N   1      30.279  18.606   9.073  0.00  0.00     0.071 C 
BRANCH  24  25
HETATM   25  S   UNK N   1      28.639  17.874   9.334  0.00  0.00    -0.182 SA
HETATM   26  H   UNK N   1      27.548  18.623   9.650  0.00  0.00     0.101 HD
ENDBRANCH  24  25
ENDBRANCH  23  24
ENDBRANCH  22  23
ENDBRANCH  19  22
ENDBRANCH   5  18
TORSDOF 9
ENDMDL
MODEL 3
REMARK VINA RESULT:      -5.7      1.544      3.132
REMARK  9 active torsions:
REMARK  status: ('A' for Active; 'I' for Inactive)
REMARK    1  A    between atoms: O_3  and  C_6 
REMARK    2  A    between atoms: C_4  and  O_22 
REMARK    3  A    between atoms: C_7  and  C_10 
REMARK    4  A    between atoms: C_10  and  N_21 
REMARK    5  A    between atoms: C_13  and  C_15 
REMARK    6  A    between atoms: C_13  and  S_19 
REMARK    7  A    between atoms: C_14  and  C_15 
REMARK    8  A    between atoms: C_14  and  C_16 
REMARK       I    between atoms: C_16  and  N_20 
REMARK    9  A    between atoms: C_17  and  N_20 
ROOT
HETATM    1  C   UNK N   1      36.064  15.722  11.215  0.00  0.00     0.275 C 
HETATM    2  C   UNK N   1      35.073  16.507  10.360  0.00  0.00     0.055 C 
HETATM    3  C   UNK N   1      35.785  13.749   9.954  0.00  0.00     0.275 C 
HETATM    4  C   UNK N   1      34.777  14.393   9.006  0.00  0.00     0.055 C 
HETATM    5  C   UNK N   1      34.992  15.907   8.955  0.00  0.00     0.087 C 
HETATM    6  N   UNK N   1      35.622  14.334  11.283  0.00  0.00     0.092 N 
ENDROOT
BRANCH   6   7
HETATM    7  C   UNK N   1      36.481  13.628  12.221  0.00  0.00     0.316 C 
BRANCH   7   8
HETATM    8  C   UNK N   1      35.776  13.100  13.460  0.00  0.00     0.037 A 
HETATM    9  C   UNK N   1      34.880  11.992  13.450  0.00  0.00     0.079 A 
HETATM   10  C   UNK N   1      34.290  11.571  14.655  0.00  0.00     0.037 A 
HETATM   11  C   UNK N   1      34.566  12.224  15.851  0.00  0.00     0.005 A 
HETATM   12  C   UNK N   1      35.430  13.314  15.864  0.00  0.00     0.037 A 
HETATM   13  C   UNK N   1      36.039  13.761  14.679  0.00  0.00     0.079 A 
BRANCH   9  14
HETATM   14  O   UNK N   1      34.590  11.346  12.293  0.00  0.00    -0.355 OA
HETATM   15  C   UNK N   1      33.894  10.158  12.232  0.00  0.00     0.210 C 
ENDBRANCH   9  14
BRANCH  13  16
HETATM   16  O   UNK N   1      36.879  14.827  14.692  0.00  0.00    -0.355 OA
HETATM   17  C   UNK N   1      37.344  15.411  15.849  0.00  0.00     0.210 C 
ENDBRANCH  13  16
ENDBRANCH   7   8
ENDBRANCH   6   7
BRANCH   5  18
HETATM   18  N   UNK N   1      33.886  16.510   8.255  0.00  0.00    -0.356 N 
HETATM   19  C   UNK N   1      33.935  16.799   6.936  0.00  0.00     0.217 C 
HETATM   20  O   UNK N   1      34.947  16.579   6.286  0.00  0.00    -0.274 OA
HETATM   21  H   UNK N   1      33.066  16.719   8.756  0.00  0.00     0.162 HD
BRANCH  19  22
HETATM   22  C   UNK N   1      32.732  17.390   6.273  0.00  0.00     0.103 C 
BRANCH  22  23
HETATM   23  C   UNK N   1      31.490  17.235   7.137  0.00  0.00     0.019 C 
BRANCH  23  24
HETATM   24  C   UNK N   1      30.361  16.612   6.338  0.00  0.00     0.071 C 
BRANCH  24  25
HETATM   25  S   UNK N   1      30.827  14.948   5.783  0.00  0.00    -0.182 SA
HETATM   26  H   UNK N   1      31.926  14.715   5.017  0.00  0.00     0.101 HD
ENDBRANCH  24  25
ENDBRANCH  23  24
ENDBRANCH  22  23
ENDBRANCH  19  22
ENDBRANCH   5  18
TORSDOF 9
ENDMDL
MODEL 4
REMARK VINA RESULT:      -5.5     17.220     20.992
REMARK  9 active torsions:
REMARK  status: ('A' for Active; 'I' for Inactive)
REMARK    1  A    between atoms: O_3  and  C_6 
REMARK    2  A    between atoms: C_4  and  O_22 
REMARK    3  A    between atoms: C_7  and  C_10 
REMARK    4  A    between atoms: C_10  and  N_21 
REMARK    5  A    between atoms: C_13  and  C_15 
REMARK    6  A    between atoms: C_13  and  S_19 
REMARK    7  A    between atoms: C_14  and  C_15 
REMARK    8  A    between atoms: C_14  and  C_16 
REMARK       I    between atoms: C_16  and  N_20 
REMARK    9  A    between atoms: C_17  and  N_20 
ROOT
HETATM    1  C   UNK N   1      29.627  24.903  -3.617  0.00  0.00     0.275 C 
HETATM    2  C   UNK N   1      30.864  24.162  -4.115  0.00  0.00     0.055 C 
HETATM    3  C   UNK N   1      28.782  23.006  -2.500  0.00  0.00     0.275 C 
HETATM    4  C   UNK N   1      29.961  22.129  -2.914  0.00  0.00     0.055 C 
HETATM    5  C   UNK N   1      31.195  22.994  -3.183  0.00  0.00     0.087 C 
HETATM    6  N   UNK N   1      28.512  23.966  -3.569  0.00  0.00     0.092 N 
ENDROOT
BRANCH   6   7
HETATM    7  C   UNK N   1      27.305  24.710  -3.243  0.00  0.00     0.316 C 
BRANCH   7   8
HETATM    8  C   UNK N   1      26.645  25.406  -4.423  0.00  0.00     0.037 A 
HETATM    9  C   UNK N   1      26.216  24.731  -5.602  0.00  0.00     0.079 A 
HETATM   10  C   UNK N   1      25.602  25.465  -6.632  0.00  0.00     0.037 A 
HETATM   11  C   UNK N   1      25.413  26.838  -6.516  0.00  0.00     0.005 A 
HETATM   12  C   UNK N   1      25.842  27.504  -5.372  0.00  0.00     0.037 A 
HETATM   13  C   UNK N   1      26.458  26.802  -4.323  0.00  0.00     0.079 A 
BRANCH   9  14
HETATM   14  O   UNK N   1      26.399  23.394  -5.740  0.00  0.00    -0.355 OA
HETATM   15  C   UNK N   1      27.038  22.816  -6.816  0.00  0.00     0.210 C 
ENDBRANCH   9  14
BRANCH  13  16
HETATM   16  O   UNK N   1      26.879  27.453  -3.208  0.00  0.00    -0.355 OA
HETATM   17  C   UNK N   1      27.044  28.818  -3.144  0.00  0.00     0.210 C 
ENDBRANCH  13  16
ENDBRANCH   7   8
ENDBRANCH   6   7
BRANCH   5  18
HETATM   18  N   UNK N   1      32.209  22.178  -3.801  0.00  0.00    -0.356 N 
HETATM   19  C   UNK N   1      33.018  21.365  -3.088  0.00  0.00     0.217 C 
HETATM   20  O   UNK N   1      32.935  21.314  -1.869  0.00  0.00    -0.274 OA
HETATM   21  H   UNK N   1      32.315  22.214  -4.779  0.00  0.00     0.162 HD
BRANCH  19  22
HETATM   22  C   UNK N   1      34.021  20.521  -3.807  0.00  0.00     0.103 C 
BRANCH  22  23
HETATM   23  C   UNK N   1      33.345  19.487  -4.693  0.00  0.00     0.019 C 
BRANCH  23  24
HETATM   24  C   UNK N   1      33.646  19.759  -6.154  0.00  0.00     0.071 C 
BRANCH  24  25
HETATM   25  S   UNK N   1      32.103  20.008  -7.078  0.00  0.00    -0.182 SA
HETATM   26  H   UNK N   1      31.310  21.098  -6.894  0.00  0.00     0.101 HD
ENDBRANCH  24  25
ENDBRANCH  23  24
ENDBRANCH  22  23
ENDBRANCH  19  22
ENDBRANCH   5  18
TORSDOF 9
ENDMDL
MODEL 5
REMARK VINA RESULT:      -5.4      2.899      8.500
REMARK  9 active torsions:
REMARK  status: ('A' for Active; 'I' for Inactive)
REMARK    1  A    between atoms: O_3  and  C_6 
REMARK    2  A    between atoms: C_4  and  O_22 
REMARK    3  A    between atoms: C_7  and  C_10 
REMARK    4  A    between atoms: C_10  and  N_21 
REMARK    5  A    between atoms: C_13  and  C_15 
REMARK    6  A    between atoms: C_13  and  S_19 
REMARK    7  A    between atoms: C_14  and  C_15 
REMARK    8  A    between atoms: C_14  and  C_16 
REMARK       I    between atoms: C_16  and  N_20 
REMARK    9  A    between atoms: C_17  and  N_20 
ROOT
HETATM    1  C   UNK N   1      35.353  16.923  10.530  0.00  0.00     0.275 C 
HETATM    2  C   UNK N   1      36.060  15.782  11.255  0.00  0.00     0.055 C 
HETATM    3  C   UNK N   1      33.758  15.485   9.555  0.00  0.00     0.275 C 
HETATM    4  C   UNK N   1      34.349  14.241  10.213  0.00  0.00     0.055 C 
HETATM    5  C   UNK N   1      35.090  14.623  11.496  0.00  0.00     0.087 C 
HETATM    6  N   UNK N   1      34.842  16.421   9.260  0.00  0.00     0.092 N 
ENDROOT
BRANCH   6   7
HETATM    7  C   UNK N   1      34.306  17.545   8.509  0.00  0.00     0.316 C 
BRANCH   7   8
HETATM    8  C   UNK N   1      33.364  17.166   7.377  0.00  0.00     0.037 A 
HETATM    9  C   UNK N   1      33.785  16.516   6.180  0.00  0.00     0.079 A 
HETATM   10  C   UNK N   1      32.831  16.193   5.199  0.00  0.00     0.037 A 
HETATM   11  C   UNK N   1      31.488  16.505   5.379  0.00  0.00     0.005 A 
HETATM   12  C   UNK N   1      31.074  17.151   6.539  0.00  0.00     0.037 A 
HETATM   13  C   UNK N   1      31.999  17.487   7.542  0.00  0.00     0.079 A 
BRANCH   9  14
HETATM   14  O   UNK N   1      35.091  16.211   5.980  0.00  0.00    -0.355 OA
HETATM   15  C   UNK N   1      35.585  14.925   5.969  0.00  0.00     0.210 C 
ENDBRANCH   9  14
BRANCH  13  16
HETATM   16  O   UNK N   1      31.595  18.120   8.672  0.00  0.00    -0.355 OA
HETATM   17  C   UNK N   1      30.274  18.368   8.972  0.00  0.00     0.210 C 
ENDBRANCH  13  16
ENDBRANCH   7   8
ENDBRANCH   6   7
BRANCH   5  18
HETATM   18  N   UNK N   1      35.836  13.481  11.959  0.00  0.00    -0.356 N 
HETATM   19  C   UNK N   1      35.914  13.148  13.266  0.00  0.00     0.217 C 
HETATM   20  O   UNK N   1      35.367  13.833  14.119  0.00  0.00    -0.274 OA
HETATM   21  H   UNK N   1      36.305  12.922  11.299  0.00  0.00     0.162 HD
BRANCH  19  22
HETATM   22  C   UNK N   1      36.678  11.925  13.663  0.00  0.00     0.103 C 
BRANCH  22  23
HETATM   23  C   UNK N   1      36.351  11.504  15.087  0.00  0.00     0.019 C 
BRANCH  23  24
HETATM   24  C   UNK N   1      35.490  10.255  15.088  0.00  0.00     0.071 C 
BRANCH  24  25
HETATM   25  S   UNK N   1      33.769  10.678  14.695  0.00  0.00    -0.182 SA
HETATM   26  H   UNK N   1      33.303  10.728  13.418  0.00  0.00     0.101 HD
ENDBRANCH  24  25
ENDBRANCH  23  24
ENDBRANCH  22  23
ENDBRANCH  19  22
ENDBRANCH   5  18
TORSDOF 9
ENDMDL
MODEL 6
REMARK VINA RESULT:      -5.4      3.097      8.663
REMARK  9 active torsions:
REMARK  status: ('A' for Active; 'I' for Inactive)
REMARK    1  A    between atoms: O_3  and  C_6 
REMARK    2  A    between atoms: C_4  and  O_22 
REMARK    3  A    between atoms: C_7  and  C_10 
REMARK    4  A    between atoms: C_10  and  N_21 
REMARK    5  A    between atoms: C_13  and  C_15 
REMARK    6  A    between atoms: C_13  and  S_19 
REMARK    7  A    between atoms: C_14  and  C_15 
REMARK    8  A    between atoms: C_14  and  C_16 
REMARK       I    between atoms: C_16  and  N_20 
REMARK    9  A    between atoms: C_17  and  N_20 
ROOT
HETATM    1  C   UNK N   1      33.697  15.287   8.566  0.00  0.00     0.275 C 
HETATM    2  C   UNK N   1      33.683  14.293   9.723  0.00  0.00     0.055 C 
HETATM    3  C   UNK N   1      34.936  16.882   9.783  0.00  0.00     0.275 C 
HETATM    4  C   UNK N   1      35.015  16.000  11.027  0.00  0.00     0.055 C 
HETATM    5  C   UNK N   1      34.887  14.525  10.637  0.00  0.00     0.087 C 
HETATM    6  N   UNK N   1      33.660  16.638   9.113  0.00  0.00     0.092 N 
ENDROOT
BRANCH   6   7
HETATM    7  C   UNK N   1      33.519  17.574   8.009  0.00  0.00     0.316 C 
BRANCH   7   8
HETATM    8  C   UNK N   1      32.226  17.440   7.220  0.00  0.00     0.037 A 
HETATM    9  C   UNK N   1      30.932  17.651   7.778  0.00  0.00     0.079 A 
HETATM   10  C   UNK N   1      29.797  17.517   6.958  0.00  0.00     0.037 A 
HETATM   11  C   UNK N   1      29.922  17.177   5.615  0.00  0.00     0.005 A 
HETATM   12  C   UNK N   1      31.182  16.956   5.070  0.00  0.00     0.037 A 
HETATM   13  C   UNK N   1      32.338  17.083   5.858  0.00  0.00     0.079 A 
BRANCH   9  14
HETATM   14  O   UNK N   1      30.786  17.975   9.087  0.00  0.00    -0.355 OA
HETATM   15  C   UNK N   1      29.574  18.270   9.672  0.00  0.00     0.210 C 
ENDBRANCH   9  14
BRANCH  13  16
HETATM   16  O   UNK N   1      33.567  16.865   5.325  0.00  0.00    -0.355 OA
HETATM   17  C   UNK N   1      33.958  15.659   4.790  0.00  0.00     0.210 C 
ENDBRANCH  13  16
ENDBRANCH   7   8
ENDBRANCH   6   7
BRANCH   5  18
HETATM   18  N   UNK N   1      34.719  13.742  11.835  0.00  0.00    -0.356 N 
HETATM   19  C   UNK N   1      35.767  13.258  12.538  0.00  0.00     0.217 C 
HETATM   20  O   UNK N   1      36.914  13.449  12.158  0.00  0.00    -0.274 OA
HETATM   21  H   UNK N   1      33.808  13.553  12.154  0.00  0.00     0.162 HD
BRANCH  19  22
HETATM   22  C   UNK N   1      35.511  12.485  13.791  0.00  0.00     0.103 C 
BRANCH  22  23
HETATM   23  C   UNK N   1      36.654  12.639  14.782  0.00  0.00     0.019 C 
BRANCH  23  24
HETATM   24  C   UNK N   1      36.327  13.706  15.810  0.00  0.00     0.071 C 
BRANCH  24  25
HETATM   25  S   UNK N   1      35.044  13.112  16.947  0.00  0.00    -0.182 SA
HETATM   26  H   UNK N   1      34.014  13.899  17.361  0.00  0.00     0.101 HD
ENDBRANCH  24  25
ENDBRANCH  23  24
ENDBRANCH  22  23
ENDBRANCH  19  22
ENDBRANCH   5  18
TORSDOF 9
ENDMDL
MODEL 7
REMARK VINA RESULT:      -5.4      1.688      1.952
REMARK  9 active torsions:
REMARK  status: ('A' for Active; 'I' for Inactive)
REMARK    1  A    between atoms: O_3  and  C_6 
REMARK    2  A    between atoms: C_4  and  O_22 
REMARK    3  A    between atoms: C_7  and  C_10 
REMARK    4  A    between atoms: C_10  and  N_21 
REMARK    5  A    between atoms: C_13  and  C_15 
REMARK    6  A    between atoms: C_13  and  S_19 
REMARK    7  A    between atoms: C_14  and  C_15 
REMARK    8  A    between atoms: C_14  and  C_16 
REMARK       I    between atoms: C_16  and  N_20 
REMARK    9  A    between atoms: C_17  and  N_20 
ROOT
HETATM    1  C   UNK N   1      37.520  13.174  11.264  0.00  0.00     0.275 C 
HETATM    2  C   UNK N   1      37.168  14.292  10.287  0.00  0.00     0.055 C 
HETATM    3  C   UNK N   1      35.302  12.981  12.041  0.00  0.00     0.275 C 
HETATM    4  C   UNK N   1      34.789  14.083  11.117  0.00  0.00     0.055 C 
HETATM    5  C   UNK N   1      35.693  14.205   9.888  0.00  0.00     0.087 C 
HETATM    6  N   UNK N   1      36.670  13.301  12.442  0.00  0.00     0.092 N 
ENDROOT
BRANCH   6   7
HETATM    7  C   UNK N   1      37.114  12.331  13.430  0.00  0.00     0.316 C 
BRANCH   7   8
HETATM    8  C   UNK N   1      36.436  12.446  14.787  0.00  0.00     0.037 A 
HETATM    9  C   UNK N   1      36.404  13.644  15.557  0.00  0.00     0.079 A 
HETATM   10  C   UNK N   1      35.737  13.651  16.795  0.00  0.00     0.037 A 
HETATM   11  C   UNK N   1      35.116  12.504  17.277  0.00  0.00     0.005 A 
HETATM   12  C   UNK N   1      35.156  11.328  16.535  0.00  0.00     0.037 A 
HETATM   13  C   UNK N   1      35.812  11.286  15.294  0.00  0.00     0.079 A 
BRANCH   9  14
HETATM   14  O   UNK N   1      37.011  14.772  15.110  0.00  0.00    -0.355 OA
HETATM   15  C   UNK N   1      37.477  15.770  15.938  0.00  0.00     0.210 C 
ENDBRANCH   9  14
BRANCH  13  16
HETATM   16  O   UNK N   1      35.853  10.137  14.571  0.00  0.00    -0.355 OA
HETATM   17  C   UNK N   1      35.797   8.883  15.138  0.00  0.00     0.210 C 
ENDBRANCH  13  16
ENDBRANCH   7   8
ENDBRANCH   6   7
BRANCH   5  18
HETATM   18  N   UNK N   1      35.335  15.398   9.165  0.00  0.00    -0.356 N 
HETATM   19  C   UNK N   1      34.667  15.362   7.991  0.00  0.00     0.217 C 
HETATM   20  O   UNK N   1      34.363  14.293   7.480  0.00  0.00    -0.274 OA
HETATM   21  H   UNK N   1      35.586  16.273   9.540  0.00  0.00     0.162 HD
BRANCH  19  22
HETATM   22  C   UNK N   1      34.299  16.646   7.320  0.00  0.00     0.103 C 
BRANCH  22  23
HETATM   23  C   UNK N   1      33.923  17.714   8.334  0.00  0.00     0.019 C 
BRANCH  23  24
HETATM   24  C   UNK N   1      32.446  18.046   8.234  0.00  0.00     0.071 C 
BRANCH  24  25
HETATM   25  S   UNK N   1      31.668  17.061   6.922  0.00  0.00    -0.182 SA
HETATM   26  H   UNK N   1      31.690  15.701   6.921  0.00  0.00     0.101 HD
ENDBRANCH  24  25
ENDBRANCH  23  24
ENDBRANCH  22  23
ENDBRANCH  19  22
ENDBRANCH   5  18
TORSDOF 9
ENDMDL
MODEL 8
REMARK VINA RESULT:      -5.4      1.821      2.557
REMARK  9 active torsions:
REMARK  status: ('A' for Active; 'I' for Inactive)
REMARK    1  A    between atoms: O_3  and  C_6 
REMARK    2  A    between atoms: C_4  and  O_22 
REMARK    3  A    between atoms: C_7  and  C_10 
REMARK    4  A    between atoms: C_10  and  N_21 
REMARK    5  A    between atoms: C_13  and  C_15 
REMARK    6  A    between atoms: C_13  and  S_19 
REMARK    7  A    between atoms: C_14  and  C_15 
REMARK    8  A    between atoms: C_14  and  C_16 
REMARK       I    between atoms: C_16  and  N_20 
REMARK    9  A    between atoms: C_17  and  N_20 
ROOT
HETATM    1  C   UNK N   1      35.873  15.136  12.277  0.00  0.00     0.275 C 
HETATM    2  C   UNK N   1      34.976  15.880  11.291  0.00  0.00     0.055 C 
HETATM    3  C   UNK N   1      36.791  13.758  10.598  0.00  0.00     0.275 C 
HETATM    4  C   UNK N   1      35.964  14.405   9.491  0.00  0.00     0.055 C 
HETATM    5  C   UNK N   1      35.579  15.833   9.886  0.00  0.00     0.087 C 
HETATM    6  N   UNK N   1      36.007  13.754  11.832  0.00  0.00     0.092 N 
ENDROOT
BRANCH   6   7
HETATM    7  C   UNK N   1      36.733  13.015  12.853  0.00  0.00     0.316 C 
BRANCH   7   8
HETATM    8  C   UNK N   1      36.100  11.692  13.255  0.00  0.00     0.037 A 
HETATM    9  C   UNK N   1      34.988  11.581  14.139  0.00  0.00     0.079 A 
HETATM   10  C   UNK N   1      34.466  10.310  14.436  0.00  0.00     0.037 A 
HETATM   11  C   UNK N   1      35.025   9.162  13.883  0.00  0.00     0.005 A 
HETATM   12  C   UNK N   1      36.119   9.264  13.030  0.00  0.00     0.037 A 
HETATM   13  C   UNK N   1      36.665  10.518  12.710  0.00  0.00     0.079 A 
BRANCH   9  14
HETATM   14  O   UNK N   1      34.434  12.687  14.696  0.00  0.00    -0.355 OA
HETATM   15  C   UNK N   1      34.570  13.025  16.025  0.00  0.00     0.210 C 
ENDBRANCH   9  14
BRANCH  13  16
HETATM   16  O   UNK N   1      37.735  10.616  11.880  0.00  0.00    -0.355 OA
HETATM   17  C   UNK N   1      37.884   9.854  10.743  0.00  0.00     0.210 C 
ENDBRANCH  13  16
ENDBRANCH   7   8
ENDBRANCH   6   7
BRANCH   5  18
HETATM   18  N   UNK N   1      34.605  16.327   8.945  0.00  0.00    -0.356 N 
HETATM   19  C   UNK N   1      34.538  17.629   8.588  0.00  0.00     0.217 C 
HETATM   20  O   UNK N   1      35.299  18.450   9.080  0.00  0.00    -0.274 OA
HETATM   21  H   UNK N   1      33.965  15.694   8.549  0.00  0.00     0.162 HD
BRANCH  19  22
HETATM   22  C   UNK N   1      33.523  18.057   7.578  0.00  0.00     0.103 C 
BRANCH  22  23
HETATM   23  C   UNK N   1      32.731  16.872   7.049  0.00  0.00     0.019 C 
BRANCH  23  24
HETATM   24  C   UNK N   1      31.253  17.204   6.989  0.00  0.00     0.071 C 
BRANCH  24  25
HETATM   25  S   UNK N   1      30.587  17.413   8.664  0.00  0.00    -0.182 SA
HETATM   26  H   UNK N   1      29.258  17.571   8.907  0.00  0.00     0.101 HD
ENDBRANCH  24  25
ENDBRANCH  23  24
ENDBRANCH  22  23
ENDBRANCH  19  22
ENDBRANCH   5  18
TORSDOF 9
ENDMDL
MODEL 9
REMARK VINA RESULT:      -5.2      3.617      8.780
REMARK  9 active torsions:
REMARK  status: ('A' for Active; 'I' for Inactive)
REMARK    1  A    between atoms: O_3  and  C_6 
REMARK    2  A    between atoms: C_4  and  O_22 
REMARK    3  A    between atoms: C_7  and  C_10 
REMARK    4  A    between atoms: C_10  and  N_21 
REMARK    5  A    between atoms: C_13  and  C_15 
REMARK    6  A    between atoms: C_13  and  S_19 
REMARK    7  A    between atoms: C_14  and  C_15 
REMARK    8  A    between atoms: C_14  and  C_16 
REMARK       I    between atoms: C_16  and  N_20 
REMARK    9  A    between atoms: C_17  and  N_20 
ROOT
HETATM    1  C   UNK N   1      35.227  13.080   9.080  0.00  0.00     0.275 C 
HETATM    2  C   UNK N   1      34.806  12.414  10.387  0.00  0.00     0.055 C 
HETATM    3  C   UNK N   1      35.091  15.250   9.994  0.00  0.00     0.275 C 
HETATM    4  C   UNK N   1      34.665  14.739  11.368  0.00  0.00     0.055 C 
HETATM    5  C   UNK N   1      35.162  13.307  11.577  0.00  0.00     0.087 C 
HETATM    6  N   UNK N   1      34.542  14.362   8.970  0.00  0.00     0.092 N 
ENDROOT
BRANCH   6   7
HETATM    7  C   UNK N   1      34.826  14.920   7.657  0.00  0.00     0.316 C 
BRANCH   7   8
HETATM    8  C   UNK N   1      33.610  15.442   6.908  0.00  0.00     0.037 A 
HETATM    9  C   UNK N   1      32.530  14.616   6.478  0.00  0.00     0.079 A 
HETATM   10  C   UNK N   1      31.442  15.199   5.804  0.00  0.00     0.037 A 
HETATM   11  C   UNK N   1      31.410  16.566   5.549  0.00  0.00     0.005 A 
HETATM   12  C   UNK N   1      32.468  17.373   5.954  0.00  0.00     0.037 A 
HETATM   13  C   UNK N   1      33.570  16.825   6.632  0.00  0.00     0.079 A 
BRANCH   9  14
HETATM   14  O   UNK N   1      32.546  13.280   6.709  0.00  0.00    -0.355 OA
HETATM   15  C   UNK N   1      32.851  12.340   5.748  0.00  0.00     0.210 C 
ENDBRANCH   9  14
BRANCH  13  16
HETATM   16  O   UNK N   1      34.603  17.614   7.025  0.00  0.00    -0.355 OA
HETATM   17  C   UNK N   1      34.541  18.459   8.109  0.00  0.00     0.210 C 
ENDBRANCH  13  16
ENDBRANCH   7   8
ENDBRANCH   6   7
BRANCH   5  18
HETATM   18  N   UNK N   1      34.545  12.770  12.763  0.00  0.00    -0.356 N 
HETATM   19  C   UNK N   1      35.209  12.645  13.933  0.00  0.00     0.217 C 
HETATM   20  O   UNK N   1      36.387  12.964  14.018  0.00  0.00    -0.274 OA
HETATM   21  H   UNK N   1      33.604  12.484  12.719  0.00  0.00     0.162 HD
BRANCH  19  22
HETATM   22  C   UNK N   1      34.487  12.113  15.129  0.00  0.00     0.103 C 
BRANCH  22  23
HETATM   23  C   UNK N   1      34.035  10.678  14.912  0.00  0.00     0.019 C 
BRANCH  23  24
HETATM   24  C   UNK N   1      35.067   9.707  15.453  0.00  0.00     0.071 C 
BRANCH  24  25
HETATM   25  S   UNK N   1      35.918  10.427  16.885  0.00  0.00    -0.182 SA
HETATM   26  H   UNK N   1      36.490   9.663  17.854  0.00  0.00     0.101 HD
ENDBRANCH  24  25
ENDBRANCH  23  24
ENDBRANCH  22  23
ENDBRANCH  19  22
ENDBRANCH   5  18
TORSDOF 9
ENDMDL
