REMARK  6 active torsions:
REMARK  status: ('A' for Active; 'I' for Inactive)
REMARK    1  A    between atoms: C_10  and  C_1 
REMARK       I    between atoms: C_1  and  N_14 
REMARK    2  A    between atoms: C_7  and  C_8 
REMARK    3  A    between atoms: C_8  and  N_19 
REMARK    4  A    between atoms: N_14  and  C_15 
REMARK    5  A    between atoms: C_15  and  C_16 
REMARK    6  A    between atoms: C_16  and  S_17 
ROOT
HETATM    1  C   UNK N   1       0.121   0.828  -0.711  0.00  0.00     0.307 C 
HETATM    2  C   UNK N   1       1.258   0.498   0.279  0.00  0.00     0.198 C 
HETATM    3  C   UNK N   1      -0.925  -0.986   0.571  0.00  0.00     0.292 C 
HETATM    4  C   UNK N   1       0.345  -1.793   0.335  0.00  0.00     0.145 C 
HETATM    5  N   UNK N   1       1.543  -0.946   0.251  0.00  0.00    -0.406 N 
HETATM    6  N   UNK N   1      -1.096   0.011  -0.494  0.00  0.00     0.096 N 
HETATM    7  H   UNK N   1       2.488  -1.324   0.180  0.00  0.00     0.154 HD
ENDROOT
BRANCH   2   8
HETATM    8  C   UNK N   1       2.522   1.271  -0.005  0.00  0.00     0.241 C 
HETATM    9  O   UNK N   1       2.501   2.492  -0.026  0.00  0.00    -0.271 OA
HETATM   10  N   UNK N   1       3.691   0.598  -0.164  0.00  0.00    -0.359 N 
HETATM   11  H   UNK N   1       3.668  -0.386  -0.161  0.00  0.00     0.162 HD
BRANCH  10  12
HETATM   12  C   UNK N   1       4.961   1.252  -0.335  0.00  0.00     0.132 C 
BRANCH  12  13
HETATM   13  C   UNK N   1       6.052   0.206  -0.221  0.00  0.00     0.090 C 
BRANCH  13  14
HETATM   14  S   UNK N   1       7.676   1.004  -0.108  0.00  0.00    -0.181 SA
HETATM   15  H   UNK N   1       8.804   0.248  -0.023  0.00  0.00     0.101 HD
ENDBRANCH  13  14
ENDBRANCH  12  13
ENDBRANCH  10  12
ENDBRANCH   2   8
BRANCH   6  16
HETATM   16  C   UNK N   1      -2.194   0.912  -0.134  0.00  0.00     0.311 C 
BRANCH  16  17
HETATM   17  C   UNK N   1      -3.555   0.251  -0.121  0.00  0.00    -0.030 A 
HETATM   18  C   UNK N   1      -4.688   1.038   0.118  0.00  0.00     0.012 A 
HETATM   19  C   UNK N   1      -5.961   0.455   0.149  0.00  0.00     0.043 A 
HETATM   20  C   UNK N   1      -6.107  -0.921  -0.051  0.00  0.00     0.116 A 
HETATM   21  C   UNK N   1      -4.982  -1.714  -0.288  0.00  0.00     0.043 A 
HETATM   22  F   UNK N   1      -7.337  -1.486  -0.016  0.00  0.00    -0.206 F 
HETATM   23  C   UNK N   1      -3.714  -1.130  -0.328  0.00  0.00     0.012 A 
ENDBRANCH  16  17
ENDBRANCH   6  16
TORSDOF 6
