MODEL 1
REMARK VINA RESULT:      -6.0      0.000      0.000
REMARK  6 active torsions:
REMARK  status: ('A' for Active; 'I' for Inactive)
REMARK    1  A    between atoms: C_10  and  C_1 
REMARK       I    between atoms: C_1  and  N_14 
REMARK    2  A    between atoms: C_7  and  C_8 
REMARK    3  A    between atoms: C_8  and  N_19 
REMARK    4  A    between atoms: N_14  and  C_15 
REMARK    5  A    between atoms: C_15  and  C_16 
REMARK    6  A    between atoms: C_16  and  S_17 
ROOT
HETATM    1  C   UNK N   1      34.860  14.918  11.542  0.00  0.00     0.307 C 
HETATM    2  C   UNK N   1      35.668  15.663  10.458  0.00  0.00     0.198 C 
HETATM    3  C   UNK N   1      36.863  13.501  11.435  0.00  0.00     0.292 C 
HETATM    4  C   UNK N   1      36.683  13.479   9.922  0.00  0.00     0.145 C 
HETATM    5  N   UNK N   1      36.086  14.720   9.408  0.00  0.00    -0.406 N 
HETATM    6  N   UNK N   1      35.572  13.742  12.094  0.00  0.00     0.096 N 
HETATM    7  H   UNK N   1      35.972  14.911   8.412  0.00  0.00     0.154 HD
ENDROOT
BRANCH   2   8
HETATM    8  C   UNK N   1      34.900  16.805   9.840  0.00  0.00     0.241 C 
HETATM    9  O   UNK N   1      35.408  17.913   9.764  0.00  0.00    -0.271 OA
HETATM   10  N   UNK N   1      33.674  16.569   9.306  0.00  0.00    -0.359 N 
HETATM   11  H   UNK N   1      33.287  15.669   9.402  0.00  0.00     0.162 HD
BRANCH  10  12
HETATM   12  C   UNK N   1      32.913  17.569   8.605  0.00  0.00     0.132 C 
BRANCH  12  13
HETATM   13  C   UNK N   1      32.434  16.970   7.298  0.00  0.00     0.090 C 
BRANCH  13  14
HETATM   14  S   UNK N   1      33.726  17.107   6.034  0.00  0.00    -0.181 SA
HETATM   15  H   UNK N   1      34.282  18.317   5.755  0.00  0.00     0.101 HD
ENDBRANCH  13  14
ENDBRANCH  12  13
ENDBRANCH  10  12
ENDBRANCH   2   8
BRANCH   6  16
HETATM   16  C   UNK N   1      35.801  13.974  13.522  0.00  0.00     0.311 C 
BRANCH  16  17
HETATM   17  C   UNK N   1      35.369  12.828  14.411  0.00  0.00    -0.030 A 
HETATM   18  C   UNK N   1      35.904  12.732  15.701  0.00  0.00     0.012 A 
HETATM   19  C   UNK N   1      35.534  11.677  16.544  0.00  0.00     0.043 A 
HETATM   20  C   UNK N   1      34.632  10.706  16.098  0.00  0.00     0.116 A 
HETATM   21  C   UNK N   1      34.095  10.793  14.811  0.00  0.00     0.043 A 
HETATM   22  F   UNK N   1      34.278   9.683  16.910  0.00  0.00    -0.206 F 
HETATM   23  C   UNK N   1      34.457  11.851  13.975  0.00  0.00     0.012 A 
ENDBRANCH  16  17
ENDBRANCH   6  16
TORSDOF 6
ENDMDL
MODEL 2
REMARK VINA RESULT:      -6.0      1.817      2.309
REMARK  6 active torsions:
REMARK  status: ('A' for Active; 'I' for Inactive)
REMARK    1  A    between atoms: C_10  and  C_1 
REMARK       I    between atoms: C_1  and  N_14 
REMARK    2  A    between atoms: C_7  and  C_8 
REMARK    3  A    between atoms: C_8  and  N_19 
REMARK    4  A    between atoms: N_14  and  C_15 
REMARK    5  A    between atoms: C_15  and  C_16 
REMARK    6  A    between atoms: C_16  and  S_17 
ROOT
HETATM    1  C   UNK N   1      35.254  14.801  11.860  0.00  0.00     0.307 C 
HETATM    2  C   UNK N   1      35.442  14.959  10.336  0.00  0.00     0.198 C 
HETATM    3  C   UNK N   1      35.643  12.463  11.221  0.00  0.00     0.292 C 
HETATM    4  C   UNK N   1      34.586  12.653  10.142  0.00  0.00     0.145 C 
HETATM    5  N   UNK N   1      34.551  14.028   9.623  0.00  0.00    -0.406 N 
HETATM    6  N   UNK N   1      35.414  13.404  12.325  0.00  0.00     0.096 N 
HETATM    7  H   UNK N   1      33.963  14.312   8.839  0.00  0.00     0.154 HD
ENDROOT
BRANCH   2   8
HETATM    8  C   UNK N   1      35.190  16.368   9.859  0.00  0.00     0.241 C 
HETATM    9  O   UNK N   1      35.646  17.315  10.481  0.00  0.00    -0.271 OA
HETATM   10  N   UNK N   1      34.517  16.566   8.696  0.00  0.00    -0.359 N 
HETATM   11  H   UNK N   1      34.146  15.781   8.232  0.00  0.00     0.162 HD
BRANCH  10  12
HETATM   12  C   UNK N   1      34.319  17.864   8.110  0.00  0.00     0.132 C 
BRANCH  12  13
HETATM   13  C   UNK N   1      32.830  18.142   8.064  0.00  0.00     0.090 C 
BRANCH  13  14
HETATM   14  S   UNK N   1      31.905  16.586   7.961  0.00  0.00    -0.181 SA
HETATM   15  H   UNK N   1      31.289  16.234   6.800  0.00  0.00     0.101 HD
ENDBRANCH  13  14
ENDBRANCH  12  13
ENDBRANCH  10  12
ENDBRANCH   2   8
BRANCH   6  16
HETATM   16  C   UNK N   1      36.557  13.354  13.241  0.00  0.00     0.311 C 
BRANCH  16  17
HETATM   17  C   UNK N   1      36.190  13.553  14.696  0.00  0.00    -0.030 A 
HETATM   18  C   UNK N   1      35.097  12.853  15.221  0.00  0.00     0.012 A 
HETATM   19  C   UNK N   1      34.724  13.025  16.560  0.00  0.00     0.043 A 
HETATM   20  C   UNK N   1      35.438  13.904  17.379  0.00  0.00     0.116 A 
HETATM   21  C   UNK N   1      36.528  14.609  16.863  0.00  0.00     0.043 A 
HETATM   22  F   UNK N   1      35.074  14.075  18.673  0.00  0.00    -0.206 F 
HETATM   23  C   UNK N   1      36.905  14.430  15.530  0.00  0.00     0.012 A 
ENDBRANCH  16  17
ENDBRANCH   6  16
TORSDOF 6
ENDMDL
MODEL 3
REMARK VINA RESULT:      -5.6     12.638     14.563
REMARK  6 active torsions:
REMARK  status: ('A' for Active; 'I' for Inactive)
REMARK    1  A    between atoms: C_10  and  C_1 
REMARK       I    between atoms: C_1  and  N_14 
REMARK    2  A    between atoms: C_7  and  C_8 
REMARK    3  A    between atoms: C_8  and  N_19 
REMARK    4  A    between atoms: N_14  and  C_15 
REMARK    5  A    between atoms: C_15  and  C_16 
REMARK    6  A    between atoms: C_16  and  S_17 
ROOT
HETATM    1  C   UNK N   1      21.362  14.659   6.546  0.00  0.00     0.307 C 
HETATM    2  C   UNK N   1      20.087  15.455   6.192  0.00  0.00     0.198 C 
HETATM    3  C   UNK N   1      20.515  15.157   8.796  0.00  0.00     0.292 C 
HETATM    4  C   UNK N   1      20.385  16.608   8.352  0.00  0.00     0.145 C 
HETATM    5  N   UNK N   1      20.077  16.734   6.920  0.00  0.00    -0.406 N 
HETATM    6  N   UNK N   1      21.548  14.476   8.004  0.00  0.00     0.096 N 
HETATM    7  H   UNK N   1      19.873  17.627   6.471  0.00  0.00     0.154 HD
ENDROOT
BRANCH   2   8
HETATM    8  C   UNK N   1      19.952  15.712   4.711  0.00  0.00     0.241 C 
HETATM    9  O   UNK N   1      19.415  14.883   3.992  0.00  0.00    -0.271 OA
HETATM   10  N   UNK N   1      20.368  16.901   4.203  0.00  0.00    -0.359 N 
HETATM   11  H   UNK N   1      20.814  17.538   4.807  0.00  0.00     0.162 HD
BRANCH  10  12
HETATM   12  C   UNK N   1      20.186  17.277   2.826  0.00  0.00     0.132 C 
BRANCH  12  13
HETATM   13  C   UNK N   1      19.524  18.640   2.790  0.00  0.00     0.090 C 
BRANCH  13  14
HETATM   14  S   UNK N   1      20.701  19.923   3.296  0.00  0.00    -0.181 SA
HETATM   15  H   UNK N   1      21.823  20.149   2.561  0.00  0.00     0.101 HD
ENDBRANCH  13  14
ENDBRANCH  12  13
ENDBRANCH  10  12
ENDBRANCH   2   8
BRANCH   6  16
HETATM   16  C   UNK N   1      21.504  13.041   8.295  0.00  0.00     0.311 C 
BRANCH  16  17
HETATM   17  C   UNK N   1      22.046  12.671   9.658  0.00  0.00    -0.030 A 
HETATM   18  C   UNK N   1      23.430  12.544   9.826  0.00  0.00     0.012 A 
HETATM   19  C   UNK N   1      23.963  12.191  11.072  0.00  0.00     0.043 A 
HETATM   20  C   UNK N   1      23.113  11.954  12.156  0.00  0.00     0.116 A 
HETATM   21  C   UNK N   1      21.731  12.077  11.998  0.00  0.00     0.043 A 
HETATM   22  F   UNK N   1      23.627  11.608  13.360  0.00  0.00    -0.206 F 
HETATM   23  C   UNK N   1      21.201  12.439  10.757  0.00  0.00     0.012 A 
ENDBRANCH  16  17
ENDBRANCH   6  16
TORSDOF 6
ENDMDL
MODEL 4
REMARK VINA RESULT:      -5.6      6.399     11.005
REMARK  6 active torsions:
REMARK  status: ('A' for Active; 'I' for Inactive)
REMARK    1  A    between atoms: C_10  and  C_1 
REMARK       I    between atoms: C_1  and  N_14 
REMARK    2  A    between atoms: C_7  and  C_8 
REMARK    3  A    between atoms: C_8  and  N_19 
REMARK    4  A    between atoms: N_14  and  C_15 
REMARK    5  A    between atoms: C_15  and  C_16 
REMARK    6  A    between atoms: C_16  and  S_17 
ROOT
HETATM    1  C   UNK N   1      30.393  16.792   7.108  0.00  0.00     0.307 C 
HETATM    2  C   UNK N   1      31.232  17.409   8.247  0.00  0.00     0.198 C 
HETATM    3  C   UNK N   1      28.900  18.607   7.821  0.00  0.00     0.292 C 
HETATM    4  C   UNK N   1      29.089  18.109   9.248  0.00  0.00     0.145 C 
HETATM    5  N   UNK N   1      30.417  17.518   9.467  0.00  0.00    -0.406 N 
HETATM    6  N   UNK N   1      29.118  17.509   6.869  0.00  0.00     0.096 N 
HETATM    7  H   UNK N   1      30.745  17.211  10.383  0.00  0.00     0.154 HD
ENDROOT
BRANCH   2   8
HETATM    8  C   UNK N   1      32.485  16.622   8.541  0.00  0.00     0.241 C 
HETATM    9  O   UNK N   1      32.553  15.442   8.232  0.00  0.00    -0.271 OA
HETATM   10  N   UNK N   1      33.556  17.256   9.085  0.00  0.00    -0.359 N 
HETATM   11  H   UNK N   1      33.460  18.202   9.340  0.00  0.00     0.162 HD
BRANCH  10  12
HETATM   12  C   UNK N   1      34.825  16.614   9.305  0.00  0.00     0.132 C 
BRANCH  12  13
HETATM   13  C   UNK N   1      35.005  16.421  10.798  0.00  0.00     0.090 C 
BRANCH  13  14
HETATM   14  S   UNK N   1      34.621  14.710  11.259  0.00  0.00    -0.181 SA
HETATM   15  H   UNK N   1      34.850  14.277  12.528  0.00  0.00     0.101 HD
ENDBRANCH  13  14
ENDBRANCH  12  13
ENDBRANCH  10  12
ENDBRANCH   2   8
BRANCH   6  16
HETATM   16  C   UNK N   1      29.147  18.053   5.509  0.00  0.00     0.311 C 
BRANCH  16  17
HETATM   17  C   UNK N   1      27.818  18.603   5.037  0.00  0.00    -0.030 A 
HETATM   18  C   UNK N   1      27.757  19.922   4.574  0.00  0.00     0.012 A 
HETATM   19  C   UNK N   1      26.540  20.465   4.142  0.00  0.00     0.043 A 
HETATM   20  C   UNK N   1      25.376  19.692   4.178  0.00  0.00     0.116 A 
HETATM   21  C   UNK N   1      25.427  18.376   4.641  0.00  0.00     0.043 A 
HETATM   22  F   UNK N   1      24.198  20.218   3.765  0.00  0.00    -0.206 F 
HETATM   23  C   UNK N   1      26.643  17.833   5.063  0.00  0.00     0.012 A 
ENDBRANCH  16  17
ENDBRANCH   6  16
TORSDOF 6
ENDMDL
MODEL 5
REMARK VINA RESULT:      -5.5      5.243      9.345
REMARK  6 active torsions:
REMARK  status: ('A' for Active; 'I' for Inactive)
REMARK    1  A    between atoms: C_10  and  C_1 
REMARK       I    between atoms: C_1  and  N_14 
REMARK    2  A    between atoms: C_7  and  C_8 
REMARK    3  A    between atoms: C_8  and  N_19 
REMARK    4  A    between atoms: N_14  and  C_15 
REMARK    5  A    between atoms: C_15  and  C_16 
REMARK    6  A    between atoms: C_16  and  S_17 
ROOT
HETATM    1  C   UNK N   1      32.621  17.464   8.371  0.00  0.00     0.307 C 
HETATM    2  C   UNK N   1      33.810  16.479   8.356  0.00  0.00     0.198 C 
HETATM    3  C   UNK N   1      32.370  16.505   6.125  0.00  0.00     0.292 C 
HETATM    4  C   UNK N   1      33.850  16.795   5.910  0.00  0.00     0.145 C 
HETATM    5  N   UNK N   1      34.628  16.701   7.153  0.00  0.00    -0.406 N 
HETATM    6  N   UNK N   1      31.815  17.423   7.129  0.00  0.00     0.096 N 
HETATM    7  H   UNK N   1      35.645  16.781   7.180  0.00  0.00     0.154 HD
ENDROOT
BRANCH   2   8
HETATM    8  C   UNK N   1      34.675  16.590   9.587  0.00  0.00     0.241 C 
HETATM    9  O   UNK N   1      35.245  17.640   9.842  0.00  0.00    -0.271 OA
HETATM   10  N   UNK N   1      34.754  15.537  10.441  0.00  0.00    -0.359 N 
HETATM   11  H   UNK N   1      34.299  14.700  10.194  0.00  0.00     0.162 HD
BRANCH  10  12
HETATM   12  C   UNK N   1      35.469  15.584  11.688  0.00  0.00     0.132 C 
BRANCH  12  13
HETATM   13  C   UNK N   1      35.408  14.209  12.322  0.00  0.00     0.090 C 
BRANCH  13  14
HETATM   14  S   UNK N   1      36.326  14.198  13.886  0.00  0.00    -0.181 SA
HETATM   15  H   UNK N   1      37.255  13.234  14.126  0.00  0.00     0.101 HD
ENDBRANCH  13  14
ENDBRANCH  12  13
ENDBRANCH  10  12
ENDBRANCH   2   8
BRANCH   6  16
HETATM   16  C   UNK N   1      30.460  16.990   7.476  0.00  0.00     0.311 C 
BRANCH  16  17
HETATM   17  C   UNK N   1      29.369  17.900   6.957  0.00  0.00    -0.030 A 
HETATM   18  C   UNK N   1      28.722  18.762   7.851  0.00  0.00     0.012 A 
HETATM   19  C   UNK N   1      27.700  19.608   7.405  0.00  0.00     0.043 A 
HETATM   20  C   UNK N   1      27.312  19.592   6.062  0.00  0.00     0.116 A 
HETATM   21  C   UNK N   1      27.950  18.734   5.163  0.00  0.00     0.043 A 
HETATM   22  F   UNK N   1      26.320  20.406   5.631  0.00  0.00    -0.206 F 
HETATM   23  C   UNK N   1      28.976  17.897   5.607  0.00  0.00     0.012 A 
ENDBRANCH  16  17
ENDBRANCH   6  16
TORSDOF 6
ENDMDL
MODEL 6
REMARK VINA RESULT:      -5.5      4.664      7.925
REMARK  6 active torsions:
REMARK  status: ('A' for Active; 'I' for Inactive)
REMARK    1  A    between atoms: C_10  and  C_1 
REMARK       I    between atoms: C_1  and  N_14 
REMARK    2  A    between atoms: C_7  and  C_8 
REMARK    3  A    between atoms: C_8  and  N_19 
REMARK    4  A    between atoms: N_14  and  C_15 
REMARK    5  A    between atoms: C_15  and  C_16 
REMARK    6  A    between atoms: C_16  and  S_17 
ROOT
HETATM    1  C   UNK N   1      35.533  14.941  12.292  0.00  0.00     0.307 C 
HETATM    2  C   UNK N   1      36.030  13.624  12.924  0.00  0.00     0.198 C 
HETATM    3  C   UNK N   1      36.129  13.681  10.271  0.00  0.00     0.292 C 
HETATM    4  C   UNK N   1      37.468  13.383  10.934  0.00  0.00     0.145 C 
HETATM    5  N   UNK N   1      37.362  13.286  12.397  0.00  0.00    -0.406 N 
HETATM    6  N   UNK N   1      35.563  14.924  10.811  0.00  0.00     0.096 N 
HETATM    7  H   UNK N   1      38.142  13.010  12.994  0.00  0.00     0.154 HD
ENDROOT
BRANCH   2   8
HETATM    8  C   UNK N   1      36.080  13.681  14.431  0.00  0.00     0.241 C 
HETATM    9  O   UNK N   1      36.924  14.364  14.990  0.00  0.00    -0.271 OA
HETATM   10  N   UNK N   1      35.134  13.026  15.153  0.00  0.00    -0.359 N 
HETATM   11  H   UNK N   1      34.481  12.469  14.671  0.00  0.00     0.162 HD
BRANCH  10  12
HETATM   12  C   UNK N   1      35.038  13.107  16.586  0.00  0.00     0.132 C 
BRANCH  12  13
HETATM   13  C   UNK N   1      35.406  11.754  17.162  0.00  0.00     0.090 C 
BRANCH  13  14
HETATM   14  S   UNK N   1      34.765  10.427  16.105  0.00  0.00    -0.181 SA
HETATM   15  H   UNK N   1      33.468  10.447  15.695  0.00  0.00     0.101 HD
ENDBRANCH  13  14
ENDBRANCH  12  13
ENDBRANCH  10  12
ENDBRANCH   2   8
BRANCH   6  16
HETATM   16  C   UNK N   1      34.190  15.076  10.324  0.00  0.00     0.311 C 
BRANCH  16  17
HETATM   17  C   UNK N   1      34.075  15.865   9.038  0.00  0.00    -0.030 A 
HETATM   18  C   UNK N   1      33.724  15.195   7.860  0.00  0.00     0.012 A 
HETATM   19  C   UNK N   1      33.621  15.894   6.651  0.00  0.00     0.043 A 
HETATM   20  C   UNK N   1      33.878  17.268   6.612  0.00  0.00     0.116 A 
HETATM   21  C   UNK N   1      34.231  17.945   7.782  0.00  0.00     0.043 A 
HETATM   22  F   UNK N   1      33.784  17.944   5.443  0.00  0.00    -0.206 F 
HETATM   23  C   UNK N   1      34.323  17.248   8.989  0.00  0.00     0.012 A 
ENDBRANCH  16  17
ENDBRANCH   6  16
TORSDOF 6
ENDMDL
MODEL 7
REMARK VINA RESULT:      -5.5      5.068      8.970
REMARK  6 active torsions:
REMARK  status: ('A' for Active; 'I' for Inactive)
REMARK    1  A    between atoms: C_10  and  C_1 
REMARK       I    between atoms: C_1  and  N_14 
REMARK    2  A    between atoms: C_7  and  C_8 
REMARK    3  A    between atoms: C_8  and  N_19 
REMARK    4  A    between atoms: N_14  and  C_15 
REMARK    5  A    between atoms: C_15  and  C_16 
REMARK    6  A    between atoms: C_16  and  S_17 
ROOT
HETATM    1  C   UNK N   1      34.556  14.493   8.938  0.00  0.00     0.307 C 
HETATM    2  C   UNK N   1      34.214  15.076  10.326  0.00  0.00     0.198 C 
HETATM    3  C   UNK N   1      32.705  15.991   8.342  0.00  0.00     0.292 C 
HETATM    4  C   UNK N   1      31.915  15.356   9.479  0.00  0.00     0.145 C 
HETATM    5  N   UNK N   1      32.774  14.927  10.591  0.00  0.00    -0.406 N 
HETATM    6  N   UNK N   1      33.723  15.055   7.849  0.00  0.00     0.096 N 
HETATM    7  H   UNK N   1      32.406  14.558  11.469  0.00  0.00     0.154 HD
ENDROOT
BRANCH   2   8
HETATM    8  C   UNK N   1      35.005  14.434  11.439  0.00  0.00     0.241 C 
HETATM    9  O   UNK N   1      35.983  15.001  11.901  0.00  0.00    -0.271 OA
HETATM   10  N   UNK N   1      34.575  13.259  11.968  0.00  0.00    -0.359 N 
HETATM   11  H   UNK N   1      33.795  12.820  11.558  0.00  0.00     0.162 HD
BRANCH  10  12
HETATM   12  C   UNK N   1      35.202  12.625  13.097  0.00  0.00     0.132 C 
BRANCH  12  13
HETATM   13  C   UNK N   1      34.801  11.164  13.104  0.00  0.00     0.090 C 
BRANCH  13  14
HETATM   14  S   UNK N   1      33.840  10.785  14.594  0.00  0.00    -0.181 SA
HETATM   15  H   UNK N   1      32.892   9.809  14.566  0.00  0.00     0.101 HD
ENDBRANCH  13  14
ENDBRANCH  12  13
ENDBRANCH  10  12
ENDBRANCH   2   8
BRANCH   6  16
HETATM   16  C   UNK N   1      34.606  15.758   6.914  0.00  0.00     0.311 C 
BRANCH  16  17
HETATM   17  C   UNK N   1      33.931  16.183   5.629  0.00  0.00    -0.030 A 
HETATM   18  C   UNK N   1      33.861  15.272   4.567  0.00  0.00     0.012 A 
HETATM   19  C   UNK N   1      33.254  15.638   3.360  0.00  0.00     0.043 A 
HETATM   20  C   UNK N   1      32.719  16.921   3.204  0.00  0.00     0.116 A 
HETATM   21  C   UNK N   1      32.785  17.836   4.257  0.00  0.00     0.043 A 
HETATM   22  F   UNK N   1      32.136  17.277   2.035  0.00  0.00    -0.206 F 
HETATM   23  C   UNK N   1      33.383  17.466   5.464  0.00  0.00     0.012 A 
ENDBRANCH  16  17
ENDBRANCH   6  16
TORSDOF 6
ENDMDL
MODEL 8
REMARK VINA RESULT:      -5.4      1.882      2.647
REMARK  6 active torsions:
REMARK  status: ('A' for Active; 'I' for Inactive)
REMARK    1  A    between atoms: C_10  and  C_1 
REMARK       I    between atoms: C_1  and  N_14 
REMARK    2  A    between atoms: C_7  and  C_8 
REMARK    3  A    between atoms: C_8  and  N_19 
REMARK    4  A    between atoms: N_14  and  C_15 
REMARK    5  A    between atoms: C_15  and  C_16 
REMARK    6  A    between atoms: C_16  and  S_17 
ROOT
HETATM    1  C   UNK N   1      35.087  13.747  12.907  0.00  0.00     0.307 C 
HETATM    2  C   UNK N   1      36.313  14.486  12.329  0.00  0.00     0.198 C 
HETATM    3  C   UNK N   1      36.901  12.549  14.048  0.00  0.00     0.292 C 
HETATM    4  C   UNK N   1      37.560  12.387  12.684  0.00  0.00     0.145 C 
HETATM    5  N   UNK N   1      37.273  13.512  11.783  0.00  0.00    -0.406 N 
HETATM    6  N   UNK N   1      35.449  12.701  13.893  0.00  0.00     0.096 N 
HETATM    7  H   UNK N   1      37.700  13.610  10.862  0.00  0.00     0.154 HD
ENDROOT
BRANCH   2   8
HETATM    8  C   UNK N   1      35.942  15.486  11.262  0.00  0.00     0.241 C 
HETATM    9  O   UNK N   1      36.812  16.140  10.708  0.00  0.00    -0.271 OA
HETATM   10  N   UNK N   1      34.644  15.597  10.877  0.00  0.00    -0.359 N 
HETATM   11  H   UNK N   1      33.967  15.069  11.359  0.00  0.00     0.162 HD
BRANCH  10  12
HETATM   12  C   UNK N   1      34.211  16.446   9.800  0.00  0.00     0.132 C 
BRANCH  12  13
HETATM   13  C   UNK N   1      34.058  15.593   8.557  0.00  0.00     0.090 C 
BRANCH  13  14
HETATM   14  S   UNK N   1      32.774  14.339   8.811  0.00  0.00    -0.181 SA
HETATM   15  H   UNK N   1      32.798  13.182   8.095  0.00  0.00     0.101 HD
ENDBRANCH  13  14
ENDBRANCH  12  13
ENDBRANCH  10  12
ENDBRANCH   2   8
BRANCH   6  16
HETATM   16  C   UNK N   1      34.866  13.070  15.185  0.00  0.00     0.311 C 
BRANCH  16  17
HETATM   17  C   UNK N   1      34.944  11.979  16.231  0.00  0.00    -0.030 A 
HETATM   18  C   UNK N   1      34.653  10.661  15.857  0.00  0.00     0.012 A 
HETATM   19  C   UNK N   1      34.704   9.630  16.803  0.00  0.00     0.043 A 
HETATM   20  C   UNK N   1      35.038   9.913  18.131  0.00  0.00     0.116 A 
HETATM   21  C   UNK N   1      35.327  11.225  18.513  0.00  0.00     0.043 A 
HETATM   22  F   UNK N   1      35.082   8.917  19.047  0.00  0.00    -0.206 F 
HETATM   23  C   UNK N   1      35.285  12.251  17.567  0.00  0.00     0.012 A 
ENDBRANCH  16  17
ENDBRANCH   6  16
TORSDOF 6
ENDMDL
MODEL 9
REMARK VINA RESULT:      -5.3     14.089     16.736
REMARK  6 active torsions:
REMARK  status: ('A' for Active; 'I' for Inactive)
REMARK    1  A    between atoms: C_10  and  C_1 
REMARK       I    between atoms: C_1  and  N_14 
REMARK    2  A    between atoms: C_7  and  C_8 
REMARK    3  A    between atoms: C_8  and  N_19 
REMARK    4  A    between atoms: N_14  and  C_15 
REMARK    5  A    between atoms: C_15  and  C_16 
REMARK    6  A    between atoms: C_16  and  S_17 
ROOT
HETATM    1  C   UNK N   1      21.293  17.894   2.876  0.00  0.00     0.307 C 
HETATM    2  C   UNK N   1      20.149  18.163   1.876  0.00  0.00     0.198 C 
HETATM    3  C   UNK N   1      20.734  20.212   3.460  0.00  0.00     0.292 C 
HETATM    4  C   UNK N   1      20.819  20.535   1.974  0.00  0.00     0.145 C 
HETATM    5  N   UNK N   1      20.419  19.402   1.128  0.00  0.00    -0.406 N 
HETATM    6  N   UNK N   1      21.566  19.043   3.772  0.00  0.00     0.096 N 
HETATM    7  H   UNK N   1      20.335  19.467   0.113  0.00  0.00     0.154 HD
ENDROOT
BRANCH   2   8
HETATM    8  C   UNK N   1      19.938  17.023   0.911  0.00  0.00     0.241 C 
HETATM    9  O   UNK N   1      20.321  17.120  -0.245  0.00  0.00    -0.271 OA
HETATM   10  N   UNK N   1      19.385  15.866   1.360  0.00  0.00    -0.359 N 
HETATM   11  H   UNK N   1      19.069  15.830   2.291  0.00  0.00     0.162 HD
BRANCH  10  12
HETATM   12  C   UNK N   1      19.238  14.692   0.542  0.00  0.00     0.132 C 
BRANCH  12  13
HETATM   13  C   UNK N   1      18.905  13.522   1.446  0.00  0.00     0.090 C 
BRANCH  13  14
HETATM   14  S   UNK N   1      19.431  13.874   3.145  0.00  0.00    -0.181 SA
HETATM   15  H   UNK N   1      19.143  15.076   3.714  0.00  0.00     0.101 HD
ENDBRANCH  13  14
ENDBRANCH  12  13
ENDBRANCH  10  12
ENDBRANCH   2   8
BRANCH   6  16
HETATM   16  C   UNK N   1      21.301  18.621   5.150  0.00  0.00     0.311 C 
BRANCH  16  17
HETATM   17  C   UNK N   1      22.166  17.472   5.620  0.00  0.00    -0.030 A 
HETATM   18  C   UNK N   1      23.505  17.422   5.216  0.00  0.00     0.012 A 
HETATM   19  C   UNK N   1      24.329  16.365   5.624  0.00  0.00     0.043 A 
HETATM   20  C   UNK N   1      23.815  15.347   6.432  0.00  0.00     0.116 A 
HETATM   21  C   UNK N   1      22.479  15.387   6.838  0.00  0.00     0.043 A 
HETATM   22  F   UNK N   1      24.609  14.322   6.822  0.00  0.00    -0.206 F 
HETATM   23  C   UNK N   1      21.661  16.447   6.439  0.00  0.00     0.012 A 
ENDBRANCH  16  17
ENDBRANCH   6  16
TORSDOF 6
ENDMDL
