MODEL 1
REMARK VINA RESULT:      -6.1      0.000      0.000
REMARK  7 active torsions:
REMARK  status: ('A' for Active; 'I' for Inactive)
REMARK    1  A    between atoms: C_5  and  C_6 
REMARK    2  A    between atoms: C_5  and  S_21 
REMARK    3  A    between atoms: C_6  and  C_7 
REMARK    4  A    between atoms: C_7  and  N_20 
REMARK    5  A    between atoms: C_10  and  C_8 
REMARK       I    between atoms: C_8  and  N_20 
REMARK    6  A    between atoms: C_15  and  C_16 
REMARK    7  A    between atoms: C_16  and  N_17 
ROOT
HETATM    1  C   UNK N   1      20.366  13.898   6.362  0.00  0.00     0.307 C 
HETATM    2  C   UNK N   1      20.584  14.932   5.232  0.00  0.00     0.198 C 
HETATM    3  C   UNK N   1      20.621  15.832   7.812  0.00  0.00     0.292 C 
HETATM    4  C   UNK N   1      21.526  16.560   6.808  0.00  0.00     0.145 C 
HETATM    5  N   UNK N   1      20.741  14.369   7.705  0.00  0.00     0.096 N 
HETATM    6  N   UNK N   1      21.716  15.813   5.557  0.00  0.00    -0.406 N 
HETATM    7  H   UNK N   1      22.549  15.896   4.974  0.00  0.00     0.154 HD
ENDROOT
BRANCH   2   8
HETATM    8  C   UNK N   1      19.304  15.709   4.937  0.00  0.00     0.241 C 
HETATM    9  O   UNK N   1      18.374  15.677   5.724  0.00  0.00    -0.271 OA
HETATM   10  N   UNK N   1      19.185  16.459   3.811  0.00  0.00    -0.359 N 
HETATM   11  H   UNK N   1      18.322  16.888   3.613  0.00  0.00     0.162 HD
BRANCH  10  12
HETATM   12  C   UNK N   1      20.282  16.647   2.897  0.00  0.00     0.123 C 
BRANCH  12  13
HETATM   13  C   UNK N   1      20.224  18.019   2.266  0.00  0.00     0.029 C 
BRANCH  13  14
HETATM   14  C   UNK N   1      20.517  19.039   3.346  0.00  0.00     0.072 C 
BRANCH  14  15
HETATM   15  S   UNK N   1      21.048  20.599   2.594  0.00  0.00    -0.182 SA
HETATM   16  H   UNK N   1      20.301  21.505   1.909  0.00  0.00     0.101 HD
ENDBRANCH  14  15
ENDBRANCH  13  14
ENDBRANCH  12  13
ENDBRANCH  10  12
ENDBRANCH   2   8
BRANCH   5  17
HETATM   17  C   UNK N   1      22.102  13.878   7.968  0.00  0.00     0.311 C 
BRANCH  17  18
HETATM   18  C   UNK N   1      22.258  13.206   9.298  0.00  0.00    -0.030 A 
HETATM   19  C   UNK N   1      23.546  12.922   9.758  0.00  0.00     0.012 A 
HETATM   20  C   UNK N   1      23.731  12.322  11.004  0.00  0.00     0.043 A 
HETATM   21  C   UNK N   1      22.625  11.999  11.792  0.00  0.00     0.116 A 
HETATM   22  F   UNK N   1      22.808  11.418  13.002  0.00  0.00    -0.206 F 
HETATM   23  C   UNK N   1      21.331  12.274  11.332  0.00  0.00     0.043 A 
HETATM   24  C   UNK N   1      21.146  12.881  10.084  0.00  0.00     0.012 A 
ENDBRANCH  17  18
ENDBRANCH   5  17
TORSDOF 7
ENDMDL
MODEL 2
REMARK VINA RESULT:      -5.8     12.499     14.356
REMARK  7 active torsions:
REMARK  status: ('A' for Active; 'I' for Inactive)
REMARK    1  A    between atoms: C_5  and  C_6 
REMARK    2  A    between atoms: C_5  and  S_21 
REMARK    3  A    between atoms: C_6  and  C_7 
REMARK    4  A    between atoms: C_7  and  N_20 
REMARK    5  A    between atoms: C_10  and  C_8 
REMARK       I    between atoms: C_8  and  N_20 
REMARK    6  A    between atoms: C_15  and  C_16 
REMARK    7  A    between atoms: C_16  and  N_17 
ROOT
HETATM    1  C   UNK N   1      35.031  15.272  11.656  0.00  0.00     0.307 C 
HETATM    2  C   UNK N   1      34.341  15.478  10.287  0.00  0.00     0.198 C 
HETATM    3  C   UNK N   1      36.967  14.723  10.293  0.00  0.00     0.292 C 
HETATM    4  C   UNK N   1      36.101  14.216   9.131  0.00  0.00     0.145 C 
HETATM    5  N   UNK N   1      36.307  14.541  11.596  0.00  0.00     0.096 N 
HETATM    6  N   UNK N   1      34.660  14.364   9.381  0.00  0.00    -0.406 N 
HETATM    7  H   UNK N   1      33.954  13.755   8.969  0.00  0.00     0.154 HD
ENDROOT
BRANCH   2   8
HETATM    8  C   UNK N   1      34.692  16.838   9.688  0.00  0.00     0.241 C 
HETATM    9  O   UNK N   1      35.606  17.495  10.156  0.00  0.00    -0.271 OA
HETATM   10  N   UNK N   1      34.012  17.328   8.619  0.00  0.00    -0.359 N 
HETATM   11  H   UNK N   1      34.213  18.238   8.303  0.00  0.00     0.162 HD
BRANCH  10  12
HETATM   12  C   UNK N   1      33.006  16.559   7.934  0.00  0.00     0.123 C 
BRANCH  12  13
HETATM   13  C   UNK N   1      31.770  17.392   7.687  0.00  0.00     0.029 C 
BRANCH  13  14
HETATM   14  C   UNK N   1      30.748  17.033   8.745  0.00  0.00     0.072 C 
BRANCH  14  15
HETATM   15  S   UNK N   1      29.875  18.523   9.290  0.00  0.00    -0.182 SA
HETATM   16  H   UNK N   1      29.107  19.370   8.555  0.00  0.00     0.101 HD
ENDBRANCH  14  15
ENDBRANCH  13  14
ENDBRANCH  12  13
ENDBRANCH  10  12
ENDBRANCH   2   8
BRANCH   5  17
HETATM   17  C   UNK N   1      36.011  13.134  11.905  0.00  0.00     0.311 C 
BRANCH  17  18
HETATM   18  C   UNK N   1      35.685  12.886  13.345  0.00  0.00    -0.030 A 
HETATM   19  C   UNK N   1      36.469  13.500  14.325  0.00  0.00     0.012 A 
HETATM   20  C   UNK N   1      36.178  13.313  15.677  0.00  0.00     0.043 A 
HETATM   21  C   UNK N   1      35.103  12.506  16.053  0.00  0.00     0.116 A 
HETATM   22  F   UNK N   1      34.822  12.329  17.367  0.00  0.00    -0.206 F 
HETATM   23  C   UNK N   1      34.319  11.883  15.076  0.00  0.00     0.043 A 
HETATM   24  C   UNK N   1      34.607  12.074  13.719  0.00  0.00     0.012 A 
ENDBRANCH  17  18
ENDBRANCH   5  17
TORSDOF 7
ENDMDL
MODEL 3
REMARK VINA RESULT:      -5.7     16.641     18.272
REMARK  7 active torsions:
REMARK  status: ('A' for Active; 'I' for Inactive)
REMARK    1  A    between atoms: C_5  and  C_6 
REMARK    2  A    between atoms: C_5  and  S_21 
REMARK    3  A    between atoms: C_6  and  C_7 
REMARK    4  A    between atoms: C_7  and  N_20 
REMARK    5  A    between atoms: C_10  and  C_8 
REMARK       I    between atoms: C_8  and  N_20 
REMARK    6  A    between atoms: C_15  and  C_16 
REMARK    7  A    between atoms: C_16  and  N_17 
ROOT
HETATM    1  C   UNK N   1      30.620  25.012  -3.401  0.00  0.00     0.307 C 
HETATM    2  C   UNK N   1      31.187  23.658  -3.890  0.00  0.00     0.198 C 
HETATM    3  C   UNK N   1      28.476  23.889  -3.632  0.00  0.00     0.292 C 
HETATM    4  C   UNK N   1      28.993  22.968  -4.747  0.00  0.00     0.145 C 
HETATM    5  N   UNK N   1      29.174  25.184  -3.617  0.00  0.00     0.096 N 
HETATM    6  N   UNK N   1      30.419  23.168  -5.043  0.00  0.00    -0.406 N 
HETATM    7  H   UNK N   1      30.832  22.988  -5.959  0.00  0.00     0.154 HD
ENDROOT
BRANCH   2   8
HETATM    8  C   UNK N   1      31.248  22.640  -2.753  0.00  0.00     0.241 C 
HETATM    9  O   UNK N   1      30.683  22.867  -1.697  0.00  0.00    -0.271 OA
HETATM   10  N   UNK N   1      31.911  21.464  -2.903  0.00  0.00    -0.359 N 
HETATM   11  H   UNK N   1      31.994  20.862  -2.129  0.00  0.00     0.162 HD
BRANCH  10  12
HETATM   12  C   UNK N   1      32.495  21.069  -4.159  0.00  0.00     0.123 C 
BRANCH  12  13
HETATM   13  C   UNK N   1      31.675  19.981  -4.812  0.00  0.00     0.029 C 
BRANCH  13  14
HETATM   14  C   UNK N   1      31.826  20.123  -6.312  0.00  0.00     0.072 C 
BRANCH  14  15
HETATM   15  S   UNK N   1      30.216  19.922  -7.117  0.00  0.00    -0.182 SA
HETATM   16  H   UNK N   1      29.039  20.533  -6.818  0.00  0.00     0.101 HD
ENDBRANCH  14  15
ENDBRANCH  13  14
ENDBRANCH  12  13
ENDBRANCH  10  12
ENDBRANCH   2   8
BRANCH   5  17
HETATM   17  C   UNK N   1      29.015  25.944  -4.866  0.00  0.00     0.311 C 
BRANCH  17  18
HETATM   18  C   UNK N   1      27.601  26.345  -5.156  0.00  0.00    -0.030 A 
HETATM   19  C   UNK N   1      26.929  27.147  -4.230  0.00  0.00     0.012 A 
HETATM   20  C   UNK N   1      25.620  27.562  -4.479  0.00  0.00     0.043 A 
HETATM   21  C   UNK N   1      24.977  27.171  -5.655  0.00  0.00     0.116 A 
HETATM   22  F   UNK N   1      23.707  27.577  -5.894  0.00  0.00    -0.206 F 
HETATM   23  C   UNK N   1      25.643  26.360  -6.582  0.00  0.00     0.043 A 
HETATM   24  C   UNK N   1      26.958  25.947  -6.335  0.00  0.00     0.012 A 
ENDBRANCH  17  18
ENDBRANCH   5  17
TORSDOF 7
ENDMDL
MODEL 4
REMARK VINA RESULT:      -5.7     12.647     14.496
REMARK  7 active torsions:
REMARK  status: ('A' for Active; 'I' for Inactive)
REMARK    1  A    between atoms: C_5  and  C_6 
REMARK    2  A    between atoms: C_5  and  S_21 
REMARK    3  A    between atoms: C_6  and  C_7 
REMARK    4  A    between atoms: C_7  and  N_20 
REMARK    5  A    between atoms: C_10  and  C_8 
REMARK       I    between atoms: C_8  and  N_20 
REMARK    6  A    between atoms: C_15  and  C_16 
REMARK    7  A    between atoms: C_16  and  N_17 
ROOT
HETATM    1  C   UNK N   1      35.144  15.290  11.835  0.00  0.00     0.307 C 
HETATM    2  C   UNK N   1      34.288  15.458  10.557  0.00  0.00     0.198 C 
HETATM    3  C   UNK N   1      36.889  14.674  10.259  0.00  0.00     0.292 C 
HETATM    4  C   UNK N   1      35.879  14.139   9.234  0.00  0.00     0.145 C 
HETATM    5  N   UNK N   1      36.398  14.543  11.640  0.00  0.00     0.096 N 
HETATM    6  N   UNK N   1      34.483  14.311   9.658  0.00  0.00    -0.406 N 
HETATM    7  H   UNK N   1      33.726  13.696   9.360  0.00  0.00     0.154 HD
ENDROOT
BRANCH   2   8
HETATM    8  C   UNK N   1      34.570  16.793   9.873  0.00  0.00     0.241 C 
HETATM    9  O   UNK N   1      35.595  17.405  10.123  0.00  0.00    -0.271 OA
HETATM   10  N   UNK N   1      33.703  17.310   8.964  0.00  0.00    -0.359 N 
HETATM   11  H   UNK N   1      33.876  18.206   8.595  0.00  0.00     0.162 HD
BRANCH  10  12
HETATM   12  C   UNK N   1      32.537  16.589   8.523  0.00  0.00     0.123 C 
BRANCH  12  13
HETATM   13  C   UNK N   1      32.053  17.116   7.192  0.00  0.00     0.029 C 
BRANCH  13  14
HETATM   14  C   UNK N   1      33.269  17.493   6.372  0.00  0.00     0.072 C 
BRANCH  14  15
HETATM   15  S   UNK N   1      32.884  17.378   4.606  0.00  0.00    -0.182 SA
HETATM   16  H   UNK N   1      31.772  16.865   4.015  0.00  0.00     0.101 HD
ENDBRANCH  14  15
ENDBRANCH  13  14
ENDBRANCH  12  13
ENDBRANCH  10  12
ENDBRANCH   2   8
BRANCH   5  17
HETATM   17  C   UNK N   1      36.133  13.151  12.033  0.00  0.00     0.311 C 
BRANCH  17  18
HETATM   18  C   UNK N   1      35.779  12.986  13.479  0.00  0.00    -0.030 A 
HETATM   19  C   UNK N   1      34.712  12.149  13.816  0.00  0.00     0.012 A 
HETATM   20  C   UNK N   1      34.370  11.950  15.154  0.00  0.00     0.043 A 
HETATM   21  C   UNK N   1      35.093  12.594  16.160  0.00  0.00     0.116 A 
HETATM   22  F   UNK N   1      34.760  12.396  17.459  0.00  0.00    -0.206 F 
HETATM   23  C   UNK N   1      36.158  13.439  15.828  0.00  0.00     0.043 A 
HETATM   24  C   UNK N   1      36.504  13.635  14.485  0.00  0.00     0.012 A 
ENDBRANCH  17  18
ENDBRANCH   5  17
TORSDOF 7
ENDMDL
MODEL 5
REMARK VINA RESULT:      -5.7     14.400     15.750
REMARK  7 active torsions:
REMARK  status: ('A' for Active; 'I' for Inactive)
REMARK    1  A    between atoms: C_5  and  C_6 
REMARK    2  A    between atoms: C_5  and  S_21 
REMARK    3  A    between atoms: C_6  and  C_7 
REMARK    4  A    between atoms: C_7  and  N_20 
REMARK    5  A    between atoms: C_10  and  C_8 
REMARK       I    between atoms: C_8  and  N_20 
REMARK    6  A    between atoms: C_15  and  C_16 
REMARK    7  A    between atoms: C_16  and  N_17 
ROOT
HETATM    1  C   UNK N   1      35.731  14.005  13.376  0.00  0.00     0.307 C 
HETATM    2  C   UNK N   1      35.202  14.070  11.924  0.00  0.00     0.198 C 
HETATM    3  C   UNK N   1      36.184  11.683  12.820  0.00  0.00     0.292 C 
HETATM    4  C   UNK N   1      35.038  11.624  11.799  0.00  0.00     0.145 C 
HETATM    5  N   UNK N   1      35.913  12.642  13.902  0.00  0.00     0.096 N 
HETATM    6  N   UNK N   1      34.344  12.910  11.640  0.00  0.00    -0.406 N 
HETATM    7  H   UNK N   1      33.365  12.989  11.363  0.00  0.00     0.154 HD
ENDROOT
BRANCH   2   8
HETATM    8  C   UNK N   1      36.346  14.211  10.923  0.00  0.00     0.241 C 
HETATM    9  O   UNK N   1      37.425  13.690  11.149  0.00  0.00    -0.271 OA
HETATM   10  N   UNK N   1      36.178  14.895   9.761  0.00  0.00    -0.359 N 
HETATM   11  H   UNK N   1      36.955  15.030   9.172  0.00  0.00     0.162 HD
BRANCH  10  12
HETATM   12  C   UNK N   1      34.901  15.430   9.364  0.00  0.00     0.123 C 
BRANCH  12  13
HETATM   13  C   UNK N   1      34.837  16.915   9.630  0.00  0.00     0.029 C 
BRANCH  13  14
HETATM   14  C   UNK N   1      34.436  17.601   8.341  0.00  0.00     0.072 C 
BRANCH  14  15
HETATM   15  S   UNK N   1      32.631  17.666   8.210  0.00  0.00    -0.182 SA
HETATM   16  H   UNK N   1      31.773  16.676   7.848  0.00  0.00     0.101 HD
ENDBRANCH  14  15
ENDBRANCH  13  14
ENDBRANCH  12  13
ENDBRANCH  10  12
ENDBRANCH   2   8
BRANCH   5  17
HETATM   17  C   UNK N   1      34.706  12.317  14.677  0.00  0.00     0.311 C 
BRANCH  17  18
HETATM   18  C   UNK N   1      34.954  12.159  16.146  0.00  0.00    -0.030 A 
HETATM   19  C   UNK N   1      34.958  13.301  16.951  0.00  0.00     0.012 A 
HETATM   20  C   UNK N   1      35.159  13.190  18.328  0.00  0.00     0.043 A 
HETATM   21  C   UNK N   1      35.361  11.934  18.902  0.00  0.00     0.116 A 
HETATM   22  F   UNK N   1      35.554  11.829  20.239  0.00  0.00    -0.206 F 
HETATM   23  C   UNK N   1      35.366  10.787  18.099  0.00  0.00     0.043 A 
HETATM   24  C   UNK N   1      35.159  10.898  16.719  0.00  0.00     0.012 A 
ENDBRANCH  17  18
ENDBRANCH   5  17
TORSDOF 7
ENDMDL
MODEL 6
REMARK VINA RESULT:      -5.6      4.366      8.194
REMARK  7 active torsions:
REMARK  status: ('A' for Active; 'I' for Inactive)
REMARK    1  A    between atoms: C_5  and  C_6 
REMARK    2  A    between atoms: C_5  and  S_21 
REMARK    3  A    between atoms: C_6  and  C_7 
REMARK    4  A    between atoms: C_7  and  N_20 
REMARK    5  A    between atoms: C_10  and  C_8 
REMARK       I    between atoms: C_8  and  N_20 
REMARK    6  A    between atoms: C_15  and  C_16 
REMARK    7  A    between atoms: C_16  and  N_17 
ROOT
HETATM    1  C   UNK N   1      20.917  16.820   7.057  0.00  0.00     0.307 C 
HETATM    2  C   UNK N   1      21.364  15.593   7.887  0.00  0.00     0.198 C 
HETATM    3  C   UNK N   1      19.719  15.158   5.748  0.00  0.00     0.292 C 
HETATM    4  C   UNK N   1      20.733  14.054   6.082  0.00  0.00     0.145 C 
HETATM    5  N   UNK N   1      20.338  16.493   5.744  0.00  0.00     0.096 N 
HETATM    6  N   UNK N   1      21.791  14.503   6.998  0.00  0.00    -0.406 N 
HETATM    7  H   UNK N   1      22.728  14.099   7.013  0.00  0.00     0.154 HD
ENDROOT
BRANCH   2   8
HETATM    8  C   UNK N   1      20.275  15.158   8.864  0.00  0.00     0.241 C 
HETATM    9  O   UNK N   1      19.146  15.607   8.762  0.00  0.00    -0.271 OA
HETATM   10  N   UNK N   1      20.535  14.255   9.845  0.00  0.00    -0.359 N 
HETATM   11  H   UNK N   1      19.833  14.051  10.503  0.00  0.00     0.162 HD
BRANCH  10  12
HETATM   12  C   UNK N   1      21.806  13.586   9.952  0.00  0.00     0.123 C 
BRANCH  12  13
HETATM   13  C   UNK N   1      21.666  12.289  10.715  0.00  0.00     0.029 C 
BRANCH  13  14
HETATM   14  C   UNK N   1      22.958  11.517  10.558  0.00  0.00     0.072 C 
BRANCH  14  15
HETATM   15  S   UNK N   1      24.181  12.526   9.683  0.00  0.00    -0.182 SA
HETATM   16  H   UNK N   1      24.162  13.866   9.454  0.00  0.00     0.101 HD
ENDBRANCH  14  15
ENDBRANCH  13  14
ENDBRANCH  12  13
ENDBRANCH  10  12
ENDBRANCH   2   8
BRANCH   5  17
HETATM   17  C   UNK N   1      21.416  16.630   4.753  0.00  0.00     0.311 C 
BRANCH  17  18
HETATM   18  C   UNK N   1      21.199  17.741   3.771  0.00  0.00    -0.030 A 
HETATM   19  C   UNK N   1      20.535  17.457   2.575  0.00  0.00     0.012 A 
HETATM   20  C   UNK N   1      20.292  18.472   1.648  0.00  0.00     0.043 A 
HETATM   21  C   UNK N   1      20.717  19.775   1.915  0.00  0.00     0.116 A 
HETATM   22  F   UNK N   1      20.478  20.758   1.014  0.00  0.00    -0.206 F 
HETATM   23  C   UNK N   1      21.390  20.063   3.108  0.00  0.00     0.043 A 
HETATM   24  C   UNK N   1      21.630  19.046   4.040  0.00  0.00     0.012 A 
ENDBRANCH  17  18
ENDBRANCH   5  17
TORSDOF 7
ENDMDL
MODEL 7
REMARK VINA RESULT:      -5.4     16.647     17.920
REMARK  7 active torsions:
REMARK  status: ('A' for Active; 'I' for Inactive)
REMARK    1  A    between atoms: C_5  and  C_6 
REMARK    2  A    between atoms: C_5  and  S_21 
REMARK    3  A    between atoms: C_6  and  C_7 
REMARK    4  A    between atoms: C_7  and  N_20 
REMARK    5  A    between atoms: C_10  and  C_8 
REMARK       I    between atoms: C_8  and  N_20 
REMARK    6  A    between atoms: C_15  and  C_16 
REMARK    7  A    between atoms: C_16  and  N_17 
ROOT
HETATM    1  C   UNK N   1      27.116  25.716  -6.425  0.00  0.00     0.307 C 
HETATM    2  C   UNK N   1      27.015  26.708  -5.243  0.00  0.00     0.198 C 
HETATM    3  C   UNK N   1      26.230  24.126  -4.815  0.00  0.00     0.292 C 
HETATM    4  C   UNK N   1      26.850  24.871  -3.624  0.00  0.00     0.145 C 
HETATM    5  N   UNK N   1      27.019  24.297  -6.045  0.00  0.00     0.096 N 
HETATM    6  N   UNK N   1      27.553  26.100  -4.017  0.00  0.00    -0.406 N 
HETATM    7  H   UNK N   1      28.337  26.489  -3.493  0.00  0.00     0.154 HD
ENDROOT
BRANCH   2   8
HETATM    8  C   UNK N   1      25.585  27.214  -5.065  0.00  0.00     0.241 C 
HETATM    9  O   UNK N   1      24.665  26.663  -5.644  0.00  0.00    -0.271 OA
HETATM   10  N   UNK N   1      25.312  28.266  -4.250  0.00  0.00    -0.359 N 
HETATM   11  H   UNK N   1      24.392  28.614  -4.214  0.00  0.00     0.162 HD
BRANCH  10  12
HETATM   12  C   UNK N   1      26.325  28.888  -3.437  0.00  0.00     0.123 C 
BRANCH  12  13
HETATM   13  C   UNK N   1      26.538  30.325  -3.853  0.00  0.00     0.029 C 
BRANCH  13  14
HETATM   14  C   UNK N   1      27.306  31.019  -2.749  0.00  0.00     0.072 C 
BRANCH  14  15
HETATM   15  S   UNK N   1      28.178  29.795  -1.738  0.00  0.00    -0.182 SA
HETATM   16  H   UNK N   1      29.298  29.963  -0.986  0.00  0.00     0.101 HD
ENDBRANCH  14  15
ENDBRANCH  13  14
ENDBRANCH  12  13
ENDBRANCH  10  12
ENDBRANCH   2   8
BRANCH   5  17
HETATM   17  C   UNK N   1      28.393  23.788  -5.930  0.00  0.00     0.311 C 
BRANCH  17  18
HETATM   18  C   UNK N   1      28.597  22.444  -6.559  0.00  0.00    -0.030 A 
HETATM   19  C   UNK N   1      29.666  21.656  -6.125  0.00  0.00     0.012 A 
HETATM   20  C   UNK N   1      29.871  20.388  -6.669  0.00  0.00     0.043 A 
HETATM   21  C   UNK N   1      29.007  19.905  -7.654  0.00  0.00     0.116 A 
HETATM   22  F   UNK N   1      29.208  18.672  -8.178  0.00  0.00    -0.206 F 
HETATM   23  C   UNK N   1      27.939  20.693  -8.098  0.00  0.00     0.043 A 
HETATM   24  C   UNK N   1      27.730  21.964  -7.548  0.00  0.00     0.012 A 
ENDBRANCH  17  18
ENDBRANCH   5  17
TORSDOF 7
ENDMDL
MODEL 8
REMARK VINA RESULT:      -5.3     11.787     14.048
REMARK  7 active torsions:
REMARK  status: ('A' for Active; 'I' for Inactive)
REMARK    1  A    between atoms: C_5  and  C_6 
REMARK    2  A    between atoms: C_5  and  S_21 
REMARK    3  A    between atoms: C_6  and  C_7 
REMARK    4  A    between atoms: C_7  and  N_20 
REMARK    5  A    between atoms: C_10  and  C_8 
REMARK       I    between atoms: C_8  and  N_20 
REMARK    6  A    between atoms: C_15  and  C_16 
REMARK    7  A    between atoms: C_16  and  N_17 
ROOT
HETATM    1  C   UNK N   1      32.839  15.497   8.666  0.00  0.00     0.307 C 
HETATM    2  C   UNK N   1      34.176  15.662   9.427  0.00  0.00     0.198 C 
HETATM    3  C   UNK N   1      33.653  17.388   7.374  0.00  0.00     0.292 C 
HETATM    4  C   UNK N   1      34.477  17.934   8.549  0.00  0.00     0.145 C 
HETATM    5  N   UNK N   1      32.465  16.648   7.828  0.00  0.00     0.096 N 
HETATM    6  N   UNK N   1      34.414  17.078   9.742  0.00  0.00    -0.406 N 
HETATM    7  H   UNK N   1      34.523  17.432  10.693  0.00  0.00     0.154 HD
ENDROOT
BRANCH   2   8
HETATM    8  C   UNK N   1      35.333  15.032   8.655  0.00  0.00     0.241 C 
HETATM    9  O   UNK N   1      35.271  14.920   7.443  0.00  0.00    -0.271 OA
HETATM   10  N   UNK N   1      36.453  14.607   9.297  0.00  0.00    -0.359 N 
HETATM   11  H   UNK N   1      37.149  14.140   8.782  0.00  0.00     0.162 HD
BRANCH  10  12
HETATM   12  C   UNK N   1      36.654  14.820  10.707  0.00  0.00     0.123 C 
BRANCH  12  13
HETATM   13  C   UNK N   1      36.679  13.504  11.449  0.00  0.00     0.029 C 
BRANCH  13  14
HETATM   14  C   UNK N   1      35.597  13.546  12.507  0.00  0.00     0.072 C 
BRANCH  14  15
HETATM   15  S   UNK N   1      36.311  14.023  14.102  0.00  0.00    -0.182 SA
HETATM   16  H   UNK N   1      35.893  13.685  15.350  0.00  0.00     0.101 HD
ENDBRANCH  14  15
ENDBRANCH  13  14
ENDBRANCH  12  13
ENDBRANCH  10  12
ENDBRANCH   2   8
BRANCH   5  17
HETATM   17  C   UNK N   1      31.535  17.470   8.617  0.00  0.00     0.311 C 
BRANCH  17  18
HETATM   18  C   UNK N   1      30.267  17.811   7.896  0.00  0.00    -0.030 A 
HETATM   19  C   UNK N   1      30.055  17.276   6.624  0.00  0.00     0.012 A 
HETATM   20  C   UNK N   1      28.873  17.550   5.934  0.00  0.00     0.043 A 
HETATM   21  C   UNK N   1      27.901  18.367   6.515  0.00  0.00     0.116 A 
HETATM   22  F   UNK N   1      26.754  18.630   5.843  0.00  0.00    -0.206 F 
HETATM   23  C   UNK N   1      28.112  18.912   7.786  0.00  0.00     0.043 A 
HETATM   24  C   UNK N   1      29.296  18.633   8.481  0.00  0.00     0.012 A 
ENDBRANCH  17  18
ENDBRANCH   5  17
TORSDOF 7
ENDMDL
MODEL 9
REMARK VINA RESULT:      -5.3     13.476     16.027
REMARK  7 active torsions:
REMARK  status: ('A' for Active; 'I' for Inactive)
REMARK    1  A    between atoms: C_5  and  C_6 
REMARK    2  A    between atoms: C_5  and  S_21 
REMARK    3  A    between atoms: C_6  and  C_7 
REMARK    4  A    between atoms: C_7  and  N_20 
REMARK    5  A    between atoms: C_10  and  C_8 
REMARK       I    between atoms: C_8  and  N_20 
REMARK    6  A    between atoms: C_15  and  C_16 
REMARK    7  A    between atoms: C_16  and  N_17 
ROOT
HETATM    1  C   UNK N   1      35.419  14.481   8.906  0.00  0.00     0.307 C 
HETATM    2  C   UNK N   1      35.658  13.813  10.281  0.00  0.00     0.198 C 
HETATM    3  C   UNK N   1      35.454  16.537  10.202  0.00  0.00     0.292 C 
HETATM    4  C   UNK N   1      34.939  15.837  11.469  0.00  0.00     0.145 C 
HETATM    5  N   UNK N   1      34.974  15.883   8.975  0.00  0.00     0.096 N 
HETATM    6  N   UNK N   1      34.760  14.389  11.293  0.00  0.00    -0.406 N 
HETATM    7  H   UNK N   1      34.079  13.840  11.818  0.00  0.00     0.154 HD
ENDROOT
BRANCH   2   8
HETATM    8  C   UNK N   1      37.127  13.895  10.689  0.00  0.00     0.241 C 
HETATM    9  O   UNK N   1      37.916  14.532  10.011  0.00  0.00    -0.271 OA
HETATM   10  N   UNK N   1      37.576  13.282  11.815  0.00  0.00    -0.359 N 
HETATM   11  H   UNK N   1      38.540  13.292  12.011  0.00  0.00     0.162 HD
BRANCH  10  12
HETATM   12  C   UNK N   1      36.685  12.618  12.732  0.00  0.00     0.123 C 
BRANCH  12  13
HETATM   13  C   UNK N   1      36.656  13.333  14.062  0.00  0.00     0.029 C 
BRANCH  13  14
HETATM   14  C   UNK N   1      36.349  12.309  15.134  0.00  0.00     0.072 C 
BRANCH  14  15
HETATM   15  S   UNK N   1      35.370  13.069  16.454  0.00  0.00    -0.182 SA
HETATM   16  H   UNK N   1      34.809  14.307  16.485  0.00  0.00     0.101 HD
ENDBRANCH  14  15
ENDBRANCH  13  14
ENDBRANCH  12  13
ENDBRANCH  10  12
ENDBRANCH   2   8
BRANCH   5  17
HETATM   17  C   UNK N   1      33.509  15.874   8.856  0.00  0.00     0.311 C 
BRANCH  17  18
HETATM   18  C   UNK N   1      33.003  16.412   7.553  0.00  0.00    -0.030 A 
HETATM   19  C   UNK N   1      33.905  17.047   6.695  0.00  0.00     0.012 A 
HETATM   20  C   UNK N   1      33.475  17.537   5.461  0.00  0.00     0.043 A 
HETATM   21  C   UNK N   1      32.138  17.397   5.084  0.00  0.00     0.116 A 
HETATM   22  F   UNK N   1      31.725  17.872   3.884  0.00  0.00    -0.206 F 
HETATM   23  C   UNK N   1      31.229  16.769   5.943  0.00  0.00     0.043 A 
HETATM   24  C   UNK N   1      31.661  16.273   7.179  0.00  0.00     0.012 A 
ENDBRANCH  17  18
ENDBRANCH   5  17
TORSDOF 7
ENDMDL
