MODEL 1
REMARK VINA RESULT:      -5.8      0.000      0.000
REMARK  9 active torsions:
REMARK  status: ('A' for Active; 'I' for Inactive)
REMARK    1  A    between atoms: C_3  and  O_6 
REMARK    2  A    between atoms: C_4  and  O_19 
REMARK    3  A    between atoms: C_8  and  C_9 
REMARK    4  A    between atoms: C_8  and  S_25 
REMARK    5  A    between atoms: C_9  and  C_10 
REMARK    6  A    between atoms: C_10  and  C_11 
REMARK       I    between atoms: C_11  and  N_23 
REMARK    7  A    between atoms: C_14  and  N_23 
REMARK    8  A    between atoms: C_20  and  C_21 
REMARK    9  A    between atoms: C_21  and  N_22 
ROOT
HETATM    1  C   UNK N   1      34.083  15.282   8.743  0.00  0.00     0.275 C 
HETATM    2  C   UNK N   1      34.114  14.228   9.849  0.00  0.00     0.055 C 
HETATM    3  C   UNK N   1      35.236  14.519  10.862  0.00  0.00     0.087 C 
HETATM    4  C   UNK N   1      35.189  16.880  10.057  0.00  0.00     0.275 C 
HETATM    5  C   UNK N   1      35.248  15.986  11.286  0.00  0.00     0.055 C 
HETATM    6  N   UNK N   1      33.939  16.596   9.360  0.00  0.00     0.092 N 
ENDROOT
BRANCH   6   7
HETATM    7  C   UNK N   1      33.723  17.592   8.323  0.00  0.00     0.314 C 
BRANCH   7   8
HETATM    8  C   UNK N   1      32.366  17.519   7.643  0.00  0.00     0.007 A 
HETATM    9  C   UNK N   1      32.165  17.279   6.248  0.00  0.00     0.109 A 
HETATM   10  C   UNK N   1      30.832  17.199   5.750  0.00  0.00     0.103 A 
HETATM   11  C   UNK N   1      29.752  17.376   6.628  0.00  0.00     0.058 A 
HETATM   12  C   UNK N   1      29.965  17.627   7.977  0.00  0.00     0.014 A 
HETATM   13  C   UNK N   1      31.260  17.691   8.478  0.00  0.00     0.031 A 
HETATM   14 Br   UNK N   1      28.480  17.880   9.141  0.00  0.00    -0.051 Br
BRANCH   9  15
HETATM   15  O   UNK N   1      33.246  17.132   5.436  0.00  0.00    -0.352 OA
HETATM   16  C   UNK N   1      33.842  15.947   5.067  0.00  0.00     0.210 C 
ENDBRANCH   9  15
BRANCH  10  17
HETATM   17  O   UNK N   1      30.605  16.949   4.435  0.00  0.00    -0.353 OA
HETATM   18  C   UNK N   1      29.348  16.816   3.889  0.00  0.00     0.210 C 
ENDBRANCH  10  17
ENDBRANCH   7   8
ENDBRANCH   6   7
BRANCH   3  19
HETATM   19  N   UNK N   1      35.040  13.709  12.041  0.00  0.00    -0.356 N 
HETATM   20  C   UNK N   1      36.036  12.992  12.612  0.00  0.00     0.217 C 
HETATM   21  O   UNK N   1      37.173  13.039  12.165  0.00  0.00    -0.274 OA
HETATM   22  H   UNK N   1      34.144  13.678  12.448  0.00  0.00     0.162 HD
BRANCH  20  23
HETATM   23  C   UNK N   1      35.730  12.135  13.796  0.00  0.00     0.103 C 
BRANCH  23  24
HETATM   24  C   UNK N   1      36.717  12.396  14.920  0.00  0.00     0.019 C 
BRANCH  24  25
HETATM   25  C   UNK N   1      36.302  13.613  15.727  0.00  0.00     0.071 C 
BRANCH  25  26
HETATM   26  S   UNK N   1      35.036  13.166  16.951  0.00  0.00    -0.182 SA
HETATM   27  H   UNK N   1      35.045  13.744  18.182  0.00  0.00     0.101 HD
ENDBRANCH  25  26
ENDBRANCH  24  25
ENDBRANCH  23  24
ENDBRANCH  20  23
ENDBRANCH   3  19
TORSDOF 9
ENDMDL
MODEL 2
REMARK VINA RESULT:      -5.7      1.401      1.607
REMARK  9 active torsions:
REMARK  status: ('A' for Active; 'I' for Inactive)
REMARK    1  A    between atoms: C_3  and  O_6 
REMARK    2  A    between atoms: C_4  and  O_19 
REMARK    3  A    between atoms: C_8  and  C_9 
REMARK    4  A    between atoms: C_8  and  S_25 
REMARK    5  A    between atoms: C_9  and  C_10 
REMARK    6  A    between atoms: C_10  and  C_11 
REMARK       I    between atoms: C_11  and  N_23 
REMARK    7  A    between atoms: C_14  and  N_23 
REMARK    8  A    between atoms: C_20  and  C_21 
REMARK    9  A    between atoms: C_21  and  N_22 
ROOT
HETATM    1  C   UNK N   1      34.509  15.337   8.694  0.00  0.00     0.275 C 
HETATM    2  C   UNK N   1      34.581  14.223   9.738  0.00  0.00     0.055 C 
HETATM    3  C   UNK N   1      35.550  14.590  10.877  0.00  0.00     0.087 C 
HETATM    4  C   UNK N   1      35.250  16.974  10.202  0.00  0.00     0.275 C 
HETATM    5  C   UNK N   1      35.317  16.014  11.380  0.00  0.00     0.055 C 
HETATM    6  N   UNK N   1      34.124  16.574   9.364  0.00  0.00     0.092 N 
ENDROOT
BRANCH   6   7
HETATM    7  C   UNK N   1      33.870  17.602   8.367  0.00  0.00     0.314 C 
BRANCH   7   8
HETATM    8  C   UNK N   1      32.510  17.514   7.695  0.00  0.00     0.007 A 
HETATM    9  C   UNK N   1      32.303  17.254   6.305  0.00  0.00     0.109 A 
HETATM   10  C   UNK N   1      30.968  17.163   5.815  0.00  0.00     0.103 A 
HETATM   11  C   UNK N   1      29.892  17.349   6.696  0.00  0.00     0.058 A 
HETATM   12  C   UNK N   1      30.110  17.619   8.041  0.00  0.00     0.014 A 
HETATM   13  C   UNK N   1      31.408  17.694   8.533  0.00  0.00     0.031 A 
HETATM   14 Br   UNK N   1      28.631  17.883   9.209  0.00  0.00    -0.051 Br
BRANCH   9  15
HETATM   15  O   UNK N   1      33.380  17.099   5.490  0.00  0.00    -0.352 OA
HETATM   16  C   UNK N   1      33.934  15.909   5.076  0.00  0.00     0.210 C 
ENDBRANCH   9  15
BRANCH  10  17
HETATM   17  O   UNK N   1      30.735  16.894   4.505  0.00  0.00    -0.353 OA
HETATM   18  C   UNK N   1      29.482  16.908   3.933  0.00  0.00     0.210 C 
ENDBRANCH  10  17
ENDBRANCH   7   8
ENDBRANCH   6   7
BRANCH   3  19
HETATM   19  N   UNK N   1      35.358  13.682  11.982  0.00  0.00    -0.356 N 
HETATM   20  C   UNK N   1      36.326  12.843  12.418  0.00  0.00     0.217 C 
HETATM   21  O   UNK N   1      37.436  12.854  11.907  0.00  0.00    -0.274 OA
HETATM   22  H   UNK N   1      34.486  13.675  12.439  0.00  0.00     0.162 HD
BRANCH  20  23
HETATM   23  C   UNK N   1      36.021  11.896  13.532  0.00  0.00     0.103 C 
BRANCH  23  24
HETATM   24  C   UNK N   1      34.530  11.860  13.816  0.00  0.00     0.019 C 
BRANCH  24  25
HETATM   25  C   UNK N   1      33.980  10.458  13.623  0.00  0.00     0.071 C 
BRANCH  25  26
HETATM   26  S   UNK N   1      33.872  10.053  11.855  0.00  0.00    -0.182 SA
HETATM   27  H   UNK N   1      33.910   8.754  11.452  0.00  0.00     0.101 HD
ENDBRANCH  25  26
ENDBRANCH  24  25
ENDBRANCH  23  24
ENDBRANCH  20  23
ENDBRANCH   3  19
TORSDOF 9
ENDMDL
MODEL 3
REMARK VINA RESULT:      -5.6      1.991      2.594
REMARK  9 active torsions:
REMARK  status: ('A' for Active; 'I' for Inactive)
REMARK    1  A    between atoms: C_3  and  O_6 
REMARK    2  A    between atoms: C_4  and  O_19 
REMARK    3  A    between atoms: C_8  and  C_9 
REMARK    4  A    between atoms: C_8  and  S_25 
REMARK    5  A    between atoms: C_9  and  C_10 
REMARK    6  A    between atoms: C_10  and  C_11 
REMARK       I    between atoms: C_11  and  N_23 
REMARK    7  A    between atoms: C_14  and  N_23 
REMARK    8  A    between atoms: C_20  and  C_21 
REMARK    9  A    between atoms: C_21  and  N_22 
ROOT
HETATM    1  C   UNK N   1      33.912  15.363   8.541  0.00  0.00     0.275 C 
HETATM    2  C   UNK N   1      33.832  14.296   9.633  0.00  0.00     0.055 C 
HETATM    3  C   UNK N   1      34.909  14.519  10.709  0.00  0.00     0.087 C 
HETATM    4  C   UNK N   1      35.020  16.889   9.937  0.00  0.00     0.275 C 
HETATM    5  C   UNK N   1      34.969  15.979  11.154  0.00  0.00     0.055 C 
HETATM    6  N   UNK N   1      33.798  16.675   9.168  0.00  0.00     0.092 N 
ENDROOT
BRANCH   6   7
HETATM    7  C   UNK N   1      33.687  17.693   8.135  0.00  0.00     0.314 C 
BRANCH   7   8
HETATM    8  C   UNK N   1      32.567  17.464   7.135  0.00  0.00     0.007 A 
HETATM    9  C   UNK N   1      31.174  17.447   7.460  0.00  0.00     0.109 A 
HETATM   10  C   UNK N   1      30.227  17.257   6.413  0.00  0.00     0.103 A 
HETATM   11  C   UNK N   1      30.676  17.071   5.097  0.00  0.00     0.058 A 
HETATM   12  C   UNK N   1      32.033  17.071   4.800  0.00  0.00     0.014 A 
HETATM   13  C   UNK N   1      32.967  17.272   5.811  0.00  0.00     0.031 A 
HETATM   14 Br   UNK N   1      32.614  16.799   3.008  0.00  0.00    -0.051 Br
BRANCH   9  15
HETATM   15  O   UNK N   1      30.792  17.614   8.754  0.00  0.00    -0.352 OA
HETATM   16  C   UNK N   1      30.250  18.751   9.311  0.00  0.00     0.210 C 
ENDBRANCH   9  15
BRANCH  10  17
HETATM   17  O   UNK N   1      28.897  17.259   6.683  0.00  0.00    -0.353 OA
HETATM   18  C   UNK N   1      28.043  18.272   6.306  0.00  0.00     0.210 C 
ENDBRANCH  10  17
ENDBRANCH   7   8
ENDBRANCH   6   7
BRANCH   3  19
HETATM   19  N   UNK N   1      34.610  13.706  11.864  0.00  0.00    -0.356 N 
HETATM   20  C   UNK N   1      35.556  13.313  12.748  0.00  0.00     0.217 C 
HETATM   21  O   UNK N   1      36.717  13.674  12.621  0.00  0.00    -0.274 OA
HETATM   22  H   UNK N   1      33.678  13.428  12.015  0.00  0.00     0.162 HD
BRANCH  20  23
HETATM   23  C   UNK N   1      35.167  12.423  13.883  0.00  0.00     0.103 C 
BRANCH  23  24
HETATM   24  C   UNK N   1      36.397  11.887  14.595  0.00  0.00     0.019 C 
BRANCH  24  25
HETATM   25  C   UNK N   1      36.117  11.689  16.073  0.00  0.00     0.071 C 
BRANCH  25  26
HETATM   26  S   UNK N   1      35.069  13.030  16.710  0.00  0.00    -0.182 SA
HETATM   27  H   UNK N   1      35.211  14.293  16.226  0.00  0.00     0.101 HD
ENDBRANCH  25  26
ENDBRANCH  24  25
ENDBRANCH  23  24
ENDBRANCH  20  23
ENDBRANCH   3  19
TORSDOF 9
ENDMDL
MODEL 4
REMARK VINA RESULT:      -5.6      4.052      9.240
REMARK  9 active torsions:
REMARK  status: ('A' for Active; 'I' for Inactive)
REMARK    1  A    between atoms: C_3  and  O_6 
REMARK    2  A    between atoms: C_4  and  O_19 
REMARK    3  A    between atoms: C_8  and  C_9 
REMARK    4  A    between atoms: C_8  and  S_25 
REMARK    5  A    between atoms: C_9  and  C_10 
REMARK    6  A    between atoms: C_10  and  C_11 
REMARK       I    between atoms: C_11  and  N_23 
REMARK    7  A    between atoms: C_14  and  N_23 
REMARK    8  A    between atoms: C_20  and  C_21 
REMARK    9  A    between atoms: C_21  and  N_22 
ROOT
HETATM    1  C   UNK N   1      34.906  15.686  10.625  0.00  0.00     0.275 C 
HETATM    2  C   UNK N   1      33.941  16.153   9.535  0.00  0.00     0.055 C 
HETATM    3  C   UNK N   1      34.548  15.959   8.134  0.00  0.00     0.087 C 
HETATM    4  C   UNK N   1      36.080  14.278   9.161  0.00  0.00     0.275 C 
HETATM    5  C   UNK N   1      35.174  14.574   7.976  0.00  0.00     0.055 C 
HETATM    6  N   UNK N   1      35.257  14.294  10.366  0.00  0.00     0.092 N 
ENDROOT
BRANCH   6   7
HETATM    7  C   UNK N   1      36.025  13.776  11.487  0.00  0.00     0.314 C 
BRANCH   7   8
HETATM    8  C   UNK N   1      35.350  12.652  12.255  0.00  0.00     0.007 A 
HETATM    9  C   UNK N   1      35.149  12.638  13.670  0.00  0.00     0.109 A 
HETATM   10  C   UNK N   1      34.467  11.532  14.256  0.00  0.00     0.103 A 
HETATM   11  C   UNK N   1      34.028  10.478  13.440  0.00  0.00     0.058 A 
HETATM   12  C   UNK N   1      34.248  10.498  12.069  0.00  0.00     0.014 A 
HETATM   13  C   UNK N   1      34.898  11.579  11.484  0.00  0.00     0.031 A 
HETATM   14 Br   UNK N   1      33.656   9.046  10.990  0.00  0.00    -0.051 Br
BRANCH   9  15
HETATM   15  O   UNK N   1      35.610  13.676  14.418  0.00  0.00    -0.352 OA
HETATM   16  C   UNK N   1      36.802  13.729  15.105  0.00  0.00     0.210 C 
ENDBRANCH   9  15
BRANCH  10  17
HETATM   17  O   UNK N   1      34.238  11.497  15.593  0.00  0.00    -0.353 OA
HETATM   18  C   UNK N   1      34.932  10.689  16.466  0.00  0.00     0.210 C 
ENDBRANCH  10  17
ENDBRANCH   7   8
ENDBRANCH   6   7
BRANCH   3  19
HETATM   19  N   UNK N   1      33.515  16.105   7.138  0.00  0.00    -0.356 N 
HETATM   20  C   UNK N   1      33.447  17.167   6.302  0.00  0.00     0.217 C 
HETATM   21  O   UNK N   1      34.301  18.041   6.333  0.00  0.00    -0.274 OA
HETATM   22  H   UNK N   1      32.831  15.401   7.062  0.00  0.00     0.162 HD
BRANCH  20  23
HETATM   23  C   UNK N   1      32.308  17.265   5.340  0.00  0.00     0.103 C 
BRANCH  23  24
HETATM   24  C   UNK N   1      32.791  17.731   3.978  0.00  0.00     0.019 C 
BRANCH  24  25
HETATM   25  C   UNK N   1      32.293  16.801   2.886  0.00  0.00     0.071 C 
BRANCH  25  26
HETATM   26  S   UNK N   1      32.944  15.123   3.129  0.00  0.00    -0.182 SA
HETATM   27  H   UNK N   1      34.277  14.884   2.997  0.00  0.00     0.101 HD
ENDBRANCH  25  26
ENDBRANCH  24  25
ENDBRANCH  23  24
ENDBRANCH  20  23
ENDBRANCH   3  19
TORSDOF 9
ENDMDL
MODEL 5
REMARK VINA RESULT:      -5.6      3.974      9.228
REMARK  9 active torsions:
REMARK  status: ('A' for Active; 'I' for Inactive)
REMARK    1  A    between atoms: C_3  and  O_6 
REMARK    2  A    between atoms: C_4  and  O_19 
REMARK    3  A    between atoms: C_8  and  C_9 
REMARK    4  A    between atoms: C_8  and  S_25 
REMARK    5  A    between atoms: C_9  and  C_10 
REMARK    6  A    between atoms: C_10  and  C_11 
REMARK       I    between atoms: C_11  and  N_23 
REMARK    7  A    between atoms: C_14  and  N_23 
REMARK    8  A    between atoms: C_20  and  C_21 
REMARK    9  A    between atoms: C_21  and  N_22 
ROOT
HETATM    1  C   UNK N   1      36.277  15.377  11.564  0.00  0.00     0.275 C 
HETATM    2  C   UNK N   1      35.231  16.316  10.963  0.00  0.00     0.055 C 
HETATM    3  C   UNK N   1      34.548  15.678   9.740  0.00  0.00     0.087 C 
HETATM    4  C   UNK N   1      35.283  13.467  10.633  0.00  0.00     0.275 C 
HETATM    5  C   UNK N   1      34.124  14.237  10.018  0.00  0.00     0.055 C 
HETATM    6  N   UNK N   1      35.628  14.114  11.895  0.00  0.00     0.092 N 
ENDROOT
BRANCH   6   7
HETATM    7  C   UNK N   1      36.558  13.275  12.634  0.00  0.00     0.314 C 
BRANCH   7   8
HETATM    8  C   UNK N   1      36.092  12.883  14.026  0.00  0.00     0.007 A 
HETATM    9  C   UNK N   1      35.531  11.613  14.370  0.00  0.00     0.109 A 
HETATM   10  C   UNK N   1      35.168  11.367  15.726  0.00  0.00     0.103 A 
HETATM   11  C   UNK N   1      35.349  12.374  16.685  0.00  0.00     0.058 A 
HETATM   12  C   UNK N   1      35.878  13.609  16.332  0.00  0.00     0.014 A 
HETATM   13  C   UNK N   1      36.250  13.855  15.015  0.00  0.00     0.031 A 
HETATM   14 Br   UNK N   1      36.096  14.963  17.652  0.00  0.00    -0.051 Br
BRANCH   9  15
HETATM   15  O   UNK N   1      35.360  10.677  13.398  0.00  0.00    -0.352 OA
HETATM   16  C   UNK N   1      34.208  10.434  12.684  0.00  0.00     0.210 C 
ENDBRANCH   9  15
BRANCH  10  17
HETATM   17  O   UNK N   1      34.655  10.164  16.091  0.00  0.00    -0.353 OA
HETATM   18  C   UNK N   1      34.620   9.713  17.392  0.00  0.00     0.210 C 
ENDBRANCH  10  17
ENDBRANCH   7   8
ENDBRANCH   6   7
BRANCH   3  19
HETATM   19  N   UNK N   1      33.370  16.437   9.397  0.00  0.00    -0.356 N 
HETATM   20  C   UNK N   1      33.361  17.377   8.423  0.00  0.00     0.217 C 
HETATM   21  O   UNK N   1      34.362  17.592   7.755  0.00  0.00    -0.274 OA
HETATM   22  H   UNK N   1      32.537  16.263   9.892  0.00  0.00     0.162 HD
BRANCH  20  23
HETATM   23  C   UNK N   1      32.111  18.157   8.175  0.00  0.00     0.103 C 
BRANCH  23  24
HETATM   24  C   UNK N   1      30.914  17.476   8.815  0.00  0.00     0.019 C 
BRANCH  24  25
HETATM   25  C   UNK N   1      29.980  18.502   9.430  0.00  0.00     0.071 C 
BRANCH  25  26
HETATM   26  S   UNK N   1      28.369  18.484   8.588  0.00  0.00    -0.182 SA
HETATM   27  H   UNK N   1      27.221  18.544   9.315  0.00  0.00     0.101 HD
ENDBRANCH  25  26
ENDBRANCH  24  25
ENDBRANCH  23  24
ENDBRANCH  20  23
ENDBRANCH   3  19
TORSDOF 9
ENDMDL
MODEL 6
REMARK VINA RESULT:      -5.5      2.710      4.224
REMARK  9 active torsions:
REMARK  status: ('A' for Active; 'I' for Inactive)
REMARK    1  A    between atoms: C_3  and  O_6 
REMARK    2  A    between atoms: C_4  and  O_19 
REMARK    3  A    between atoms: C_8  and  C_9 
REMARK    4  A    between atoms: C_8  and  S_25 
REMARK    5  A    between atoms: C_9  and  C_10 
REMARK    6  A    between atoms: C_10  and  C_11 
REMARK       I    between atoms: C_11  and  N_23 
REMARK    7  A    between atoms: C_14  and  N_23 
REMARK    8  A    between atoms: C_20  and  C_21 
REMARK    9  A    between atoms: C_21  and  N_22 
ROOT
HETATM    1  C   UNK N   1      33.166  17.304   6.125  0.00  0.00     0.275 C 
HETATM    2  C   UNK N   1      33.931  16.711   7.308  0.00  0.00     0.055 C 
HETATM    3  C   UNK N   1      33.281  17.106   8.646  0.00  0.00     0.087 C 
HETATM    4  C   UNK N   1      31.187  17.544   7.361  0.00  0.00     0.275 C 
HETATM    5  C   UNK N   1      31.766  16.911   8.617  0.00  0.00     0.055 C 
HETATM    6  N   UNK N   1      31.777  16.869   6.209  0.00  0.00     0.092 N 
ENDROOT
BRANCH   6   7
HETATM    7  C   UNK N   1      31.075  17.268   4.999  0.00  0.00     0.314 C 
BRANCH   7   8
HETATM    8  C   UNK N   1      29.559  17.262   5.112  0.00  0.00     0.007 A 
HETATM    9  C   UNK N   1      28.770  16.112   5.429  0.00  0.00     0.109 A 
HETATM   10  C   UNK N   1      27.357  16.258   5.538  0.00  0.00     0.103 A 
HETATM   11  C   UNK N   1      26.770  17.513   5.314  0.00  0.00     0.058 A 
HETATM   12  C   UNK N   1      27.549  18.616   4.988  0.00  0.00     0.014 A 
HETATM   13  C   UNK N   1      28.931  18.489   4.895  0.00  0.00     0.031 A 
HETATM   14 Br   UNK N   1      26.724  20.302   4.673  0.00  0.00    -0.051 Br
BRANCH   9  15
HETATM   15  O   UNK N   1      29.387  14.915   5.619  0.00  0.00    -0.352 OA
HETATM   16  C   UNK N   1      29.591  13.936   4.673  0.00  0.00     0.210 C 
ENDBRANCH   9  15
BRANCH  10  17
HETATM   17  O   UNK N   1      26.580  15.192   5.860  0.00  0.00    -0.353 OA
HETATM   18  C   UNK N   1      25.908  15.071   7.056  0.00  0.00     0.210 C 
ENDBRANCH  10  17
ENDBRANCH   7   8
ENDBRANCH   6   7
BRANCH   3  19
HETATM   19  N   UNK N   1      33.822  16.288   9.704  0.00  0.00    -0.356 N 
HETATM   20  C   UNK N   1      34.946  16.617  10.383  0.00  0.00     0.217 C 
HETATM   21  O   UNK N   1      35.534  17.663  10.147  0.00  0.00    -0.274 OA
HETATM   22  H   UNK N   1      33.353  15.457   9.943  0.00  0.00     0.162 HD
BRANCH  20  23
HETATM   23  C   UNK N   1      35.468  15.681  11.423  0.00  0.00     0.103 C 
BRANCH  23  24
HETATM   24  C   UNK N   1      34.967  14.268  11.179  0.00  0.00     0.019 C 
BRANCH  24  25
HETATM   25  C   UNK N   1      35.181  13.403  12.408  0.00  0.00     0.071 C 
BRANCH  25  26
HETATM   26  S   UNK N   1      36.267  14.243  13.599  0.00  0.00    -0.182 SA
HETATM   27  H   UNK N   1      35.736  15.078  14.532  0.00  0.00     0.101 HD
ENDBRANCH  25  26
ENDBRANCH  24  25
ENDBRANCH  23  24
ENDBRANCH  20  23
ENDBRANCH   3  19
TORSDOF 9
ENDMDL
MODEL 7
REMARK VINA RESULT:      -5.4     14.758     17.116
REMARK  9 active torsions:
REMARK  status: ('A' for Active; 'I' for Inactive)
REMARK    1  A    between atoms: C_3  and  O_6 
REMARK    2  A    between atoms: C_4  and  O_19 
REMARK    3  A    between atoms: C_8  and  C_9 
REMARK    4  A    between atoms: C_8  and  S_25 
REMARK    5  A    between atoms: C_9  and  C_10 
REMARK    6  A    between atoms: C_10  and  C_11 
REMARK       I    between atoms: C_11  and  N_23 
REMARK    7  A    between atoms: C_14  and  N_23 
REMARK    8  A    between atoms: C_20  and  C_21 
REMARK    9  A    between atoms: C_21  and  N_22 
ROOT
HETATM    1  C   UNK N   1      29.758  24.810  -3.404  0.00  0.00     0.275 C 
HETATM    2  C   UNK N   1      31.060  24.186  -3.905  0.00  0.00     0.055 C 
HETATM    3  C   UNK N   1      31.390  22.894  -3.136  0.00  0.00     0.087 C 
HETATM    4  C   UNK N   1      28.973  22.780  -2.528  0.00  0.00     0.275 C 
HETATM    5  C   UNK N   1      30.172  21.981  -3.016  0.00  0.00     0.055 C 
HETATM    6  N   UNK N   1      28.696  23.817  -3.517  0.00  0.00     0.092 N 
ENDROOT
BRANCH   6   7
HETATM    7  C   UNK N   1      27.418  24.444  -3.220  0.00  0.00     0.314 C 
BRANCH   7   8
HETATM    8  C   UNK N   1      26.992  25.517  -4.208  0.00  0.00     0.007 A 
HETATM    9  C   UNK N   1      26.676  25.281  -5.582  0.00  0.00     0.109 A 
HETATM   10  C   UNK N   1      26.254  26.378  -6.388  0.00  0.00     0.103 A 
HETATM   11  C   UNK N   1      26.177  27.661  -5.827  0.00  0.00     0.058 A 
HETATM   12  C   UNK N   1      26.506  27.877  -4.495  0.00  0.00     0.014 A 
HETATM   13  C   UNK N   1      26.903  26.812  -3.694  0.00  0.00     0.031 A 
HETATM   14 Br   UNK N   1      26.408  29.633  -3.765  0.00  0.00    -0.051 Br
BRANCH   9  15
HETATM   15  O   UNK N   1      26.784  24.020  -6.082  0.00  0.00    -0.352 OA
HETATM   16  C   UNK N   1      25.765  23.107  -6.235  0.00  0.00     0.210 C 
ENDBRANCH   9  15
BRANCH  10  17
HETATM   17  O   UNK N   1      25.924  26.184  -7.691  0.00  0.00    -0.353 OA
HETATM   18  C   UNK N   1      26.814  26.327  -8.733  0.00  0.00     0.210 C 
ENDBRANCH  10  17
ENDBRANCH   7   8
ENDBRANCH   6   7
BRANCH   3  19
HETATM   19  N   UNK N   1      32.429  22.173  -3.831  0.00  0.00    -0.356 N 
HETATM   20  C   UNK N   1      33.286  21.335  -3.203  0.00  0.00     0.217 C 
HETATM   21  O   UNK N   1      33.183  21.121  -2.004  0.00  0.00    -0.274 OA
HETATM   22  H   UNK N   1      32.517  22.295  -4.804  0.00  0.00     0.162 HD
BRANCH  20  23
HETATM   23  C   UNK N   1      34.369  20.674  -3.993  0.00  0.00     0.103 C 
BRANCH  23  24
HETATM   24  C   UNK N   1      34.147  19.173  -4.062  0.00  0.00     0.019 C 
BRANCH  24  25
HETATM   25  C   UNK N   1      34.608  18.625  -5.401  0.00  0.00     0.071 C 
BRANCH  25  26
HETATM   26  S   UNK N   1      35.355  16.982  -5.195  0.00  0.00    -0.182 SA
HETATM   27  H   UNK N   1      34.780  16.072  -4.363  0.00  0.00     0.101 HD
ENDBRANCH  25  26
ENDBRANCH  24  25
ENDBRANCH  23  24
ENDBRANCH  20  23
ENDBRANCH   3  19
TORSDOF 9
ENDMDL
MODEL 8
REMARK VINA RESULT:      -5.4      7.923     12.776
REMARK  9 active torsions:
REMARK  status: ('A' for Active; 'I' for Inactive)
REMARK    1  A    between atoms: C_3  and  O_6 
REMARK    2  A    between atoms: C_4  and  O_19 
REMARK    3  A    between atoms: C_8  and  C_9 
REMARK    4  A    between atoms: C_8  and  S_25 
REMARK    5  A    between atoms: C_9  and  C_10 
REMARK    6  A    between atoms: C_10  and  C_11 
REMARK       I    between atoms: C_11  and  N_23 
REMARK    7  A    between atoms: C_14  and  N_23 
REMARK    8  A    between atoms: C_20  and  C_21 
REMARK    9  A    between atoms: C_21  and  N_22 
ROOT
HETATM    1  C   UNK N   1      25.468  18.805   4.602  0.00  0.00     0.275 C 
HETATM    2  C   UNK N   1      24.064  18.428   4.131  0.00  0.00     0.055 C 
HETATM    3  C   UNK N   1      23.292  19.664   3.638  0.00  0.00     0.087 C 
HETATM    4  C   UNK N   1      25.505  20.776   3.330  0.00  0.00     0.275 C 
HETATM    5  C   UNK N   1      24.141  20.526   2.705  0.00  0.00     0.055 C 
HETATM    6  N   UNK N   1      26.156  19.482   3.509  0.00  0.00     0.092 N 
ENDROOT
BRANCH   6   7
HETATM    7  C   UNK N   1      27.550  19.686   3.871  0.00  0.00     0.314 C 
BRANCH   7   8
HETATM    8  C   UNK N   1      28.024  18.866   5.060  0.00  0.00     0.007 A 
HETATM    9  C   UNK N   1      28.075  19.339   6.408  0.00  0.00     0.109 A 
HETATM   10  C   UNK N   1      28.508  18.448   7.433  0.00  0.00     0.103 A 
HETATM   11  C   UNK N   1      28.892  17.141   7.098  0.00  0.00     0.058 A 
HETATM   12  C   UNK N   1      28.854  16.702   5.780  0.00  0.00     0.014 A 
HETATM   13  C   UNK N   1      28.418  17.557   4.775  0.00  0.00     0.031 A 
HETATM   14 Br   UNK N   1      29.397  14.928   5.354  0.00  0.00    -0.051 Br
BRANCH   9  15
HETATM   15  O   UNK N   1      27.709  20.621   6.677  0.00  0.00    -0.352 OA
HETATM   16  C   UNK N   1      26.469  21.052   7.091  0.00  0.00     0.210 C 
ENDBRANCH   9  15
BRANCH  10  17
HETATM   17  O   UNK N   1      28.546  18.858   8.726  0.00  0.00    -0.353 OA
HETATM   18  C   UNK N   1      29.561  18.534   9.600  0.00  0.00     0.210 C 
ENDBRANCH  10  17
ENDBRANCH   7   8
ENDBRANCH   6   7
BRANCH   3  19
HETATM   19  N   UNK N   1      22.116  19.241   2.917  0.00  0.00    -0.356 N 
HETATM   20  C   UNK N   1      20.867  19.336   3.430  0.00  0.00     0.217 C 
HETATM   21  O   UNK N   1      20.682  19.834   4.531  0.00  0.00    -0.274 OA
HETATM   22  H   UNK N   1      22.226  18.868   2.013  0.00  0.00     0.162 HD
BRANCH  20  23
HETATM   23  C   UNK N   1      19.712  18.818   2.637  0.00  0.00     0.103 C 
BRANCH  23  24
HETATM   24  C   UNK N   1      20.169  17.763   1.645  0.00  0.00     0.019 C 
BRANCH  24  25
HETATM   25  C   UNK N   1      19.966  16.370   2.213  0.00  0.00     0.071 C 
BRANCH  25  26
HETATM   26  S   UNK N   1      21.557  15.643   2.706  0.00  0.00    -0.182 SA
HETATM   27  H   UNK N   1      21.723  15.159   3.966  0.00  0.00     0.101 HD
ENDBRANCH  25  26
ENDBRANCH  24  25
ENDBRANCH  23  24
ENDBRANCH  20  23
ENDBRANCH   3  19
TORSDOF 9
ENDMDL
MODEL 9
REMARK VINA RESULT:      -5.3      3.853      9.270
REMARK  9 active torsions:
REMARK  status: ('A' for Active; 'I' for Inactive)
REMARK    1  A    between atoms: C_3  and  O_6 
REMARK    2  A    between atoms: C_4  and  O_19 
REMARK    3  A    between atoms: C_8  and  C_9 
REMARK    4  A    between atoms: C_8  and  S_25 
REMARK    5  A    between atoms: C_9  and  C_10 
REMARK    6  A    between atoms: C_10  and  C_11 
REMARK       I    between atoms: C_11  and  N_23 
REMARK    7  A    between atoms: C_14  and  N_23 
REMARK    8  A    between atoms: C_20  and  C_21 
REMARK    9  A    between atoms: C_21  and  N_22 
ROOT
HETATM    1  C   UNK N   1      36.287  15.263  11.796  0.00  0.00     0.275 C 
HETATM    2  C   UNK N   1      35.142  16.151  11.308  0.00  0.00     0.055 C 
HETATM    3  C   UNK N   1      35.129  16.247   9.772  0.00  0.00     0.087 C 
HETATM    4  C   UNK N   1      36.454  14.133   9.747  0.00  0.00     0.275 C 
HETATM    5  C   UNK N   1      35.285  14.876   9.119  0.00  0.00     0.055 C 
HETATM    6  N   UNK N   1      36.158  13.955  11.165  0.00  0.00     0.092 N 
ENDROOT
BRANCH   6   7
HETATM    7  C   UNK N   1      37.125  13.041  11.753  0.00  0.00     0.314 C 
BRANCH   7   8
HETATM    8  C   UNK N   1      36.517  11.907  12.561  0.00  0.00     0.007 A 
HETATM    9  C   UNK N   1      36.554  11.810  13.987  0.00  0.00     0.109 A 
HETATM   10  C   UNK N   1      35.911  10.706  14.617  0.00  0.00     0.103 A 
HETATM   11  C   UNK N   1      35.275   9.733  13.831  0.00  0.00     0.058 A 
HETATM   12  C   UNK N   1      35.264   9.831  12.446  0.00  0.00     0.014 A 
HETATM   13  C   UNK N   1      35.875  10.912  11.820  0.00  0.00     0.031 A 
HETATM   14 Br   UNK N   1      34.409   8.487  11.405  0.00  0.00    -0.051 Br
BRANCH   9  15
HETATM   15  O   UNK N   1      37.199  12.770  14.702  0.00  0.00    -0.352 OA
HETATM   16  C   UNK N   1      36.632  13.884  15.280  0.00  0.00     0.210 C 
ENDBRANCH   9  15
BRANCH  10  17
HETATM   17  O   UNK N   1      35.907  10.596  15.970  0.00  0.00    -0.353 OA
HETATM   18  C   UNK N   1      36.771   9.785  16.673  0.00  0.00     0.210 C 
ENDBRANCH  10  17
ENDBRANCH   7   8
ENDBRANCH   6   7
BRANCH   3  19
HETATM   19  N   UNK N   1      33.876  16.816   9.337  0.00  0.00    -0.356 N 
HETATM   20  C   UNK N   1      33.795  17.754   8.364  0.00  0.00     0.217 C 
HETATM   21  O   UNK N   1      34.799  18.131   7.777  0.00  0.00    -0.274 OA
HETATM   22  H   UNK N   1      33.045  16.507   9.765  0.00  0.00     0.162 HD
BRANCH  20  23
HETATM   23  C   UNK N   1      32.462  18.330   8.018  0.00  0.00     0.103 C 
BRANCH  23  24
HETATM   24  C   UNK N   1      31.341  17.419   8.490  0.00  0.00     0.019 C 
BRANCH  24  25
HETATM   25  C   UNK N   1      30.388  17.108   7.350  0.00  0.00     0.071 C 
BRANCH  25  26
HETATM   26  S   UNK N   1      28.739  17.791   7.693  0.00  0.00    -0.182 SA
HETATM   27  H   UNK N   1      27.948  17.217   8.639  0.00  0.00     0.101 HD
ENDBRANCH  25  26
ENDBRANCH  24  25
ENDBRANCH  23  24
ENDBRANCH  20  23
ENDBRANCH   3  19
TORSDOF 9
ENDMDL
