MODEL 1
REMARK VINA RESULT:      -6.5      0.000      0.000
REMARK  3 active torsions:
REMARK  status: ('A' for Active; 'I' for Inactive)
REMARK    1  A    between atoms: N_6  and  S_7 
REMARK    2  A    between atoms: S_7  and  C_10 
REMARK    3  A    between atoms: C_15  and  C_16 
ROOT
HETATM    1  C   UNK N   1      32.448  17.090   6.271  0.00  0.00     0.075 A 
HETATM    2  C   UNK N   1      31.291  17.105   7.065  0.00  0.00     0.034 A 
HETATM    3  C   UNK N   1      30.043  17.313   6.511  0.00  0.00    -0.033 A 
HETATM    4  C   UNK N   1      28.843  17.334   7.414  0.00  0.00     0.153 C 
HETATM    5  N   UNK N   1      27.757  18.118   6.831  0.00  0.00    -0.411 N 
HETATM    6  C   UNK N   1      27.405  17.563   5.524  0.00  0.00     0.109 C 
HETATM    7  C   UNK N   1      28.554  17.789   4.524  0.00  0.00     0.066 C 
HETATM    8  C   UNK N   1      29.906  17.526   5.128  0.00  0.00    -0.048 A 
HETATM    9  C   UNK N   1      31.062  17.528   4.321  0.00  0.00     0.009 A 
HETATM   10  C   UNK N   1      32.330  17.316   4.890  0.00  0.00     0.025 A 
HETATM   11  H   UNK N   1      27.313  18.926   7.269  0.00  0.00     0.154 HD
ENDROOT
BRANCH   1  12
HETATM   12  S   UNK N   1      34.038  16.916   7.108  0.00  0.00     0.243 S 
HETATM   13  O   UNK N   1      33.103  17.317   8.263  0.00  0.00    -0.206 OA
HETATM   14  O   UNK N   1      34.638  18.331   7.172  0.00  0.00    -0.206 OA
BRANCH  12  15
HETATM   15  N   UNK N   1      34.820  16.059   8.459  0.00  0.00    -0.205 NA
HETATM   16  C   UNK N   1      34.786  16.885   9.664  0.00  0.00     0.117 C 
HETATM   17  C   UNK N   1      35.577  16.196  10.777  0.00  0.00     0.089 C 
HETATM   18  S   UNK N   1      34.691  14.702  11.331  0.00  0.00    -0.167 SA
HETATM   19  C   UNK N   1      34.789  13.935   9.688  0.00  0.00     0.089 C 
HETATM   20  C   UNK N   1      34.058  14.829   8.703  0.00  0.00     0.117 C 
ENDBRANCH  12  15
ENDBRANCH   1  12
BRANCH   6  21
HETATM   21  C   UNK N   1      26.149  18.247   5.016  0.00  0.00     0.247 C 
HETATM   22  F   UNK N   1      26.343  18.703   3.723  0.00  0.00    -0.253 F 
ENDBRANCH   6  21
TORSDOF 3
ENDMDL
MODEL 2
REMARK VINA RESULT:      -6.2     10.136     12.443
REMARK  3 active torsions:
REMARK  status: ('A' for Active; 'I' for Inactive)
REMARK    1  A    between atoms: N_6  and  S_7 
REMARK    2  A    between atoms: S_7  and  C_10 
REMARK    3  A    between atoms: C_15  and  C_16 
ROOT
HETATM    1  C   UNK N   1      21.035  15.551   7.555  0.00  0.00     0.075 A 
HETATM    2  C   UNK N   1      22.273  14.899   7.678  0.00  0.00     0.034 A 
HETATM    3  C   UNK N   1      22.524  14.029   8.720  0.00  0.00    -0.033 A 
HETATM    4  C   UNK N   1      23.872  13.374   8.808  0.00  0.00     0.153 C 
HETATM    5  N   UNK N   1      24.189  12.997  10.183  0.00  0.00    -0.411 N 
HETATM    6  C   UNK N   1      23.150  12.102  10.693  0.00  0.00     0.109 C 
HETATM    7  C   UNK N   1      21.822  12.866  10.852  0.00  0.00     0.066 C 
HETATM    8  C   UNK N   1      21.541  13.784   9.695  0.00  0.00    -0.048 A 
HETATM    9  C   UNK N   1      20.299  14.443   9.591  0.00  0.00     0.009 A 
HETATM   10  C   UNK N   1      20.048  15.328   8.528  0.00  0.00     0.025 A 
HETATM   11  H   UNK N   1      25.008  13.311  10.706  0.00  0.00     0.154 HD
ENDROOT
BRANCH   1  12
HETATM   12  S   UNK N   1      20.847  16.747   6.216  0.00  0.00     0.243 S 
HETATM   13  O   UNK N   1      22.347  16.413   6.146  0.00  0.00    -0.206 OA
HETATM   14  O   UNK N   1      21.232  18.112   6.813  0.00  0.00    -0.206 OA
BRANCH  12  15
HETATM   15  N   UNK N   1      21.134  16.948   4.470  0.00  0.00    -0.205 NA
HETATM   16  C   UNK N   1      20.383  15.946   3.719  0.00  0.00     0.117 C 
HETATM   17  C   UNK N   1      20.743  16.043   2.235  0.00  0.00     0.089 C 
HETATM   18  S   UNK N   1      20.083  17.595   1.540  0.00  0.00    -0.167 SA
HETATM   19  C   UNK N   1      21.069  18.617   2.672  0.00  0.00     0.089 C 
HETATM   20  C   UNK N   1      20.656  18.283   4.093  0.00  0.00     0.117 C 
ENDBRANCH  12  15
ENDBRANCH   1  12
BRANCH   6  21
HETATM   21  C   UNK N   1      23.584  11.554  12.040  0.00  0.00     0.247 C 
HETATM   22  F   UNK N   1      22.565  11.701  12.966  0.00  0.00    -0.253 F 
ENDBRANCH   6  21
TORSDOF 3
ENDMDL
MODEL 3
REMARK VINA RESULT:      -6.2      8.845     12.735
REMARK  3 active torsions:
REMARK  status: ('A' for Active; 'I' for Inactive)
REMARK    1  A    between atoms: N_6  and  S_7 
REMARK    2  A    between atoms: S_7  and  C_10 
REMARK    3  A    between atoms: C_15  and  C_16 
ROOT
HETATM    1  C   UNK N   1      35.559  12.839  15.793  0.00  0.00     0.075 A 
HETATM    2  C   UNK N   1      35.602  11.482  16.152  0.00  0.00     0.034 A 
HETATM    3  C   UNK N   1      35.442  11.082  17.463  0.00  0.00    -0.033 A 
HETATM    4  C   UNK N   1      35.513   9.618  17.789  0.00  0.00     0.153 C 
HETATM    5  N   UNK N   1      35.917   9.403  19.176  0.00  0.00    -0.411 N 
HETATM    6  C   UNK N   1      34.974  10.081  20.066  0.00  0.00     0.109 C 
HETATM    7  C   UNK N   1      35.102  11.608  19.913  0.00  0.00     0.066 C 
HETATM    8  C   UNK N   1      35.240  12.035  18.478  0.00  0.00    -0.048 A 
HETATM    9  C   UNK N   1      35.210  13.402  18.133  0.00  0.00     0.009 A 
HETATM   10  C   UNK N   1      35.374  13.804  16.796  0.00  0.00     0.025 A 
HETATM   11  H   UNK N   1      36.731   8.865  19.476  0.00  0.00     0.154 HD
ENDROOT
BRANCH   1  12
HETATM   12  S   UNK N   1      35.885  13.261  14.068  0.00  0.00     0.243 S 
HETATM   13  O   UNK N   1      34.520  12.557  13.979  0.00  0.00    -0.206 OA
HETATM   14  O   UNK N   1      36.514  12.005  13.438  0.00  0.00    -0.206 OA
BRANCH  12  15
HETATM   15  N   UNK N   1      35.175  14.124  12.682  0.00  0.00    -0.205 NA
HETATM   16  C   UNK N   1      36.001  15.277  12.331  0.00  0.00     0.117 C 
HETATM   17  C   UNK N   1      35.310  16.083  11.230  0.00  0.00     0.089 C 
HETATM   18  S   UNK N   1      35.321  15.136   9.671  0.00  0.00    -0.167 SA
HETATM   19  C   UNK N   1      34.355  13.779  10.395  0.00  0.00     0.089 C 
HETATM   20  C   UNK N   1      35.149  13.193  11.547  0.00  0.00     0.117 C 
ENDBRANCH  12  15
ENDBRANCH   1  12
BRANCH   6  21
HETATM   21  C   UNK N   1      35.277   9.688  21.501  0.00  0.00     0.247 C 
HETATM   22  F   UNK N   1      36.623   9.866  21.771  0.00  0.00    -0.253 F 
ENDBRANCH   6  21
TORSDOF 3
ENDMDL
MODEL 4
REMARK VINA RESULT:      -6.2      4.118      6.448
REMARK  3 active torsions:
REMARK  status: ('A' for Active; 'I' for Inactive)
REMARK    1  A    between atoms: N_6  and  S_7 
REMARK    2  A    between atoms: S_7  and  C_10 
REMARK    3  A    between atoms: C_15  and  C_16 
ROOT
HETATM    1  C   UNK N   1      26.543  18.455   4.391  0.00  0.00     0.075 A 
HETATM    2  C   UNK N   1      25.224  17.981   4.474  0.00  0.00     0.034 A 
HETATM    3  C   UNK N   1      24.171  18.691   3.932  0.00  0.00    -0.033 A 
HETATM    4  C   UNK N   1      22.780  18.141   4.065  0.00  0.00     0.153 C 
HETATM    5  N   UNK N   1      21.782  19.205   4.004  0.00  0.00    -0.411 N 
HETATM    6  C   UNK N   1      21.926  19.933   2.743  0.00  0.00     0.109 C 
HETATM    7  C   UNK N   1      23.252  20.717   2.729  0.00  0.00     0.066 C 
HETATM    8  C   UNK N   1      24.399  19.921   3.289  0.00  0.00    -0.048 A 
HETATM    9  C   UNK N   1      25.717  20.415   3.212  0.00  0.00     0.009 A 
HETATM   10  C   UNK N   1      26.785  19.688   3.765  0.00  0.00     0.025 A 
HETATM   11  H   UNK N   1      21.092  19.409   4.728  0.00  0.00     0.154 HD
ENDROOT
BRANCH   1  12
HETATM   12  S   UNK N   1      27.831  17.503   5.223  0.00  0.00     0.243 S 
HETATM   13  O   UNK N   1      28.291  18.952   5.461  0.00  0.00    -0.206 OA
HETATM   14  O   UNK N   1      28.976  17.363   4.205  0.00  0.00    -0.206 OA
BRANCH  12  15
HETATM   15  N   UNK N   1      28.638  17.323   6.800  0.00  0.00    -0.205 NA
HETATM   16  C   UNK N   1      30.088  17.337   6.626  0.00  0.00     0.117 C 
HETATM   17  C   UNK N   1      30.766  17.047   7.966  0.00  0.00     0.089 C 
HETATM   18  S   UNK N   1      30.519  18.453   9.101  0.00  0.00    -0.167 SA
HETATM   19  C   UNK N   1      28.712  18.272   9.062  0.00  0.00     0.089 C 
HETATM   20  C   UNK N   1      28.247  18.468   7.631  0.00  0.00     0.117 C 
ENDBRANCH  12  15
ENDBRANCH   1  12
BRANCH   6  21
HETATM   21  C   UNK N   1      20.765  20.898   2.591  0.00  0.00     0.247 C 
HETATM   22  F   UNK N   1      20.305  20.892   1.285  0.00  0.00    -0.253 F 
ENDBRANCH   6  21
TORSDOF 3
ENDMDL
MODEL 5
REMARK VINA RESULT:      -6.0      3.988      5.822
REMARK  3 active torsions:
REMARK  status: ('A' for Active; 'I' for Inactive)
REMARK    1  A    between atoms: N_6  and  S_7 
REMARK    2  A    between atoms: S_7  and  C_10 
REMARK    3  A    between atoms: C_15  and  C_16 
ROOT
HETATM    1  C   UNK N   1      35.184  15.062  10.174  0.00  0.00     0.075 A 
HETATM    2  C   UNK N   1      34.912  14.506   8.914  0.00  0.00     0.034 A 
HETATM    3  C   UNK N   1      34.500  15.293   7.856  0.00  0.00    -0.033 A 
HETATM    4  C   UNK N   1      34.209  14.639   6.536  0.00  0.00     0.153 C 
HETATM    5  N   UNK N   1      33.264  15.430   5.751  0.00  0.00    -0.411 N 
HETATM    6  C   UNK N   1      33.806  16.774   5.549  0.00  0.00     0.109 C 
HETATM    7  C   UNK N   1      33.851  17.536   6.887  0.00  0.00     0.066 C 
HETATM    8  C   UNK N   1      34.334  16.679   8.025  0.00  0.00    -0.048 A 
HETATM    9  C   UNK N   1      34.590  17.248   9.289  0.00  0.00     0.009 A 
HETATM   10  C   UNK N   1      35.008  16.442  10.362  0.00  0.00     0.025 A 
HETATM   11  H   UNK N   1      32.366  15.096   5.400  0.00  0.00     0.154 HD
ENDROOT
BRANCH   1  12
HETATM   12  S   UNK N   1      35.613  13.931  11.514  0.00  0.00     0.243 S 
HETATM   13  O   UNK N   1      35.875  15.307  12.151  0.00  0.00    -0.206 OA
HETATM   14  O   UNK N   1      37.138  13.739  11.431  0.00  0.00    -0.206 OA
BRANCH  12  15
HETATM   15  N   UNK N   1      35.230  13.570  13.215  0.00  0.00    -0.205 NA
HETATM   16  C   UNK N   1      34.800  12.181  13.349  0.00  0.00     0.117 C 
HETATM   17  C   UNK N   1      34.346  11.923  14.787  0.00  0.00     0.089 C 
HETATM   18  S   UNK N   1      35.785  11.972  15.907  0.00  0.00    -0.167 SA
HETATM   19  C   UNK N   1      36.159  13.698  15.483  0.00  0.00     0.089 C 
HETATM   20  C   UNK N   1      36.456  13.767  13.997  0.00  0.00     0.117 C 
ENDBRANCH  12  15
ENDBRANCH   1  12
BRANCH   6  21
HETATM   21  C   UNK N   1      32.924  17.522   4.568  0.00  0.00     0.247 C 
HETATM   22  F   UNK N   1      31.642  17.648   5.078  0.00  0.00    -0.253 F 
ENDBRANCH   6  21
TORSDOF 3
ENDMDL
MODEL 6
REMARK VINA RESULT:      -5.9     15.901     17.319
REMARK  3 active torsions:
REMARK  status: ('A' for Active; 'I' for Inactive)
REMARK    1  A    between atoms: N_6  and  S_7 
REMARK    2  A    between atoms: S_7  and  C_10 
REMARK    3  A    between atoms: C_15  and  C_16 
ROOT
HETATM    1  C   UNK N   1      25.964  26.422  -5.014  0.00  0.00     0.075 A 
HETATM    2  C   UNK N   1      25.772  26.270  -6.396  0.00  0.00     0.034 A 
HETATM    3  C   UNK N   1      25.719  25.020  -6.980  0.00  0.00    -0.033 A 
HETATM    4  C   UNK N   1      25.527  24.921  -8.466  0.00  0.00     0.153 C 
HETATM    5  N   UNK N   1      26.070  23.670  -8.987  0.00  0.00    -0.411 N 
HETATM    6  C   UNK N   1      25.427  22.543  -8.312  0.00  0.00     0.109 C 
HETATM    7  C   UNK N   1      25.849  22.499  -6.831  0.00  0.00     0.066 C 
HETATM    8  C   UNK N   1      25.869  23.862  -6.196  0.00  0.00    -0.048 A 
HETATM    9  C   UNK N   1      26.077  24.001  -4.808  0.00  0.00     0.009 A 
HETATM   10  C   UNK N   1      26.130  25.276  -4.219  0.00  0.00     0.025 A 
HETATM   11  H   UNK N   1      26.786  23.595  -9.711  0.00  0.00     0.154 HD
ENDROOT
BRANCH   1  12
HETATM   12  S   UNK N   1      26.123  28.100  -4.367  0.00  0.00     0.243 S 
HETATM   13  O   UNK N   1      27.349  27.398  -3.758  0.00  0.00    -0.206 OA
HETATM   14  O   UNK N   1      25.481  28.076  -2.969  0.00  0.00    -0.206 OA
BRANCH  12  15
HETATM   15  N   UNK N   1      27.263  29.466  -4.290  0.00  0.00    -0.205 NA
HETATM   16  C   UNK N   1      28.309  29.192  -3.308  0.00  0.00     0.117 C 
HETATM   17  C   UNK N   1      29.201  30.425  -3.154  0.00  0.00     0.089 C 
HETATM   18  S   UNK N   1      30.179  30.674  -4.674  0.00  0.00    -0.167 SA
HETATM   19  C   UNK N   1      28.691  30.884  -5.694  0.00  0.00     0.089 C 
HETATM   20  C   UNK N   1      27.877  29.606  -5.615  0.00  0.00     0.117 C 
ENDBRANCH  12  15
ENDBRANCH   1  12
BRANCH   6  21
HETATM   21  C   UNK N   1      25.841  21.253  -8.995  0.00  0.00     0.247 C 
HETATM   22  F   UNK N   1      25.486  20.164  -8.216  0.00  0.00    -0.253 F 
ENDBRANCH   6  21
TORSDOF 3
ENDMDL
MODEL 7
REMARK VINA RESULT:      -5.9      8.585     11.000
REMARK  3 active torsions:
REMARK  status: ('A' for Active; 'I' for Inactive)
REMARK    1  A    between atoms: N_6  and  S_7 
REMARK    2  A    between atoms: S_7  and  C_10 
REMARK    3  A    between atoms: C_15  and  C_16 
ROOT
HETATM    1  C   UNK N   1      22.060  14.817   6.717  0.00  0.00     0.075 A 
HETATM    2  C   UNK N   1      23.246  14.268   7.228  0.00  0.00     0.034 A 
HETATM    3  C   UNK N   1      23.272  13.627   8.451  0.00  0.00    -0.033 A 
HETATM    4  C   UNK N   1      24.574  13.073   8.952  0.00  0.00     0.153 C 
HETATM    5  N   UNK N   1      24.584  12.983  10.410  0.00  0.00    -0.411 N 
HETATM    6  C   UNK N   1      23.468  12.147  10.852  0.00  0.00     0.109 C 
HETATM    7  C   UNK N   1      22.129  12.855  10.570  0.00  0.00     0.066 C 
HETATM    8  C   UNK N   1      22.100  13.519   9.221  0.00  0.00    -0.048 A 
HETATM    9  C   UNK N   1      20.905  14.079   8.726  0.00  0.00     0.009 A 
HETATM   10  C   UNK N   1      20.885  14.731   7.481  0.00  0.00     0.025 A 
HETATM   11  H   UNK N   1      25.264  13.433  11.024  0.00  0.00     0.154 HD
ENDROOT
BRANCH   1  12
HETATM   12  S   UNK N   1      22.158  15.725   5.160  0.00  0.00     0.243 S 
HETATM   13  O   UNK N   1      22.193  16.858   6.201  0.00  0.00    -0.206 OA
HETATM   14  O   UNK N   1      20.716  16.147   4.826  0.00  0.00    -0.206 OA
BRANCH  12  15
HETATM   15  N   UNK N   1      23.162  16.916   4.297  0.00  0.00    -0.205 NA
HETATM   16  C   UNK N   1      22.743  18.272   4.645  0.00  0.00     0.117 C 
HETATM   17  C   UNK N   1      23.520  19.280   3.797  0.00  0.00     0.089 C 
HETATM   18  S   UNK N   1      25.272  19.295   4.307  0.00  0.00    -0.167 SA
HETATM   19  C   UNK N   1      25.496  17.545   3.876  0.00  0.00     0.089 C 
HETATM   20  C   UNK N   1      24.551  16.721   4.730  0.00  0.00     0.117 C 
ENDBRANCH  12  15
ENDBRANCH   1  12
BRANCH   6  21
HETATM   21  C   UNK N   1      23.600  11.889  12.342  0.00  0.00     0.247 C 
HETATM   22  F   UNK N   1      22.351  11.685  12.905  0.00  0.00    -0.253 F 
ENDBRANCH   6  21
TORSDOF 3
ENDMDL
MODEL 8
REMARK VINA RESULT:      -5.9     12.895     15.367
REMARK  3 active torsions:
REMARK  status: ('A' for Active; 'I' for Inactive)
REMARK    1  A    between atoms: N_6  and  S_7 
REMARK    2  A    between atoms: S_7  and  C_10 
REMARK    3  A    between atoms: C_15  and  C_16 
ROOT
HETATM    1  C   UNK N   1      28.787  23.658  -4.407  0.00  0.00     0.075 A 
HETATM    2  C   UNK N   1      29.435  22.769  -5.279  0.00  0.00     0.034 A 
HETATM    3  C   UNK N   1      30.535  22.041  -4.873  0.00  0.00    -0.033 A 
HETATM    4  C   UNK N   1      31.196  21.117  -5.856  0.00  0.00     0.153 C 
HETATM    5  N   UNK N   1      32.600  20.901  -5.517  0.00  0.00    -0.411 N 
HETATM    6  C   UNK N   1      32.694  20.358  -4.161  0.00  0.00     0.109 C 
HETATM    7  C   UNK N   1      32.261  21.420  -3.132  0.00  0.00     0.066 C 
HETATM    8  C   UNK N   1      31.040  22.183  -3.569  0.00  0.00    -0.048 A 
HETATM    9  C   UNK N   1      30.408  23.084  -2.687  0.00  0.00     0.009 A 
HETATM   10  C   UNK N   1      29.288  23.823  -3.106  0.00  0.00     0.025 A 
HETATM   11  H   UNK N   1      33.391  21.097  -6.130  0.00  0.00     0.154 HD
ENDROOT
BRANCH   1  12
HETATM   12  S   UNK N   1      27.424  24.639  -5.069  0.00  0.00     0.243 S 
HETATM   13  O   UNK N   1      27.235  24.801  -3.550  0.00  0.00    -0.206 OA
HETATM   14  O   UNK N   1      26.197  23.710  -5.069  0.00  0.00    -0.206 OA
BRANCH  12  15
HETATM   15  N   UNK N   1      26.720  26.274  -5.010  0.00  0.00    -0.205 NA
HETATM   16  C   UNK N   1      26.377  26.624  -3.634  0.00  0.00     0.117 C 
HETATM   17  C   UNK N   1      25.653  27.971  -3.615  0.00  0.00     0.089 C 
HETATM   18  S   UNK N   1      26.817  29.305  -4.054  0.00  0.00    -0.167 SA
HETATM   19  C   UNK N   1      27.141  28.593  -5.693  0.00  0.00     0.089 C 
HETATM   20  C   UNK N   1      27.738  27.211  -5.501  0.00  0.00     0.117 C 
ENDBRANCH  12  15
ENDBRANCH   1  12
BRANCH   6  21
HETATM   21  C   UNK N   1      34.128  19.945  -3.890  0.00  0.00     0.247 C 
HETATM   22  F   UNK N   1      34.826  20.992  -3.310  0.00  0.00    -0.253 F 
ENDBRANCH   6  21
TORSDOF 3
ENDMDL
MODEL 9
REMARK VINA RESULT:      -5.9     11.923     13.537
REMARK  3 active torsions:
REMARK  status: ('A' for Active; 'I' for Inactive)
REMARK    1  A    between atoms: N_6  and  S_7 
REMARK    2  A    between atoms: S_7  and  C_10 
REMARK    3  A    between atoms: C_15  and  C_16 
ROOT
HETATM    1  C   UNK N   1      30.193  22.974  -3.582  0.00  0.00     0.075 A 
HETATM    2  C   UNK N   1      29.901  23.687  -4.756  0.00  0.00     0.034 A 
HETATM    3  C   UNK N   1      28.733  24.414  -4.881  0.00  0.00    -0.033 A 
HETATM    4  C   UNK N   1      28.467  25.143  -6.167  0.00  0.00     0.153 C 
HETATM    5  N   UNK N   1      27.035  25.339  -6.378  0.00  0.00    -0.411 N 
HETATM    6  C   UNK N   1      26.475  26.076  -5.245  0.00  0.00     0.109 C 
HETATM    7  C   UNK N   1      26.510  25.206  -3.974  0.00  0.00     0.066 C 
HETATM    8  C   UNK N   1      27.800  24.447  -3.830  0.00  0.00    -0.048 A 
HETATM    9  C   UNK N   1      28.075  23.723  -2.651  0.00  0.00     0.009 A 
HETATM   10  C   UNK N   1      29.265  22.985  -2.529  0.00  0.00     0.025 A 
HETATM   11  H   UNK N   1      26.509  25.012  -7.189  0.00  0.00     0.154 HD
ENDROOT
BRANCH   1  12
HETATM   12  S   UNK N   1      31.695  21.973  -3.562  0.00  0.00     0.243 S 
HETATM   13  O   UNK N   1      30.591  20.908  -3.436  0.00  0.00    -0.206 OA
HETATM   14  O   UNK N   1      32.021  21.733  -2.077  0.00  0.00    -0.206 OA
BRANCH  12  15
HETATM   15  N   UNK N   1      32.477  20.608  -4.396  0.00  0.00    -0.205 NA
HETATM   16  C   UNK N   1      32.827  20.988  -5.763  0.00  0.00     0.117 C 
HETATM   17  C   UNK N   1      33.372  19.769  -6.508  0.00  0.00     0.089 C 
HETATM   18  S   UNK N   1      35.000  19.306  -5.828  0.00  0.00    -0.167 SA
HETATM   19  C   UNK N   1      34.311  18.993  -4.177  0.00  0.00     0.089 C 
HETATM   20  C   UNK N   1      33.706  20.285  -3.662  0.00  0.00     0.117 C 
ENDBRANCH  12  15
ENDBRANCH   1  12
BRANCH   6  21
HETATM   21  C   UNK N   1      25.039  26.454  -5.561  0.00  0.00     0.247 C 
HETATM   22  F   UNK N   1      24.713  27.649  -4.942  0.00  0.00    -0.253 F 
ENDBRANCH   6  21
TORSDOF 3
ENDMDL
