MODEL 1
REMARK VINA RESULT:      -7.7      0.000      0.000
REMARK  7 active torsions:
REMARK  status: ('A' for Active; 'I' for Inactive)
REMARK    1  A    between atoms: N_3  and  C_4 
REMARK    2  A    between atoms: C_4  and  C_5 
REMARK    3  A    between atoms: C_12  and  C_30 
REMARK    4  A    between atoms: C_19  and  C_20 
REMARK    5  A    between atoms: C_23  and  C_26 
REMARK    6  A    between atoms: C_26  and  N_27 
REMARK    7  A    between atoms: C_26  and  N_28 
ROOT
HETATM    1  O   UNK N   1      34.519  13.864  12.652  0.00  0.00    -0.273 OA
HETATM    2  C   UNK N   1      35.465  13.106  12.549  0.00  0.00     0.227 C 
HETATM    3  N   UNK N   1      35.553  11.929  13.202  0.00  0.00    -0.337 N 
HETATM    4  C   UNK N   1      36.675  11.155  12.741  0.00  0.00     0.159 C 
HETATM    5  C   UNK N   1      37.524  12.157  11.889  0.00  0.00     0.063 C 
HETATM    6  C   UNK N   1      37.733  11.664  10.447  0.00  0.00     0.231 C 
HETATM    7  N   UNK N   1      36.681  12.283   9.632  0.00  0.00     0.103 N 
HETATM    8  C   UNK N   1      37.255  12.370   8.282  0.00  0.00     0.274 C 
HETATM    9  C   UNK N   1      38.766  12.179   8.384  0.00  0.00     0.032 C 
HETATM   10  C   UNK N   1      39.050  12.144   9.864  0.00  0.00     0.038 C 
HETATM   11  C   UNK N   1      36.550  13.631  10.221  0.00  0.00     0.270 C 
HETATM   12  C   UNK N   1      36.671  13.432  11.735  0.00  0.00     0.124 C 
ENDROOT
BRANCH  11  13
HETATM   13  C   UNK N   1      35.351  14.429   9.761  0.00  0.00    -0.024 A 
HETATM   14  C   UNK N   1      35.395  15.830   9.829  0.00  0.00     0.010 A 
HETATM   15  C   UNK N   1      34.306  16.594   9.409  0.00  0.00     0.011 A 
HETATM   16  C   UNK N   1      33.170  15.968   8.882  0.00  0.00    -0.017 A 
HETATM   17  C   UNK N   1      33.129  14.572   8.787  0.00  0.00     0.011 A 
HETATM   18  C   UNK N   1      34.211  13.804   9.234  0.00  0.00     0.010 A 
BRANCH  16  19
HETATM   19  C   UNK N   1      31.995  16.776   8.433  0.00  0.00     0.202 C 
BRANCH  19  20
HETATM   20  N   UNK N   1      30.919  16.678   9.404  0.00  0.00    -0.407 N 
HETATM   21  H   UNK N   1      31.086  16.245  10.311  0.00  0.00     0.152 HD
HETATM   22  H   UNK N   1      29.994  17.044   9.177  0.00  0.00     0.152 HD
ENDBRANCH  19  20
BRANCH  19  23
HETATM   23  N   UNK N   1      32.373  18.171   8.266  0.00  0.00    -0.407 N 
HETATM   24  H   UNK N   1      33.175  18.752   8.511  0.00  0.00     0.152 HD
HETATM   25  H   UNK N   1      31.653  18.703   7.778  0.00  0.00     0.152 HD
ENDBRANCH  19  23
ENDBRANCH  16  19
ENDBRANCH  11  13
BRANCH   3  26
HETATM   26  C   UNK N   1      34.620  11.403  14.206  0.00  0.00     0.165 C 
BRANCH  26  27
HETATM   27  C   UNK N   1      34.844  11.791  15.647  0.00  0.00    -0.040 A 
HETATM   28  C   UNK N   1      35.085  10.778  16.581  0.00  0.00     0.012 A 
HETATM   29  C   UNK N   1      35.297  11.091  17.926  0.00  0.00     0.043 A 
HETATM   30  C   UNK N   1      35.260  12.422  18.350  0.00  0.00     0.116 A 
HETATM   31  F   UNK N   1      35.421  12.717  19.663  0.00  0.00    -0.206 F 
HETATM   32  C   UNK N   1      35.054  13.444  17.420  0.00  0.00     0.043 A 
HETATM   33  C   UNK N   1      34.871  13.134  16.067  0.00  0.00     0.012 A 
ENDBRANCH  26  27
ENDBRANCH   3  26
BRANCH   4  34
HETATM   34  C   UNK N   1      37.524  10.544  13.865  0.00  0.00     0.376 C 
HETATM   35  F   UNK N   1      38.127  11.560  14.589  0.00  0.00    -0.212 F 
HETATM   36  F   UNK N   1      38.519   9.740  13.341  0.00  0.00    -0.212 F 
ENDBRANCH   4  34
TORSDOF 7
ENDMDL
MODEL 2
REMARK VINA RESULT:      -7.6      3.337      7.375
REMARK  7 active torsions:
REMARK  status: ('A' for Active; 'I' for Inactive)
REMARK    1  A    between atoms: N_3  and  C_4 
REMARK    2  A    between atoms: C_4  and  C_5 
REMARK    3  A    between atoms: C_12  and  C_30 
REMARK    4  A    between atoms: C_19  and  C_20 
REMARK    5  A    between atoms: C_23  and  C_26 
REMARK    6  A    between atoms: C_26  and  N_27 
REMARK    7  A    between atoms: C_26  and  N_28 
ROOT
HETATM    1  O   UNK N   1      34.646  14.580  12.390  0.00  0.00    -0.273 OA
HETATM    2  C   UNK N   1      35.131  13.827  11.566  0.00  0.00     0.227 C 
HETATM    3  N   UNK N   1      35.673  14.241  10.403  0.00  0.00    -0.337 N 
HETATM    4  C   UNK N   1      36.344  13.165   9.723  0.00  0.00     0.159 C 
HETATM    5  C   UNK N   1      35.878  11.872  10.473  0.00  0.00     0.063 C 
HETATM    6  C   UNK N   1      37.063  11.065  11.033  0.00  0.00     0.231 C 
HETATM    7  N   UNK N   1      37.238  11.485  12.428  0.00  0.00     0.103 N 
HETATM    8  C   UNK N   1      37.839  10.323  13.097  0.00  0.00     0.274 C 
HETATM    9  C   UNK N   1      37.647   9.098  12.206  0.00  0.00     0.032 C 
HETATM   10  C   UNK N   1      36.769   9.576  11.078  0.00  0.00     0.038 C 
HETATM   11  C   UNK N   1      35.851  11.684  12.895  0.00  0.00     0.270 C 
HETATM   12  C   UNK N   1      35.113  12.344  11.725  0.00  0.00     0.124 C 
ENDROOT
BRANCH  11  13
HETATM   13  C   UNK N   1      35.707  12.377  14.232  0.00  0.00    -0.024 A 
HETATM   14  C   UNK N   1      34.559  12.142  15.003  0.00  0.00     0.010 A 
HETATM   15  C   UNK N   1      34.399  12.763  16.242  0.00  0.00     0.011 A 
HETATM   16  C   UNK N   1      35.401  13.602  16.742  0.00  0.00    -0.017 A 
HETATM   17  C   UNK N   1      36.561  13.822  15.989  0.00  0.00     0.011 A 
HETATM   18  C   UNK N   1      36.710  13.220  14.734  0.00  0.00     0.010 A 
BRANCH  16  19
HETATM   19  C   UNK N   1      35.239  14.278  18.066  0.00  0.00     0.202 C 
BRANCH  19  20
HETATM   20  N   UNK N   1      35.389  13.315  19.142  0.00  0.00    -0.407 N 
HETATM   21  H   UNK N   1      36.284  12.850  19.292  0.00  0.00     0.152 HD
HETATM   22  H   UNK N   1      34.598  13.103  19.751  0.00  0.00     0.152 HD
ENDBRANCH  19  20
BRANCH  19  23
HETATM   23  N   UNK N   1      36.225  15.336  18.218  0.00  0.00    -0.407 N 
HETATM   24  H   UNK N   1      37.208  15.468  17.981  0.00  0.00     0.152 HD
HETATM   25  H   UNK N   1      35.833  16.156  18.680  0.00  0.00     0.152 HD
ENDBRANCH  19  23
ENDBRANCH  16  19
ENDBRANCH  11  13
BRANCH   3  26
HETATM   26  C   UNK N   1      35.689  15.610   9.873  0.00  0.00     0.165 C 
BRANCH  26  27
HETATM   27  C   UNK N   1      34.406  16.155   9.294  0.00  0.00    -0.040 A 
HETATM   28  C   UNK N   1      34.415  17.444   8.751  0.00  0.00     0.012 A 
HETATM   29  C   UNK N   1      33.250  17.990   8.205  0.00  0.00     0.043 A 
HETATM   30  C   UNK N   1      32.063  17.252   8.206  0.00  0.00     0.116 A 
HETATM   31  F   UNK N   1      30.925  17.802   7.717  0.00  0.00    -0.206 F 
HETATM   32  C   UNK N   1      32.052  15.950   8.715  0.00  0.00     0.043 A 
HETATM   33  C   UNK N   1      33.225  15.392   9.235  0.00  0.00     0.012 A 
ENDBRANCH  26  27
ENDBRANCH   3  26
BRANCH   4  34
HETATM   34  C   UNK N   1      36.022  13.069   8.225  0.00  0.00     0.376 C 
HETATM   35  F   UNK N   1      34.693  12.717   8.063  0.00  0.00    -0.212 F 
HETATM   36  F   UNK N   1      36.801  12.098   7.621  0.00  0.00    -0.212 F 
ENDBRANCH   4  34
TORSDOF 7
ENDMDL
MODEL 3
REMARK VINA RESULT:      -7.4      8.188     12.441
REMARK  7 active torsions:
REMARK  status: ('A' for Active; 'I' for Inactive)
REMARK    1  A    between atoms: N_3  and  C_4 
REMARK    2  A    between atoms: C_4  and  C_5 
REMARK    3  A    between atoms: C_12  and  C_30 
REMARK    4  A    between atoms: C_19  and  C_20 
REMARK    5  A    between atoms: C_23  and  C_26 
REMARK    6  A    between atoms: C_26  and  N_27 
REMARK    7  A    between atoms: C_26  and  N_28 
ROOT
HETATM    1  O   UNK N   1      28.204  14.900   5.562  0.00  0.00    -0.273 OA
HETATM    2  C   UNK N   1      27.367  15.704   5.196  0.00  0.00     0.227 C 
HETATM    3  N   UNK N   1      26.048  15.434   5.133  0.00  0.00    -0.337 N 
HETATM    4  C   UNK N   1      25.280  16.619   4.862  0.00  0.00     0.159 C 
HETATM    5  C   UNK N   1      26.340  17.686   4.426  0.00  0.00     0.063 C 
HETATM    6  C   UNK N   1      26.299  18.943   5.313  0.00  0.00     0.231 C 
HETATM    7  N   UNK N   1      27.313  18.757   6.357  0.00  0.00     0.103 N 
HETATM    8  C   UNK N   1      27.723  20.118   6.729  0.00  0.00     0.274 C 
HETATM    9  C   UNK N   1      27.255  21.079   5.640  0.00  0.00     0.032 C 
HETATM   10  C   UNK N   1      26.707  20.192   4.552  0.00  0.00     0.038 C 
HETATM   11  C   UNK N   1      28.408  18.069   5.642  0.00  0.00     0.270 C 
HETATM   12  C   UNK N   1      27.723  17.067   4.706  0.00  0.00     0.124 C 
ENDROOT
BRANCH  11  13
HETATM   13  C   UNK N   1      29.502  17.502   6.518  0.00  0.00    -0.024 A 
HETATM   14  C   UNK N   1      30.728  17.144   5.936  0.00  0.00     0.010 A 
HETATM   15  C   UNK N   1      31.758  16.621   6.718  0.00  0.00     0.011 A 
HETATM   16  C   UNK N   1      31.589  16.482   8.101  0.00  0.00    -0.017 A 
HETATM   17  C   UNK N   1      30.378  16.861   8.693  0.00  0.00     0.011 A 
HETATM   18  C   UNK N   1      29.335  17.360   7.904  0.00  0.00     0.010 A 
BRANCH  16  19
HETATM   19  C   UNK N   1      32.683  15.918   8.949  0.00  0.00     0.202 C 
BRANCH  19  20
HETATM   20  N   UNK N   1      33.561  16.981   9.406  0.00  0.00    -0.407 N 
HETATM   21  H   UNK N   1      33.344  17.492  10.260  0.00  0.00     0.152 HD
HETATM   22  H   UNK N   1      34.397  17.216   8.870  0.00  0.00     0.152 HD
ENDBRANCH  19  20
BRANCH  19  23
HETATM   23  N   UNK N   1      32.126  15.220  10.097  0.00  0.00    -0.407 N 
HETATM   24  H   UNK N   1      32.459  14.536  10.777  0.00  0.00     0.152 HD
HETATM   25  H   UNK N   1      31.155  15.481  10.264  0.00  0.00     0.152 HD
ENDBRANCH  19  23
ENDBRANCH  16  19
ENDBRANCH  11  13
BRANCH   3  26
HETATM   26  C   UNK N   1      25.398  14.140   5.377  0.00  0.00     0.165 C 
BRANCH  26  27
HETATM   27  C   UNK N   1      24.612  13.976   6.654  0.00  0.00    -0.040 A 
HETATM   28  C   UNK N   1      25.278  13.511   7.793  0.00  0.00     0.012 A 
HETATM   29  C   UNK N   1      24.589  13.344   8.997  0.00  0.00     0.043 A 
HETATM   30  C   UNK N   1      23.223  13.632   9.069  0.00  0.00     0.116 A 
HETATM   31  F   UNK N   1      22.549  13.426  10.227  0.00  0.00    -0.206 F 
HETATM   32  C   UNK N   1      22.556  14.131   7.947  0.00  0.00     0.043 A 
HETATM   33  C   UNK N   1      23.252  14.327   6.748  0.00  0.00     0.012 A 
ENDBRANCH  26  27
ENDBRANCH   3  26
BRANCH   4  34
HETATM   34  C   UNK N   1      24.210  16.443   3.774  0.00  0.00     0.376 C 
HETATM   35  F   UNK N   1      24.808  15.984   2.612  0.00  0.00    -0.212 F 
HETATM   36  F   UNK N   1      23.596  17.650   3.495  0.00  0.00    -0.212 F 
ENDBRANCH   4  34
TORSDOF 7
ENDMDL
MODEL 4
REMARK VINA RESULT:      -7.4      6.683     10.805
REMARK  7 active torsions:
REMARK  status: ('A' for Active; 'I' for Inactive)
REMARK    1  A    between atoms: N_3  and  C_4 
REMARK    2  A    between atoms: C_4  and  C_5 
REMARK    3  A    between atoms: C_12  and  C_30 
REMARK    4  A    between atoms: C_19  and  C_20 
REMARK    5  A    between atoms: C_23  and  C_26 
REMARK    6  A    between atoms: C_26  and  N_27 
REMARK    7  A    between atoms: C_26  and  N_28 
ROOT
HETATM    1  O   UNK N   1      30.443  16.596   4.833  0.00  0.00    -0.273 OA
HETATM    2  C   UNK N   1      30.688  16.938   5.975  0.00  0.00     0.227 C 
HETATM    3  N   UNK N   1      29.740  17.173   6.904  0.00  0.00    -0.337 N 
HETATM    4  C   UNK N   1      30.317  17.363   8.208  0.00  0.00     0.159 C 
HETATM    5  C   UNK N   1      31.849  17.541   7.940  0.00  0.00     0.063 C 
HETATM    6  C   UNK N   1      32.696  16.505   8.699  0.00  0.00     0.231 C 
HETATM    7  N   UNK N   1      32.938  15.395   7.771  0.00  0.00     0.103 N 
HETATM    8  C   UNK N   1      34.209  14.805   8.213  0.00  0.00     0.274 C 
HETATM    9  C   UNK N   1      34.910  15.799   9.134  0.00  0.00     0.032 C 
HETATM   10  C   UNK N   1      34.066  17.047   9.068  0.00  0.00     0.038 C 
HETATM   11  C   UNK N   1      33.114  16.076   6.472  0.00  0.00     0.270 C 
HETATM   12  C   UNK N   1      32.076  17.203   6.454  0.00  0.00     0.124 C 
ENDROOT
BRANCH  11  13
HETATM   13  C   UNK N   1      33.120  15.174   5.258  0.00  0.00    -0.024 A 
HETATM   14  C   UNK N   1      33.709  15.631   4.069  0.00  0.00     0.010 A 
HETATM   15  C   UNK N   1      33.733  14.821   2.934  0.00  0.00     0.011 A 
HETATM   16  C   UNK N   1      33.200  13.528   2.982  0.00  0.00    -0.017 A 
HETATM   17  C   UNK N   1      32.633  13.055   4.172  0.00  0.00     0.011 A 
HETATM   18  C   UNK N   1      32.585  13.878   5.304  0.00  0.00     0.010 A 
BRANCH  16  19
HETATM   19  C   UNK N   1      33.215  12.652   1.771  0.00  0.00     0.202 C 
BRANCH  19  20
HETATM   20  N   UNK N   1      31.859  12.408   1.311  0.00  0.00    -0.407 N 
HETATM   21  H   UNK N   1      31.677  11.689   0.611  0.00  0.00     0.152 HD
HETATM   22  H   UNK N   1      31.087  12.957   1.690  0.00  0.00     0.152 HD
ENDBRANCH  19  20
BRANCH  19  23
HETATM   23  N   UNK N   1      33.985  13.275   0.705  0.00  0.00    -0.407 N 
HETATM   24  H   UNK N   1      33.993  14.178   0.233  0.00  0.00     0.152 HD
HETATM   25  H   UNK N   1      34.700  12.648   0.338  0.00  0.00     0.152 HD
ENDBRANCH  19  23
ENDBRANCH  16  19
ENDBRANCH  11  13
BRANCH   3  26
HETATM   26  C   UNK N   1      28.286  17.172   6.702  0.00  0.00     0.165 C 
BRANCH  26  27
HETATM   27  C   UNK N   1      27.707  18.180   5.740  0.00  0.00    -0.040 A 
HETATM   28  C   UNK N   1      27.003  17.711   4.626  0.00  0.00     0.012 A 
HETATM   29  C   UNK N   1      26.450  18.608   3.709  0.00  0.00     0.043 A 
HETATM   30  C   UNK N   1      26.606  19.985   3.893  0.00  0.00     0.116 A 
HETATM   31  F   UNK N   1      26.108  20.850   2.978  0.00  0.00    -0.206 F 
HETATM   32  C   UNK N   1      27.278  20.465   5.021  0.00  0.00     0.043 A 
HETATM   33  C   UNK N   1      27.807  19.567   5.956  0.00  0.00     0.012 A 
ENDBRANCH  26  27
ENDBRANCH   3  26
BRANCH   4  34
HETATM   34  C   UNK N   1      29.757  18.570   8.975  0.00  0.00     0.376 C 
HETATM   35  F   UNK N   1      30.743  19.535   9.095  0.00  0.00    -0.212 F 
HETATM   36  F   UNK N   1      29.362  18.198  10.247  0.00  0.00    -0.212 F 
ENDBRANCH   4  34
TORSDOF 7
ENDMDL
MODEL 5
REMARK VINA RESULT:      -7.2     12.303     16.192
REMARK  7 active torsions:
REMARK  status: ('A' for Active; 'I' for Inactive)
REMARK    1  A    between atoms: N_3  and  C_4 
REMARK    2  A    between atoms: C_4  and  C_5 
REMARK    3  A    between atoms: C_12  and  C_30 
REMARK    4  A    between atoms: C_19  and  C_20 
REMARK    5  A    between atoms: C_23  and  C_26 
REMARK    6  A    between atoms: C_26  and  N_27 
REMARK    7  A    between atoms: C_26  and  N_28 
ROOT
HETATM    1  O   UNK N   1      22.071  16.027   6.854  0.00  0.00    -0.273 OA
HETATM    2  C   UNK N   1      21.851  15.846   5.671  0.00  0.00     0.227 C 
HETATM    3  N   UNK N   1      21.982  16.804   4.732  0.00  0.00    -0.337 N 
HETATM    4  C   UNK N   1      21.853  16.263   3.406  0.00  0.00     0.159 C 
HETATM    5  C   UNK N   1      21.285  14.819   3.622  0.00  0.00     0.063 C 
HETATM    6  C   UNK N   1      22.193  13.739   3.009  0.00  0.00     0.231 C 
HETATM    7  N   UNK N   1      23.068  13.263   4.086  0.00  0.00     0.103 N 
HETATM    8  C   UNK N   1      23.402  11.881   3.715  0.00  0.00     0.274 C 
HETATM    9  C   UNK N   1      22.415  11.414   2.649  0.00  0.00     0.032 C 
HETATM   10  C   UNK N   1      21.405  12.527   2.545  0.00  0.00     0.038 C 
HETATM   11  C   UNK N   1      22.183  13.277   5.269  0.00  0.00     0.270 C 
HETATM   12  C   UNK N   1      21.341  14.550   5.138  0.00  0.00     0.124 C 
ENDROOT
BRANCH  11  13
HETATM   13  C   UNK N   1      22.873  13.083   6.601  0.00  0.00    -0.024 A 
HETATM   14  C   UNK N   1      22.140  12.572   7.682  0.00  0.00     0.010 A 
HETATM   15  C   UNK N   1      22.749  12.379   8.923  0.00  0.00     0.011 A 
HETATM   16  C   UNK N   1      24.109  12.664   9.089  0.00  0.00    -0.017 A 
HETATM   17  C   UNK N   1      24.853  13.151   8.008  0.00  0.00     0.011 A 
HETATM   18  C   UNK N   1      24.236  13.369   6.770  0.00  0.00     0.010 A 
BRANCH  16  19
HETATM   19  C   UNK N   1      24.772  12.467  10.415  0.00  0.00     0.202 C 
BRANCH  19  20
HETATM   20  N   UNK N   1      25.706  13.547  10.674  0.00  0.00    -0.407 N 
HETATM   21  H   UNK N   1      26.395  13.809   9.969  0.00  0.00     0.152 HD
HETATM   22  H   UNK N   1      25.673  14.046  11.564  0.00  0.00     0.152 HD
ENDBRANCH  19  20
BRANCH  19  23
HETATM   23  N   UNK N   1      23.777  12.418  11.476  0.00  0.00    -0.407 N 
HETATM   24  H   UNK N   1      23.026  11.787  11.754  0.00  0.00     0.152 HD
HETATM   25  H   UNK N   1      23.851  13.220  12.101  0.00  0.00     0.152 HD
ENDBRANCH  19  23
ENDBRANCH  16  19
ENDBRANCH  11  13
BRANCH   3  26
HETATM   26  C   UNK N   1      22.294  18.222   4.953  0.00  0.00     0.165 C 
BRANCH  26  27
HETATM   27  C   UNK N   1      23.620  18.738   4.449  0.00  0.00    -0.040 A 
HETATM   28  C   UNK N   1      24.788  18.090   4.862  0.00  0.00     0.012 A 
HETATM   29  C   UNK N   1      26.038  18.534   4.420  0.00  0.00     0.043 A 
HETATM   30  C   UNK N   1      26.128  19.638   3.567  0.00  0.00     0.116 A 
HETATM   31  F   UNK N   1      27.343  20.093   3.177  0.00  0.00    -0.206 F 
HETATM   32  C   UNK N   1      24.964  20.270   3.120  0.00  0.00     0.043 A 
HETATM   33  C   UNK N   1      23.711  19.808   3.539  0.00  0.00     0.012 A 
ENDBRANCH  26  27
ENDBRANCH   3  26
BRANCH   4  34
HETATM   34  C   UNK N   1      20.936  17.074   2.479  0.00  0.00     0.376 C 
HETATM   35  F   UNK N   1      19.695  17.220   3.076  0.00  0.00    -0.212 F 
HETATM   36  F   UNK N   1      20.759  16.419   1.274  0.00  0.00    -0.212 F 
ENDBRANCH   4  34
TORSDOF 7
ENDMDL
MODEL 6
REMARK VINA RESULT:      -7.1      1.857      2.704
REMARK  7 active torsions:
REMARK  status: ('A' for Active; 'I' for Inactive)
REMARK    1  A    between atoms: N_3  and  C_4 
REMARK    2  A    between atoms: C_4  and  C_5 
REMARK    3  A    between atoms: C_12  and  C_30 
REMARK    4  A    between atoms: C_19  and  C_20 
REMARK    5  A    between atoms: C_23  and  C_26 
REMARK    6  A    between atoms: C_26  and  N_27 
REMARK    7  A    between atoms: C_26  and  N_28 
ROOT
HETATM    1  O   UNK N   1      34.171  14.842  11.428  0.00  0.00    -0.273 OA
HETATM    2  C   UNK N   1      35.095  14.211  10.948  0.00  0.00     0.227 C 
HETATM    3  N   UNK N   1      35.498  13.010  11.408  0.00  0.00    -0.337 N 
HETATM    4  C   UNK N   1      36.470  12.411  10.534  0.00  0.00     0.159 C 
HETATM    5  C   UNK N   1      36.898  13.566   9.568  0.00  0.00     0.063 C 
HETATM    6  C   UNK N   1      36.665  13.207   8.090  0.00  0.00     0.231 C 
HETATM    7  N   UNK N   1      35.353  13.753   7.725  0.00  0.00     0.103 N 
HETATM    8  C   UNK N   1      35.441  14.006   6.280  0.00  0.00     0.274 C 
HETATM    9  C   UNK N   1      36.912  13.990   5.874  0.00  0.00     0.032 C 
HETATM   10  C   UNK N   1      37.669  13.882   7.173  0.00  0.00     0.038 C 
HETATM   11  C   UNK N   1      35.303  15.030   8.466  0.00  0.00     0.270 C 
HETATM   12  C   UNK N   1      35.932  14.738   9.832  0.00  0.00     0.124 C 
ENDROOT
BRANCH  11  13
HETATM   13  C   UNK N   1      33.953  15.710   8.501  0.00  0.00    -0.024 A 
HETATM   14  C   UNK N   1      32.791  14.929   8.404  0.00  0.00     0.010 A 
HETATM   15  C   UNK N   1      31.531  15.527   8.436  0.00  0.00     0.011 A 
HETATM   16  C   UNK N   1      31.415  16.913   8.601  0.00  0.00    -0.017 A 
HETATM   17  C   UNK N   1      32.569  17.696   8.723  0.00  0.00     0.011 A 
HETATM   18  C   UNK N   1      33.834  17.099   8.665  0.00  0.00     0.010 A 
BRANCH  16  19
HETATM   19  C   UNK N   1      30.070  17.565   8.631  0.00  0.00     0.202 C 
BRANCH  19  20
HETATM   20  N   UNK N   1      30.111  18.758   9.459  0.00  0.00    -0.407 N 
HETATM   21  H   UNK N   1      29.592  18.791  10.336  0.00  0.00     0.152 HD
HETATM   22  H   UNK N   1      30.660  19.565   9.162  0.00  0.00     0.152 HD
ENDBRANCH  19  20
BRANCH  19  23
HETATM   23  N   UNK N   1      29.649  17.922   7.285  0.00  0.00    -0.407 N 
HETATM   24  H   UNK N   1      29.593  18.777   6.732  0.00  0.00     0.152 HD
HETATM   25  H   UNK N   1      29.329  17.109   6.760  0.00  0.00     0.152 HD
ENDBRANCH  19  23
ENDBRANCH  16  19
ENDBRANCH  11  13
BRANCH   3  26
HETATM   26  C   UNK N   1      34.998  12.305  12.595  0.00  0.00     0.165 C 
BRANCH  26  27
HETATM   27  C   UNK N   1      35.349  12.869  13.950  0.00  0.00    -0.040 A 
HETATM   28  C   UNK N   1      34.567  12.500  15.049  0.00  0.00     0.012 A 
HETATM   29  C   UNK N   1      34.854  12.999  16.322  0.00  0.00     0.043 A 
HETATM   30  C   UNK N   1      35.923  13.881  16.504  0.00  0.00     0.116 A 
HETATM   31  F   UNK N   1      36.171  14.398  17.732  0.00  0.00    -0.206 F 
HETATM   32  C   UNK N   1      36.732  14.229  15.419  0.00  0.00     0.043 A 
HETATM   33  C   UNK N   1      36.462  13.707  14.149  0.00  0.00     0.012 A 
ENDBRANCH  26  27
ENDBRANCH   3  26
BRANCH   4  34
HETATM   34  C   UNK N   1      37.693  11.826  11.256  0.00  0.00     0.376 C 
HETATM   35  F   UNK N   1      38.709  12.766  11.272  0.00  0.00    -0.212 F 
HETATM   36  F   UNK N   1      38.157  10.703  10.595  0.00  0.00    -0.212 F 
ENDBRANCH   4  34
TORSDOF 7
ENDMDL
MODEL 7
REMARK VINA RESULT:      -7.1      4.760      8.273
REMARK  7 active torsions:
REMARK  status: ('A' for Active; 'I' for Inactive)
REMARK    1  A    between atoms: N_3  and  C_4 
REMARK    2  A    between atoms: C_4  and  C_5 
REMARK    3  A    between atoms: C_12  and  C_30 
REMARK    4  A    between atoms: C_19  and  C_20 
REMARK    5  A    between atoms: C_23  and  C_26 
REMARK    6  A    between atoms: C_26  and  N_27 
REMARK    7  A    between atoms: C_26  and  N_28 
ROOT
HETATM    1  O   UNK N   1      33.313  15.550   9.368  0.00  0.00    -0.273 OA
HETATM    2  C   UNK N   1      33.617  15.522   8.190  0.00  0.00     0.227 C 
HETATM    3  N   UNK N   1      33.454  16.564   7.351  0.00  0.00    -0.337 N 
HETATM    4  C   UNK N   1      34.080  16.319   6.079  0.00  0.00     0.159 C 
HETATM    5  C   UNK N   1      34.416  14.789   6.092  0.00  0.00     0.063 C 
HETATM    6  C   UNK N   1      35.914  14.520   5.874  0.00  0.00     0.231 C 
HETATM    7  N   UNK N   1      36.517  14.388   7.205  0.00  0.00     0.103 N 
HETATM    8  C   UNK N   1      37.681  13.513   7.005  0.00  0.00     0.274 C 
HETATM    9  C   UNK N   1      37.535  12.813   5.657  0.00  0.00     0.032 C 
HETATM   10  C   UNK N   1      36.161  13.197   5.171  0.00  0.00     0.038 C 
HETATM   11  C   UNK N   1      35.474  13.683   7.978  0.00  0.00     0.270 C 
HETATM   12  C   UNK N   1      34.144  14.294   7.526  0.00  0.00     0.124 C 
ENDROOT
BRANCH  11  13
HETATM   13  C   UNK N   1      35.695  13.630   9.473  0.00  0.00    -0.024 A 
HETATM   14  C   UNK N   1      36.423  14.656  10.094  0.00  0.00     0.010 A 
HETATM   15  C   UNK N   1      36.641  14.638  11.471  0.00  0.00     0.011 A 
HETATM   16  C   UNK N   1      36.103  13.609  12.254  0.00  0.00    -0.017 A 
HETATM   17  C   UNK N   1      35.354  12.595  11.645  0.00  0.00     0.011 A 
HETATM   18  C   UNK N   1      35.158  12.599  10.259  0.00  0.00     0.010 A 
BRANCH  16  19
HETATM   19  C   UNK N   1      36.334  13.575  13.730  0.00  0.00     0.202 C 
BRANCH  19  20
HETATM   20  N   UNK N   1      37.299  12.541  14.063  0.00  0.00    -0.407 N 
HETATM   21  H   UNK N   1      38.239  12.796  14.362  0.00  0.00     0.152 HD
HETATM   22  H   UNK N   1      37.034  11.558  13.998  0.00  0.00     0.152 HD
ENDBRANCH  19  20
BRANCH  19  23
HETATM   23  N   UNK N   1      36.822  14.864  14.196  0.00  0.00    -0.407 N 
HETATM   24  H   UNK N   1      37.522  15.540  13.894  0.00  0.00     0.152 HD
HETATM   25  H   UNK N   1      36.339  15.168  15.041  0.00  0.00     0.152 HD
ENDBRANCH  19  23
ENDBRANCH  16  19
ENDBRANCH  11  13
BRANCH   3  26
HETATM   26  C   UNK N   1      32.806  17.847   7.650  0.00  0.00     0.165 C 
BRANCH  26  27
HETATM   27  C   UNK N   1      31.344  17.826   8.027  0.00  0.00    -0.040 A 
HETATM   28  C   UNK N   1      30.937  18.542   9.157  0.00  0.00     0.012 A 
HETATM   29  C   UNK N   1      29.594  18.550   9.544  0.00  0.00     0.043 A 
HETATM   30  C   UNK N   1      28.648  17.833   8.806  0.00  0.00     0.116 A 
HETATM   31  F   UNK N   1      27.355  17.807   9.210  0.00  0.00    -0.206 F 
HETATM   32  C   UNK N   1      29.039  17.143   7.655  0.00  0.00     0.043 A 
HETATM   33  C   UNK N   1      30.379  17.158   7.251  0.00  0.00     0.012 A 
ENDBRANCH  26  27
ENDBRANCH   3  26
BRANCH   4  34
HETATM   34  C   UNK N   1      33.206  16.672   4.867  0.00  0.00     0.376 C 
HETATM   35  F   UNK N   1      33.650  15.968   3.760  0.00  0.00    -0.212 F 
HETATM   36  F   UNK N   1      33.292  18.022   4.582  0.00  0.00    -0.212 F 
ENDBRANCH   4  34
TORSDOF 7
ENDMDL
MODEL 8
REMARK VINA RESULT:      -7.1     11.988     15.437
REMARK  7 active torsions:
REMARK  status: ('A' for Active; 'I' for Inactive)
REMARK    1  A    between atoms: N_3  and  C_4 
REMARK    2  A    between atoms: C_4  and  C_5 
REMARK    3  A    between atoms: C_12  and  C_30 
REMARK    4  A    between atoms: C_19  and  C_20 
REMARK    5  A    between atoms: C_23  and  C_26 
REMARK    6  A    between atoms: C_26  and  N_27 
REMARK    7  A    between atoms: C_26  and  N_28 
ROOT
HETATM    1  O   UNK N   1      23.362  15.711   3.781  0.00  0.00    -0.273 OA
HETATM    2  C   UNK N   1      23.328  15.145   4.858  0.00  0.00     0.227 C 
HETATM    3  N   UNK N   1      24.428  14.739   5.524  0.00  0.00    -0.337 N 
HETATM    4  C   UNK N   1      24.103  14.285   6.849  0.00  0.00     0.159 C 
HETATM    5  C   UNK N   1      22.543  14.148   6.849  0.00  0.00     0.063 C 
HETATM    6  C   UNK N   1      21.884  15.002   7.946  0.00  0.00     0.231 C 
HETATM    7  N   UNK N   1      21.501  16.272   7.319  0.00  0.00     0.103 N 
HETATM    8  C   UNK N   1      20.354  16.747   8.104  0.00  0.00     0.274 C 
HETATM    9  C   UNK N   1      19.812  15.581   8.926  0.00  0.00     0.032 C 
HETATM   10  C   UNK N   1      20.594  14.382   8.454  0.00  0.00     0.038 C 
HETATM   11  C   UNK N   1      21.064  15.862   5.969  0.00  0.00     0.270 C 
HETATM   12  C   UNK N   1      22.049  14.774   5.530  0.00  0.00     0.124 C 
ENDROOT
BRANCH  11  13
HETATM   13  C   UNK N   1      20.854  16.989   4.983  0.00  0.00    -0.024 A 
HETATM   14  C   UNK N   1      19.985  16.796   3.898  0.00  0.00     0.010 A 
HETATM   15  C   UNK N   1      19.767  17.817   2.974  0.00  0.00     0.011 A 
HETATM   16  C   UNK N   1      20.390  19.060   3.140  0.00  0.00    -0.017 A 
HETATM   17  C   UNK N   1      21.239  19.269   4.233  0.00  0.00     0.011 A 
HETATM   18  C   UNK N   1      21.478  18.235   5.147  0.00  0.00     0.010 A 
BRANCH  16  19
HETATM   19  C   UNK N   1      20.169  20.160   2.153  0.00  0.00     0.202 C 
BRANCH  19  20
HETATM   20  N   UNK N   1      20.995  21.307   2.487  0.00  0.00    -0.407 N 
HETATM   21  H   UNK N   1      21.704  21.636   1.833  0.00  0.00     0.152 HD
HETATM   22  H   UNK N   1      20.864  21.786   3.379  0.00  0.00     0.152 HD
ENDBRANCH  19  20
BRANCH  19  23
HETATM   23  N   UNK N   1      20.489  19.706   0.808  0.00  0.00    -0.407 N 
HETATM   24  H   UNK N   1      21.176  19.945   0.093  0.00  0.00     0.152 HD
HETATM   25  H   UNK N   1      19.867  18.959   0.502  0.00  0.00     0.152 HD
ENDBRANCH  19  23
ENDBRANCH  16  19
ENDBRANCH  11  13
BRANCH   3  26
HETATM   26  C   UNK N   1      25.817  14.797   5.053  0.00  0.00     0.165 C 
BRANCH  26  27
HETATM   27  C   UNK N   1      26.518  16.133   5.088  0.00  0.00    -0.040 A 
HETATM   28  C   UNK N   1      26.568  16.890   3.913  0.00  0.00     0.012 A 
HETATM   29  C   UNK N   1      27.207  18.133   3.899  0.00  0.00     0.043 A 
HETATM   30  C   UNK N   1      27.809  18.625   5.060  0.00  0.00     0.116 A 
HETATM   31  F   UNK N   1      28.467  19.810   5.031  0.00  0.00    -0.206 F 
HETATM   32  C   UNK N   1      27.735  17.892   6.248  0.00  0.00     0.043 A 
HETATM   33  C   UNK N   1      27.070  16.660   6.271  0.00  0.00     0.012 A 
ENDBRANCH  26  27
ENDBRANCH   3  26
BRANCH   4  34
HETATM   34  C   UNK N   1      24.764  12.955   7.241  0.00  0.00     0.376 C 
HETATM   35  F   UNK N   1      23.818  11.945   7.206  0.00  0.00    -0.212 F 
HETATM   36  F   UNK N   1      25.273  13.025   8.525  0.00  0.00    -0.212 F 
ENDBRANCH   4  34
TORSDOF 7
ENDMDL
MODEL 9
REMARK VINA RESULT:      -7.1     18.680     22.386
REMARK  7 active torsions:
REMARK  status: ('A' for Active; 'I' for Inactive)
REMARK    1  A    between atoms: N_3  and  C_4 
REMARK    2  A    between atoms: C_4  and  C_5 
REMARK    3  A    between atoms: C_12  and  C_30 
REMARK    4  A    between atoms: C_19  and  C_20 
REMARK    5  A    between atoms: C_23  and  C_26 
REMARK    6  A    between atoms: C_26  and  N_27 
REMARK    7  A    between atoms: C_26  and  N_28 
ROOT
HETATM    1  O   UNK N   1      30.279  25.548  -3.339  0.00  0.00    -0.273 OA
HETATM    2  C   UNK N   1      29.284  25.735  -4.013  0.00  0.00     0.227 C 
HETATM    3  N   UNK N   1      28.976  26.918  -4.580  0.00  0.00    -0.337 N 
HETATM    4  C   UNK N   1      27.859  26.798  -5.478  0.00  0.00     0.159 C 
HETATM    5  C   UNK N   1      27.255  25.386  -5.171  0.00  0.00     0.063 C 
HETATM    6  C   UNK N   1      27.209  24.488  -6.419  0.00  0.00     0.231 C 
HETATM    7  N   UNK N   1      28.428  23.672  -6.397  0.00  0.00     0.103 N 
HETATM    8  C   UNK N   1      28.072  22.445  -7.122  0.00  0.00     0.274 C 
HETATM    9  C   UNK N   1      26.551  22.363  -7.217  0.00  0.00     0.032 C 
HETATM   10  C   UNK N   1      26.050  23.508  -6.375  0.00  0.00     0.038 C 
HETATM   11  C   UNK N   1      28.613  23.383  -4.960  0.00  0.00     0.270 C 
HETATM   12  C   UNK N   1      28.251  24.680  -4.230  0.00  0.00     0.124 C 
ENDROOT
BRANCH  11  13
HETATM   13  C   UNK N   1      29.945  22.772  -4.585  0.00  0.00    -0.024 A 
HETATM   14  C   UNK N   1      30.066  22.097  -3.361  0.00  0.00     0.010 A 
HETATM   15  C   UNK N   1      31.280  21.519  -2.988  0.00  0.00     0.011 A 
HETATM   16  C   UNK N   1      32.381  21.580  -3.850  0.00  0.00    -0.017 A 
HETATM   17  C   UNK N   1      32.261  22.231  -5.084  0.00  0.00     0.011 A 
HETATM   18  C   UNK N   1      31.050  22.833  -5.447  0.00  0.00     0.010 A 
BRANCH  16  19
HETATM   19  C   UNK N   1      33.689  20.970  -3.459  0.00  0.00     0.202 C 
BRANCH  19  20
HETATM   20  N   UNK N   1      33.622  19.524  -3.575  0.00  0.00    -0.407 N 
HETATM   21  H   UNK N   1      34.452  18.958  -3.401  0.00  0.00     0.152 HD
HETATM   22  H   UNK N   1      32.743  19.074  -3.831  0.00  0.00     0.152 HD
ENDBRANCH  19  20
BRANCH  19  23
HETATM   23  N   UNK N   1      34.758  21.477  -4.306  0.00  0.00    -0.407 N 
HETATM   24  H   UNK N   1      35.395  21.089  -5.001  0.00  0.00     0.152 HD
HETATM   25  H   UNK N   1      34.907  22.477  -4.171  0.00  0.00     0.152 HD
ENDBRANCH  19  23
ENDBRANCH  16  19
ENDBRANCH  11  13
BRANCH   3  26
HETATM   26  C   UNK N   1      29.690  28.190  -4.413  0.00  0.00     0.165 C 
BRANCH  26  27
HETATM   27  C   UNK N   1      29.616  28.869  -3.067  0.00  0.00    -0.040 A 
HETATM   28  C   UNK N   1      28.357  29.200  -2.556  0.00  0.00     0.012 A 
HETATM   29  C   UNK N   1      28.241  29.829  -1.313  0.00  0.00     0.043 A 
HETATM   30  C   UNK N   1      29.387  30.142  -0.576  0.00  0.00     0.116 A 
HETATM   31  F   UNK N   1      29.273  30.793   0.607  0.00  0.00    -0.206 F 
HETATM   32  C   UNK N   1      30.648  29.784  -1.063  0.00  0.00     0.043 A 
HETATM   33  C   UNK N   1      30.763  29.127  -2.293  0.00  0.00     0.012 A 
ENDBRANCH  26  27
ENDBRANCH   3  26
BRANCH   4  34
HETATM   34  C   UNK N   1      26.794  27.891  -5.311  0.00  0.00     0.376 C 
HETATM   35  F   UNK N   1      25.568  27.407  -5.736  0.00  0.00    -0.212 F 
HETATM   36  F   UNK N   1      27.108  28.998  -6.079  0.00  0.00    -0.212 F 
ENDBRANCH   4  34
TORSDOF 7
ENDMDL
