MODEL 1
REMARK VINA RESULT:      -7.3      0.000      0.000
REMARK  5 active torsions:
REMARK  status: ('A' for Active; 'I' for Inactive)
REMARK    1  A    between atoms: C_3  and  S_11 
REMARK    2  A    between atoms: C_6  and  C_7 
REMARK       I    between atoms: C_7  and  N_9 
REMARK    3  A    between atoms: N_9  and  C_10 
REMARK    4  A    between atoms: C_10  and  C_15 
REMARK    5  A    between atoms: S_11  and  N_12 
ROOT
HETATM    1  C   UNK N   1      30.289  22.679  -2.665  0.00  0.00     0.251 C 
HETATM    2  O   UNK N   1      30.326  23.037  -1.496  0.00  0.00    -0.268 OA
HETATM    3  N   UNK N   1      29.281  23.094  -3.478  0.00  0.00    -0.353 N 
HETATM    4  H   UNK N   1      29.318  22.872  -4.436  0.00  0.00     0.163 HD
ENDROOT
BRANCH   1   5
HETATM    5  C   UNK N   1      31.235  21.656  -3.148  0.00  0.00     0.032 A 
HETATM    6  C   UNK N   1      30.841  20.787  -4.172  0.00  0.00     0.018 A 
HETATM    7  C   UNK N   1      31.764  19.912  -4.743  0.00  0.00     0.026 A 
HETATM    8  C   UNK N   1      33.107  19.872  -4.281  0.00  0.00     0.079 A 
HETATM    9  C   UNK N   1      33.479  20.737  -3.243  0.00  0.00     0.026 A 
HETATM   10  C   UNK N   1      32.557  21.629  -2.689  0.00  0.00     0.018 A 
BRANCH   8  11
HETATM   11  S   UNK N   1      34.430  18.814  -5.001  0.00  0.00     0.256 S 
HETATM   12  O   UNK N   1      33.965  17.848  -3.899  0.00  0.00    -0.201 OA
HETATM   13  O   UNK N   1      35.104  19.892  -4.135  0.00  0.00    -0.201 OA
BRANCH  11  14
HETATM   14  N   UNK N   1      36.005  18.170  -4.541  0.00  0.00    -0.324 N 
HETATM   15  H   UNK N   1      36.912  18.279  -4.995  0.00  0.00     0.169 HD
HETATM   16  H   UNK N   1      36.011  17.601  -3.693  0.00  0.00     0.169 HD
ENDBRANCH  11  14
ENDBRANCH   8  11
ENDBRANCH   1   5
BRANCH   3  17
HETATM   17  C   UNK N   1      28.156  23.852  -2.975  0.00  0.00     0.164 C 
BRANCH  17  18
HETATM   18  C   UNK N   1      27.280  24.378  -4.096  0.00  0.00     0.001 A 
HETATM   19  C   UNK N   1      27.324  23.715  -5.326  0.00  0.00     0.012 A 
HETATM   20  C   UNK N   1      26.572  24.176  -6.411  0.00  0.00     0.004 A 
HETATM   21  C   UNK N   1      25.777  25.316  -6.278  0.00  0.00     0.045 A 
HETATM   22  C   UNK N   1      25.717  25.988  -5.058  0.00  0.00     0.155 A 
HETATM   23  C   UNK N   1      26.452  25.525  -3.963  0.00  0.00     0.162 A 
HETATM   24  F   UNK N   1      24.948  27.099  -4.938  0.00  0.00    -0.203 F 
HETATM   25  F   UNK N   1      26.360  26.200  -2.788  0.00  0.00    -0.202 F 
ENDBRANCH  17  18
ENDBRANCH   3  17
TORSDOF 5
ENDMDL
MODEL 2
REMARK VINA RESULT:      -7.3     18.110     20.496
REMARK  5 active torsions:
REMARK  status: ('A' for Active; 'I' for Inactive)
REMARK    1  A    between atoms: C_3  and  S_11 
REMARK    2  A    between atoms: C_6  and  C_7 
REMARK       I    between atoms: C_7  and  N_9 
REMARK    3  A    between atoms: N_9  and  C_10 
REMARK    4  A    between atoms: C_10  and  C_15 
REMARK    5  A    between atoms: S_11  and  N_12 
ROOT
HETATM    1  C   UNK N   1      35.490  13.570  12.563  0.00  0.00     0.251 C 
HETATM    2  O   UNK N   1      34.534  12.939  12.990  0.00  0.00    -0.268 OA
HETATM    3  N   UNK N   1      36.684  13.529  13.214  0.00  0.00    -0.353 N 
HETATM    4  H   UNK N   1      37.465  13.967  12.806  0.00  0.00     0.163 HD
ENDROOT
BRANCH   1   5
HETATM    5  C   UNK N   1      35.306  14.514  11.446  0.00  0.00     0.032 A 
HETATM    6  C   UNK N   1      34.664  14.081  10.280  0.00  0.00     0.018 A 
HETATM    7  C   UNK N   1      34.350  14.991   9.272  0.00  0.00     0.026 A 
HETATM    8  C   UNK N   1      34.695  16.363   9.402  0.00  0.00     0.079 A 
HETATM    9  C   UNK N   1      35.354  16.776  10.568  0.00  0.00     0.026 A 
HETATM   10  C   UNK N   1      35.646  15.865  11.587  0.00  0.00     0.018 A 
BRANCH   8  11
HETATM   11  S   UNK N   1      34.271  17.668   8.175  0.00  0.00     0.256 S 
HETATM   12  O   UNK N   1      32.850  17.131   8.409  0.00  0.00    -0.201 OA
HETATM   13  O   UNK N   1      34.876  16.479   7.411  0.00  0.00    -0.201 OA
BRANCH  11  14
HETATM   14  N   UNK N   1      33.675  17.785   6.520  0.00  0.00    -0.324 N 
HETATM   15  H   UNK N   1      32.997  18.430   6.116  0.00  0.00     0.169 HD
HETATM   16  H   UNK N   1      34.066  17.103   5.869  0.00  0.00     0.169 HD
ENDBRANCH  11  14
ENDBRANCH   8  11
ENDBRANCH   1   5
BRANCH   3  17
HETATM   17  C   UNK N   1      36.839  12.861  14.488  0.00  0.00     0.164 C 
BRANCH  17  18
HETATM   18  C   UNK N   1      36.612  13.804  15.654  0.00  0.00     0.001 A 
HETATM   19  C   UNK N   1      37.316  15.012  15.664  0.00  0.00     0.012 A 
HETATM   20  C   UNK N   1      37.184  15.905  16.732  0.00  0.00     0.004 A 
HETATM   21  C   UNK N   1      36.353  15.590  17.809  0.00  0.00     0.045 A 
HETATM   22  C   UNK N   1      35.640  14.391  17.815  0.00  0.00     0.155 A 
HETATM   23  C   UNK N   1      35.753  13.500  16.743  0.00  0.00     0.162 A 
HETATM   24  F   UNK N   1      34.840  14.088  18.868  0.00  0.00    -0.203 F 
HETATM   25  F   UNK N   1      35.035  12.348  16.781  0.00  0.00    -0.202 F 
ENDBRANCH  17  18
ENDBRANCH   3  17
TORSDOF 5
ENDMDL
MODEL 3
REMARK VINA RESULT:      -7.1     15.624     17.509
REMARK  5 active torsions:
REMARK  status: ('A' for Active; 'I' for Inactive)
REMARK    1  A    between atoms: C_3  and  S_11 
REMARK    2  A    between atoms: C_6  and  C_7 
REMARK       I    between atoms: C_7  and  N_9 
REMARK    3  A    between atoms: N_9  and  C_10 
REMARK    4  A    between atoms: C_10  and  C_15 
REMARK    5  A    between atoms: S_11  and  N_12 
ROOT
HETATM    1  C   UNK N   1      20.526  15.088   6.734  0.00  0.00     0.251 C 
HETATM    2  O   UNK N   1      19.821  14.159   6.364  0.00  0.00    -0.268 OA
HETATM    3  N   UNK N   1      21.063  15.085   7.983  0.00  0.00    -0.353 N 
HETATM    4  H   UNK N   1      21.700  15.793   8.230  0.00  0.00     0.163 HD
ENDROOT
BRANCH   1   5
HETATM    5  C   UNK N   1      20.649  16.293   5.894  0.00  0.00     0.032 A 
HETATM    6  C   UNK N   1      21.629  17.244   6.200  0.00  0.00     0.018 A 
HETATM    7  C   UNK N   1      21.860  18.316   5.339  0.00  0.00     0.026 A 
HETATM    8  C   UNK N   1      21.092  18.471   4.153  0.00  0.00     0.079 A 
HETATM    9  C   UNK N   1      20.103  17.519   3.872  0.00  0.00     0.026 A 
HETATM   10  C   UNK N   1      19.890  16.433   4.726  0.00  0.00     0.018 A 
BRANCH   8  11
HETATM   11  S   UNK N   1      21.351  19.800   2.906  0.00  0.00     0.256 S 
HETATM   12  O   UNK N   1      20.311  20.527   3.775  0.00  0.00    -0.201 OA
HETATM   13  O   UNK N   1      20.453  18.724   2.272  0.00  0.00    -0.201 OA
BRANCH  11  14
HETATM   14  N   UNK N   1      20.450  20.598   1.618  0.00  0.00    -0.324 N 
HETATM   15  H   UNK N   1      20.712  21.394   1.036  0.00  0.00     0.169 HD
HETATM   16  H   UNK N   1      19.527  20.207   1.426  0.00  0.00     0.169 HD
ENDBRANCH  11  14
ENDBRANCH   8  11
ENDBRANCH   1   5
BRANCH   3  17
HETATM   17  C   UNK N   1      20.725  14.073   8.960  0.00  0.00     0.164 C 
BRANCH  17  18
HETATM   18  C   UNK N   1      21.959  13.446   9.579  0.00  0.00     0.001 A 
HETATM   19  C   UNK N   1      23.175  13.592   8.904  0.00  0.00     0.012 A 
HETATM   20  C   UNK N   1      24.341  13.002   9.400  0.00  0.00     0.004 A 
HETATM   21  C   UNK N   1      24.298  12.247  10.574  0.00  0.00     0.045 A 
HETATM   22  C   UNK N   1      23.095  12.094  11.265  0.00  0.00     0.155 A 
HETATM   23  C   UNK N   1      21.928  12.695  10.784  0.00  0.00     0.162 A 
HETATM   24  F   UNK N   1      23.060  11.354  12.400  0.00  0.00    -0.203 F 
HETATM   25  F   UNK N   1      20.779  12.532  11.489  0.00  0.00    -0.202 F 
ENDBRANCH  17  18
ENDBRANCH   3  17
TORSDOF 5
ENDMDL
MODEL 4
REMARK VINA RESULT:      -7.0     11.149     13.642
REMARK  5 active torsions:
REMARK  status: ('A' for Active; 'I' for Inactive)
REMARK    1  A    between atoms: C_3  and  S_11 
REMARK    2  A    between atoms: C_6  and  C_7 
REMARK       I    between atoms: C_7  and  N_9 
REMARK    3  A    between atoms: N_9  and  C_10 
REMARK    4  A    between atoms: C_10  and  C_15 
REMARK    5  A    between atoms: S_11  and  N_12 
ROOT
HETATM    1  C   UNK N   1      26.486  18.125   4.790  0.00  0.00     0.251 C 
HETATM    2  O   UNK N   1      27.429  18.074   4.013  0.00  0.00    -0.268 OA
HETATM    3  N   UNK N   1      26.536  17.459   5.975  0.00  0.00    -0.353 N 
HETATM    4  H   UNK N   1      25.809  17.585   6.625  0.00  0.00     0.163 HD
ENDROOT
BRANCH   1   5
HETATM    5  C   UNK N   1      25.224  18.761   4.370  0.00  0.00     0.032 A 
HETATM    6  C   UNK N   1      25.267  19.933   3.606  0.00  0.00     0.018 A 
HETATM    7  C   UNK N   1      24.094  20.469   3.076  0.00  0.00     0.026 A 
HETATM    8  C   UNK N   1      22.839  19.850   3.321  0.00  0.00     0.079 A 
HETATM    9  C   UNK N   1      22.812  18.687   4.103  0.00  0.00     0.026 A 
HETATM   10  C   UNK N   1      23.993  18.139   4.613  0.00  0.00     0.018 A 
BRANCH   8  11
HETATM   11  S   UNK N   1      21.236  20.421   2.619  0.00  0.00     0.256 S 
HETATM   12  O   UNK N   1      21.024  18.910   2.424  0.00  0.00    -0.201 OA
HETATM   13  O   UNK N   1      22.329  20.668   1.566  0.00  0.00    -0.201 OA
BRANCH  11  14
HETATM   14  N   UNK N   1      20.420  20.473   1.057  0.00  0.00    -0.324 N 
HETATM   15  H   UNK N   1      20.729  20.128   0.148  0.00  0.00     0.169 HD
HETATM   16  H   UNK N   1      19.501  20.916   1.062  0.00  0.00     0.169 HD
ENDBRANCH  11  14
ENDBRANCH   8  11
ENDBRANCH   1   5
BRANCH   3  17
HETATM   17  C   UNK N   1      27.627  16.568   6.305  0.00  0.00     0.164 C 
BRANCH  17  18
HETATM   18  C   UNK N   1      28.566  17.176   7.330  0.00  0.00     0.001 A 
HETATM   19  C   UNK N   1      28.004  17.716   8.491  0.00  0.00     0.012 A 
HETATM   20  C   UNK N   1      28.810  18.329   9.455  0.00  0.00     0.004 A 
HETATM   21  C   UNK N   1      30.190  18.418   9.258  0.00  0.00     0.045 A 
HETATM   22  C   UNK N   1      30.769  17.882   8.109  0.00  0.00     0.155 A 
HETATM   23  C   UNK N   1      29.972  17.252   7.148  0.00  0.00     0.162 A 
HETATM   24  F   UNK N   1      32.109  17.978   7.921  0.00  0.00    -0.203 F 
HETATM   25  F   UNK N   1      30.574  16.733   6.047  0.00  0.00    -0.202 F 
ENDBRANCH  17  18
ENDBRANCH   3  17
TORSDOF 5
ENDMDL
MODEL 5
REMARK VINA RESULT:      -6.9     13.869     16.510
REMARK  5 active torsions:
REMARK  status: ('A' for Active; 'I' for Inactive)
REMARK    1  A    between atoms: C_3  and  S_11 
REMARK    2  A    between atoms: C_6  and  C_7 
REMARK       I    between atoms: C_7  and  N_9 
REMARK    3  A    between atoms: N_9  and  C_10 
REMARK    4  A    between atoms: C_10  and  C_15 
REMARK    5  A    between atoms: S_11  and  N_12 
ROOT
HETATM    1  C   UNK N   1      34.279  17.770   8.803  0.00  0.00     0.251 C 
HETATM    2  O   UNK N   1      35.158  18.613   8.696  0.00  0.00    -0.268 OA
HETATM    3  N   UNK N   1      34.303  16.883   9.834  0.00  0.00    -0.353 N 
HETATM    4  H   UNK N   1      33.541  16.272   9.957  0.00  0.00     0.163 HD
ENDROOT
BRANCH   1   5
HETATM    5  C   UNK N   1      33.292  17.598   7.722  0.00  0.00     0.032 A 
HETATM    6  C   UNK N   1      33.733  17.529   6.396  0.00  0.00     0.018 A 
HETATM    7  C   UNK N   1      32.836  17.223   5.373  0.00  0.00     0.026 A 
HETATM    8  C   UNK N   1      31.462  16.999   5.658  0.00  0.00     0.079 A 
HETATM    9  C   UNK N   1      31.035  17.091   6.989  0.00  0.00     0.026 A 
HETATM   10  C   UNK N   1      31.941  17.375   8.014  0.00  0.00     0.018 A 
BRANCH   8  11
HETATM   11  S   UNK N   1      30.200  16.519   4.407  0.00  0.00     0.256 S 
HETATM   12  O   UNK N   1      31.327  16.900   3.432  0.00  0.00    -0.201 OA
HETATM   13  O   UNK N   1      29.833  17.916   4.938  0.00  0.00    -0.201 OA
BRANCH  11  14
HETATM   14  N   UNK N   1      29.216  17.285   3.159  0.00  0.00    -0.324 N 
HETATM   15  H   UNK N   1      29.470  17.998   2.476  0.00  0.00     0.169 HD
HETATM   16  H   UNK N   1      28.247  16.968   3.116  0.00  0.00     0.169 HD
ENDBRANCH  11  14
ENDBRANCH   8  11
ENDBRANCH   1   5
BRANCH   3  17
HETATM   17  C   UNK N   1      35.417  16.808  10.754  0.00  0.00     0.164 C 
BRANCH  17  18
HETATM   18  C   UNK N   1      36.000  15.411  10.829  0.00  0.00     0.001 A 
HETATM   19  C   UNK N   1      36.211  14.726   9.627  0.00  0.00     0.012 A 
HETATM   20  C   UNK N   1      36.705  13.419   9.630  0.00  0.00     0.004 A 
HETATM   21  C   UNK N   1      36.984  12.778  10.839  0.00  0.00     0.045 A 
HETATM   22  C   UNK N   1      36.785  13.446  12.047  0.00  0.00     0.155 A 
HETATM   23  C   UNK N   1      36.306  14.760  12.053  0.00  0.00     0.162 A 
HETATM   24  F   UNK N   1      37.050  12.815  13.218  0.00  0.00    -0.203 F 
HETATM   25  F   UNK N   1      36.134  15.380  13.249  0.00  0.00    -0.202 F 
ENDBRANCH  17  18
ENDBRANCH   3  17
TORSDOF 5
ENDMDL
MODEL 6
REMARK VINA RESULT:      -6.9     14.842     16.174
REMARK  5 active torsions:
REMARK  status: ('A' for Active; 'I' for Inactive)
REMARK    1  A    between atoms: C_3  and  S_11 
REMARK    2  A    between atoms: C_6  and  C_7 
REMARK       I    between atoms: C_7  and  N_9 
REMARK    3  A    between atoms: N_9  and  C_10 
REMARK    4  A    between atoms: C_10  and  C_15 
REMARK    5  A    between atoms: S_11  and  N_12 
ROOT
HETATM    1  C   UNK N   1      34.455  16.766   9.656  0.00  0.00     0.251 C 
HETATM    2  O   UNK N   1      35.198  17.726   9.504  0.00  0.00    -0.268 OA
HETATM    3  N   UNK N   1      33.223  16.755   9.080  0.00  0.00    -0.353 N 
HETATM    4  H   UNK N   1      32.677  15.938   9.137  0.00  0.00     0.163 HD
ENDROOT
BRANCH   1   5
HETATM    5  C   UNK N   1      34.820  15.700  10.606  0.00  0.00     0.032 A 
HETATM    6  C   UNK N   1      34.426  14.383  10.344  0.00  0.00     0.018 A 
HETATM    7  C   UNK N   1      34.882  13.340  11.149  0.00  0.00     0.026 A 
HETATM    8  C   UNK N   1      35.733  13.600  12.257  0.00  0.00     0.079 A 
HETATM    9  C   UNK N   1      36.102  14.927  12.516  0.00  0.00     0.026 A 
HETATM   10  C   UNK N   1      35.662  15.966  11.693  0.00  0.00     0.018 A 
BRANCH   8  11
HETATM   11  S   UNK N   1      36.455  12.304  13.347  0.00  0.00     0.256 S 
HETATM   12  O   UNK N   1      36.731  13.517  14.252  0.00  0.00    -0.201 OA
HETATM   13  O   UNK N   1      37.461  12.587  12.219  0.00  0.00    -0.201 OA
BRANCH  11  14
HETATM   14  N   UNK N   1      38.037  11.819  13.956  0.00  0.00    -0.324 N 
HETATM   15  H   UNK N   1      38.697  11.136  13.583  0.00  0.00     0.169 HD
HETATM   16  H   UNK N   1      38.338  12.291  14.809  0.00  0.00     0.169 HD
ENDBRANCH  11  14
ENDBRANCH   8  11
ENDBRANCH   1   5
BRANCH   3  17
HETATM   17  C   UNK N   1      32.691  17.909   8.388  0.00  0.00     0.164 C 
BRANCH  17  18
HETATM   18  C   UNK N   1      31.247  17.705   7.971  0.00  0.00     0.001 A 
HETATM   19  C   UNK N   1      31.002  16.988   6.795  0.00  0.00     0.012 A 
HETATM   20  C   UNK N   1      29.696  16.802   6.333  0.00  0.00     0.004 A 
HETATM   21  C   UNK N   1      28.620  17.346   7.038  0.00  0.00     0.045 A 
HETATM   22  C   UNK N   1      28.844  18.060   8.215  0.00  0.00     0.155 A 
HETATM   23  C   UNK N   1      30.147  18.236   8.693  0.00  0.00     0.162 A 
HETATM   24  F   UNK N   1      27.795  18.591   8.891  0.00  0.00    -0.203 F 
HETATM   25  F   UNK N   1      30.324  18.929   9.848  0.00  0.00    -0.202 F 
ENDBRANCH  17  18
ENDBRANCH   3  17
TORSDOF 5
ENDMDL
MODEL 7
REMARK VINA RESULT:      -6.8     10.772     13.268
REMARK  5 active torsions:
REMARK  status: ('A' for Active; 'I' for Inactive)
REMARK    1  A    between atoms: C_3  and  S_11 
REMARK    2  A    between atoms: C_6  and  C_7 
REMARK       I    between atoms: C_7  and  N_9 
REMARK    3  A    between atoms: N_9  and  C_10 
REMARK    4  A    between atoms: C_10  and  C_15 
REMARK    5  A    between atoms: S_11  and  N_12 
ROOT
HETATM    1  C   UNK N   1      25.635  20.316   4.138  0.00  0.00     0.251 C 
HETATM    2  O   UNK N   1      26.432  20.599   3.254  0.00  0.00    -0.268 OA
HETATM    3  N   UNK N   1      26.012  20.367   5.444  0.00  0.00    -0.353 N 
HETATM    4  H   UNK N   1      25.334  20.226   6.142  0.00  0.00     0.163 HD
ENDROOT
BRANCH   1   5
HETATM    5  C   UNK N   1      24.320  19.750   3.785  0.00  0.00     0.032 A 
HETATM    6  C   UNK N   1      23.923  18.534   4.353  0.00  0.00     0.018 A 
HETATM    7  C   UNK N   1      22.630  18.053   4.148  0.00  0.00     0.026 A 
HETATM    8  C   UNK N   1      21.707  18.775   3.345  0.00  0.00     0.079 A 
HETATM    9  C   UNK N   1      22.128  19.982   2.770  0.00  0.00     0.026 A 
HETATM   10  C   UNK N   1      23.417  20.472   2.996  0.00  0.00     0.018 A 
BRANCH   8  11
HETATM   11  S   UNK N   1      19.957  18.280   3.061  0.00  0.00     0.256 S 
HETATM   12  O   UNK N   1      20.428  18.235   1.598  0.00  0.00    -0.201 OA
HETATM   13  O   UNK N   1      19.987  19.800   3.297  0.00  0.00    -0.201 OA
BRANCH  11  14
HETATM   14  N   UNK N   1      18.505  18.931   2.301  0.00  0.00    -0.324 N 
HETATM   15  H   UNK N   1      17.823  19.597   2.664  0.00  0.00     0.169 HD
HETATM   16  H   UNK N   1      18.319  18.590   1.358  0.00  0.00     0.169 HD
ENDBRANCH  11  14
ENDBRANCH   8  11
ENDBRANCH   1   5
BRANCH   3  17
HETATM   17  C   UNK N   1      27.382  20.621   5.835  0.00  0.00     0.164 C 
BRANCH  17  18
HETATM   18  C   UNK N   1      28.051  19.381   6.397  0.00  0.00     0.001 A 
HETATM   19  C   UNK N   1      28.125  19.253   7.787  0.00  0.00     0.012 A 
HETATM   20  C   UNK N   1      28.767  18.155   8.368  0.00  0.00     0.004 A 
HETATM   21  C   UNK N   1      29.354  17.180   7.560  0.00  0.00     0.045 A 
HETATM   22  C   UNK N   1      29.287  17.288   6.171  0.00  0.00     0.155 A 
HETATM   23  C   UNK N   1      28.632  18.374   5.582  0.00  0.00     0.162 A 
HETATM   24  F   UNK N   1      29.865  16.341   5.392  0.00  0.00    -0.203 F 
HETATM   25  F   UNK N   1      28.579  18.440   4.227  0.00  0.00    -0.202 F 
ENDBRANCH  17  18
ENDBRANCH   3  17
TORSDOF 5
ENDMDL
MODEL 8
REMARK VINA RESULT:      -6.7     12.088     13.079
REMARK  5 active torsions:
REMARK  status: ('A' for Active; 'I' for Inactive)
REMARK    1  A    between atoms: C_3  and  S_11 
REMARK    2  A    between atoms: C_6  and  C_7 
REMARK       I    between atoms: C_7  and  N_9 
REMARK    3  A    between atoms: N_9  and  C_10 
REMARK    4  A    between atoms: C_10  and  C_15 
REMARK    5  A    between atoms: S_11  and  N_12 
ROOT
HETATM    1  C   UNK N   1      30.320  17.604   8.278  0.00  0.00     0.251 C 
HETATM    2  O   UNK N   1      29.893  18.526   8.957  0.00  0.00    -0.268 OA
HETATM    3  N   UNK N   1      29.506  16.969   7.393  0.00  0.00    -0.353 N 
HETATM    4  H   UNK N   1      29.890  16.292   6.791  0.00  0.00     0.163 HD
ENDROOT
BRANCH   1   5
HETATM    5  C   UNK N   1      31.665  17.061   8.542  0.00  0.00     0.032 A 
HETATM    6  C   UNK N   1      32.783  17.887   8.376  0.00  0.00     0.018 A 
HETATM    7  C   UNK N   1      34.048  17.443   8.758  0.00  0.00     0.026 A 
HETATM    8  C   UNK N   1      34.225  16.140   9.298  0.00  0.00     0.079 A 
HETATM    9  C   UNK N   1      33.098  15.320   9.439  0.00  0.00     0.026 A 
HETATM   10  C   UNK N   1      31.828  15.778   9.077  0.00  0.00     0.018 A 
BRANCH   8  11
HETATM   11  S   UNK N   1      35.828  15.468   9.903  0.00  0.00     0.256 S 
HETATM   12  O   UNK N   1      34.936  14.284  10.312  0.00  0.00    -0.201 OA
HETATM   13  O   UNK N   1      35.344  16.520  10.915  0.00  0.00    -0.201 OA
BRANCH  11  14
HETATM   14  N   UNK N   1      36.604  15.078  11.437  0.00  0.00    -0.324 N 
HETATM   15  H   UNK N   1      36.430  15.453  12.370  0.00  0.00     0.169 HD
HETATM   16  H   UNK N   1      37.338  14.371  11.385  0.00  0.00     0.169 HD
ENDBRANCH  11  14
ENDBRANCH   8  11
ENDBRANCH   1   5
BRANCH   3  17
HETATM   17  C   UNK N   1      28.090  17.259   7.312  0.00  0.00     0.164 C 
BRANCH  17  18
HETATM   18  C   UNK N   1      27.783  18.294   6.247  0.00  0.00     0.001 A 
HETATM   19  C   UNK N   1      27.812  17.885   4.910  0.00  0.00     0.012 A 
HETATM   20  C   UNK N   1      27.579  18.800   3.880  0.00  0.00     0.004 A 
HETATM   21  C   UNK N   1      27.327  20.141   4.178  0.00  0.00     0.045 A 
HETATM   22  C   UNK N   1      27.290  20.567   5.506  0.00  0.00     0.155 A 
HETATM   23  C   UNK N   1      27.505  19.654   6.543  0.00  0.00     0.162 A 
HETATM   24  F   UNK N   1      27.051  21.872   5.788  0.00  0.00    -0.203 F 
HETATM   25  F   UNK N   1      27.450  20.105   7.823  0.00  0.00    -0.202 F 
ENDBRANCH  17  18
ENDBRANCH   3  17
TORSDOF 5
ENDMDL
MODEL 9
REMARK VINA RESULT:      -6.7     10.557     11.552
REMARK  5 active torsions:
REMARK  status: ('A' for Active; 'I' for Inactive)
REMARK    1  A    between atoms: C_3  and  S_11 
REMARK    2  A    between atoms: C_6  and  C_7 
REMARK       I    between atoms: C_7  and  N_9 
REMARK    3  A    between atoms: N_9  and  C_10 
REMARK    4  A    between atoms: C_10  and  C_15 
REMARK    5  A    between atoms: S_11  and  N_12 
ROOT
HETATM    1  C   UNK N   1      30.655  17.011   4.693  0.00  0.00     0.251 C 
HETATM    2  O   UNK N   1      31.069  17.123   3.548  0.00  0.00    -0.268 OA
HETATM    3  N   UNK N   1      29.320  17.077   4.950  0.00  0.00    -0.353 N 
HETATM    4  H   UNK N   1      28.999  16.893   5.861  0.00  0.00     0.163 HD
ENDROOT
BRANCH   1   5
HETATM    5  C   UNK N   1      31.607  16.981   5.818  0.00  0.00     0.032 A 
HETATM    6  C   UNK N   1      31.197  16.460   7.050  0.00  0.00     0.018 A 
HETATM    7  C   UNK N   1      32.120  16.288   8.082  0.00  0.00     0.026 A 
HETATM    8  C   UNK N   1      33.480  16.658   7.906  0.00  0.00     0.079 A 
HETATM    9  C   UNK N   1      33.869  17.196   6.671  0.00  0.00     0.026 A 
HETATM   10  C   UNK N   1      32.946  17.345   5.632  0.00  0.00     0.018 A 
BRANCH   8  11
HETATM   11  S   UNK N   1      34.801  16.414   9.164  0.00  0.00     0.256 S 
HETATM   12  O   UNK N   1      33.695  15.606   9.862  0.00  0.00    -0.201 OA
HETATM   13  O   UNK N   1      34.236  17.834   9.340  0.00  0.00    -0.201 OA
BRANCH  11  14
HETATM   14  N   UNK N   1      35.147  16.885  10.828  0.00  0.00    -0.324 N 
HETATM   15  H   UNK N   1      35.851  16.527  11.473  0.00  0.00     0.169 HD
HETATM   16  H   UNK N   1      34.553  17.626  11.202  0.00  0.00     0.169 HD
ENDBRANCH  11  14
ENDBRANCH   8  11
ENDBRANCH   1   5
BRANCH   3  17
HETATM   17  C   UNK N   1      28.360  17.412   3.921  0.00  0.00     0.164 C 
BRANCH  17  18
HETATM   18  C   UNK N   1      27.558  18.650   4.273  0.00  0.00     0.001 A 
HETATM   19  C   UNK N   1      28.139  19.578   5.144  0.00  0.00     0.012 A 
HETATM   20  C   UNK N   1      27.435  20.718   5.542  0.00  0.00     0.004 A 
HETATM   21  C   UNK N   1      26.135  20.935   5.080  0.00  0.00     0.045 A 
HETATM   22  C   UNK N   1      25.541  20.023   4.208  0.00  0.00     0.155 A 
HETATM   23  C   UNK N   1      26.244  18.888   3.792  0.00  0.00     0.162 A 
HETATM   24  F   UNK N   1      24.275  20.237   3.769  0.00  0.00    -0.203 F 
HETATM   25  F   UNK N   1      25.636  18.029   2.934  0.00  0.00    -0.202 F 
ENDBRANCH  17  18
ENDBRANCH   3  17
TORSDOF 5
ENDMDL
