MODEL 1
REMARK VINA RESULT:      -6.4      0.000      0.000
REMARK  6 active torsions:
REMARK  status: ('A' for Active; 'I' for Inactive)
REMARK    1  A    between atoms: C_6  and  C_7 
REMARK    2  A    between atoms: C_8  and  C_9 
REMARK    3  A    between atoms: C_13  and  C_14 
REMARK    4  A    between atoms: C_14  and  S_16 
REMARK    5  A    between atoms: S_16  and  C_17 
REMARK    6  A    between atoms: C_19  and  C_20 
ROOT
HETATM    1  C   UNK N   1      33.831  16.815   6.266  0.00  0.00     0.250 C 
HETATM    2  O   UNK N   1      34.213  17.957   6.061  0.00  0.00    -0.277 OA
ENDROOT
BRANCH   1   3
HETATM    3  C   UNK N   1      32.797  16.503   7.252  0.00  0.00     0.134 C 
HETATM    4  O   UNK N   1      31.665  16.243   6.710  0.00  0.00    -0.297 OA
HETATM    5  C   UNK N   1      30.733  16.770   7.396  0.00  0.00     0.129 C 
HETATM    6  C   UNK N   1      31.219  17.269   8.587  0.00  0.00     0.049 C 
HETATM    7  C   UNK N   1      32.603  17.108   8.492  0.00  0.00     0.045 C 
BRANCH   5   8
HETATM    8  C   UNK N   1      29.739  17.414   6.618  0.00  0.00    -0.036 C 
HETATM    9  C   UNK N   1      28.795  17.979   6.145  0.00  0.00    -0.059 C 
BRANCH   9  10
HETATM   10  C   UNK N   1      27.663  18.651   5.626  0.00  0.00     0.018 C 
HETATM   11  C   UNK N   1      26.554  17.849   5.402  0.00  0.00     0.020 C 
HETATM   12  C   UNK N   1      25.735  18.111   4.310  0.00  0.00     0.001 C 
HETATM   13  C   UNK N   1      26.028  19.182   3.458  0.00  0.00     0.000 C 
HETATM   14  C   UNK N   1      27.057  20.074   3.781  0.00  0.00     0.001 C 
HETATM   15  C   UNK N   1      27.890  19.804   4.868  0.00  0.00     0.020 C 
ENDBRANCH   9  10
ENDBRANCH   5   8
ENDBRANCH   1   3
BRANCH   1  16
HETATM   16  S   UNK N   1      34.065  15.507   4.998  0.00  0.00    -0.008 SA
BRANCH  16  17
HETATM   17  C   UNK N   1      32.761  16.054   3.931  0.00  0.00     0.168 A 
HETATM   18  N   UNK N   1      31.688  15.292   3.647  0.00  0.00    -0.317 N 
HETATM   19  C   UNK N   1      30.783  16.201   3.241  0.00  0.00     0.207 A 
HETATM   20  H   UNK N   1      31.590  14.315   3.719  0.00  0.00     0.169 HD
HETATM   21  N   UNK N   1      31.281  17.447   3.275  0.00  0.00    -0.280 N 
HETATM   22  N   UNK N   1      32.522  17.353   3.703  0.00  0.00    -0.278 N 
ATOM     23  HN  UNK N   1      30.791  18.303   3.017  1.00  0.00     0.188 HD
ATOM     24  HN  UNK N   1      33.177  18.124   3.836  1.00  0.00     0.189 HD
BRANCH  19  25
HETATM   25  C   UNK N   1      29.330  15.933   3.073  0.00  0.00     0.450 C 
HETATM   26  F   UNK N   1      28.851  15.263   4.183  0.00  0.00    -0.163 F 
HETATM   27  F   UNK N   1      29.185  15.119   1.963  0.00  0.00    -0.163 F 
HETATM   28  F   UNK N   1      28.620  17.100   2.861  0.00  0.00    -0.163 F 
ENDBRANCH  19  25
ENDBRANCH  16  17
ENDBRANCH   1  16
TORSDOF 6
ENDMDL
MODEL 2
REMARK VINA RESULT:      -6.3      4.922      6.849
REMARK  6 active torsions:
REMARK  status: ('A' for Active; 'I' for Inactive)
REMARK    1  A    between atoms: C_6  and  C_7 
REMARK    2  A    between atoms: C_8  and  C_9 
REMARK    3  A    between atoms: C_13  and  C_14 
REMARK    4  A    between atoms: C_14  and  S_16 
REMARK    5  A    between atoms: S_16  and  C_17 
REMARK    6  A    between atoms: C_19  and  C_20 
ROOT
HETATM    1  C   UNK N   1      35.780  13.502  10.902  0.00  0.00     0.250 C 
HETATM    2  O   UNK N   1      34.822  12.757  11.052  0.00  0.00    -0.277 OA
ENDROOT
BRANCH   1   3
HETATM    3  C   UNK N   1      36.576  13.512   9.676  0.00  0.00     0.134 C 
HETATM    4  O   UNK N   1      36.177  14.395   8.838  0.00  0.00    -0.297 OA
HETATM    5  C   UNK N   1      36.223  13.917   7.661  0.00  0.00     0.129 C 
HETATM    6  C   UNK N   1      36.866  12.696   7.649  0.00  0.00     0.049 C 
HETATM    7  C   UNK N   1      37.093  12.410   8.997  0.00  0.00     0.045 C 
BRANCH   5   8
HETATM    8  C   UNK N   1      35.083  14.216   6.873  0.00  0.00    -0.036 C 
HETATM    9  C   UNK N   1      34.184  14.671   6.226  0.00  0.00    -0.059 C 
BRANCH   9  10
HETATM   10  C   UNK N   1      33.139  15.247   5.465  0.00  0.00     0.018 C 
HETATM   11  C   UNK N   1      33.531  15.824   4.267  0.00  0.00     0.020 C 
HETATM   12  C   UNK N   1      32.890  16.975   3.824  0.00  0.00     0.001 C 
HETATM   13  C   UNK N   1      31.853  17.531   4.580  0.00  0.00     0.000 C 
HETATM   14  C   UNK N   1      31.364  16.855   5.705  0.00  0.00     0.001 C 
HETATM   15  C   UNK N   1      32.017  15.709   6.159  0.00  0.00     0.020 C 
ENDBRANCH   9  10
ENDBRANCH   5   8
ENDBRANCH   1   3
BRANCH   1  16
HETATM   16  S   UNK N   1      35.940  15.034  11.903  0.00  0.00    -0.008 SA
BRANCH  16  17
HETATM   17  C   UNK N   1      34.829  16.006  10.924  0.00  0.00     0.168 A 
HETATM   18  N   UNK N   1      35.213  17.130  10.291  0.00  0.00    -0.317 N 
HETATM   19  C   UNK N   1      34.270  17.267   9.341  0.00  0.00     0.207 A 
HETATM   20  H   UNK N   1      35.989  17.707  10.476  0.00  0.00     0.169 HD
HETATM   21  N   UNK N   1      33.362  16.281   9.397  0.00  0.00    -0.280 N 
HETATM   22  N   UNK N   1      33.709  15.494  10.392  0.00  0.00    -0.278 N 
ATOM     23  HN  UNK N   1      32.555  16.163   8.784  1.00  0.00     0.188 HD
ATOM     24  HN  UNK N   1      33.220  14.653  10.700  1.00  0.00     0.189 HD
BRANCH  19  25
HETATM   25  C   UNK N   1      34.366  18.191   8.179  0.00  0.00     0.450 C 
HETATM   26  F   UNK N   1      35.254  19.210   8.469  0.00  0.00    -0.163 F 
HETATM   27  F   UNK N   1      33.110  18.736   7.978  0.00  0.00    -0.163 F 
HETATM   28  F   UNK N   1      34.746  17.522   7.030  0.00  0.00    -0.163 F 
ENDBRANCH  19  25
ENDBRANCH  16  17
ENDBRANCH   1  16
TORSDOF 6
ENDMDL
MODEL 3
REMARK VINA RESULT:      -6.3      4.686      5.895
REMARK  6 active torsions:
REMARK  status: ('A' for Active; 'I' for Inactive)
REMARK    1  A    between atoms: C_6  and  C_7 
REMARK    2  A    between atoms: C_8  and  C_9 
REMARK    3  A    between atoms: C_13  and  C_14 
REMARK    4  A    between atoms: C_14  and  S_16 
REMARK    5  A    between atoms: S_16  and  C_17 
REMARK    6  A    between atoms: C_19  and  C_20 
ROOT
HETATM    1  C   UNK N   1      33.892  16.563   6.532  0.00  0.00     0.250 C 
HETATM    2  O   UNK N   1      35.014  16.213   6.869  0.00  0.00    -0.277 OA
ENDROOT
BRANCH   1   3
HETATM    3  C   UNK N   1      33.517  16.735   5.129  0.00  0.00     0.134 C 
HETATM    4  O   UNK N   1      32.664  17.675   4.961  0.00  0.00    -0.297 OA
HETATM    5  C   UNK N   1      31.803  17.320   4.096  0.00  0.00     0.129 C 
HETATM    6  C   UNK N   1      32.176  16.140   3.484  0.00  0.00     0.049 C 
HETATM    7  C   UNK N   1      33.316  15.734   4.180  0.00  0.00     0.045 C 
BRANCH   5   8
HETATM    8  C   UNK N   1      30.467  17.637   4.448  0.00  0.00    -0.036 C 
HETATM    9  C   UNK N   1      29.413  18.104   4.773  0.00  0.00    -0.059 C 
BRANCH   9  10
HETATM   10  C   UNK N   1      28.186  18.693   5.161  0.00  0.00     0.018 C 
HETATM   11  C   UNK N   1      27.493  19.332   4.144  0.00  0.00     0.020 C 
HETATM   12  C   UNK N   1      26.777  20.488   4.432  0.00  0.00     0.001 C 
HETATM   13  C   UNK N   1      26.753  20.988   5.738  0.00  0.00     0.000 C 
HETATM   14  C   UNK N   1      27.327  20.251   6.782  0.00  0.00     0.001 C 
HETATM   15  C   UNK N   1      28.059  19.099   6.493  0.00  0.00     0.020 C 
ENDBRANCH   9  10
ENDBRANCH   5   8
ENDBRANCH   1   3
BRANCH   1  16
HETATM   16  S   UNK N   1      32.460  16.333   7.660  0.00  0.00    -0.008 SA
BRANCH  16  17
HETATM   17  C   UNK N   1      33.392  16.459   9.162  0.00  0.00     0.168 A 
HETATM   18  N   UNK N   1      33.787  15.381   9.864  0.00  0.00    -0.317 N 
HETATM   19  C   UNK N   1      34.805  15.867  10.598  0.00  0.00     0.207 A 
HETATM   20  H   UNK N   1      33.423  14.466   9.845  0.00  0.00     0.169 HD
HETATM   21  N   UNK N   1      35.014  17.170  10.355  0.00  0.00    -0.280 N 
HETATM   22  N   UNK N   1      34.125  17.542   9.459  0.00  0.00    -0.278 N 
ATOM     23  HN  UNK N   1      35.727  17.761  10.784  1.00  0.00     0.188 HD
ATOM     24  HN  UNK N   1      34.016  18.477   9.065  1.00  0.00     0.189 HD
BRANCH  19  25
HETATM   25  C   UNK N   1      35.784  15.033  11.345  0.00  0.00     0.450 C 
HETATM   26  F   UNK N   1      35.992  15.574  12.599  0.00  0.00    -0.163 F 
HETATM   27  F   UNK N   1      36.975  15.062  10.641  0.00  0.00    -0.163 F 
HETATM   28  F   UNK N   1      35.361  13.720  11.441  0.00  0.00    -0.163 F 
ENDBRANCH  19  25
ENDBRANCH  16  17
ENDBRANCH   1  16
TORSDOF 6
ENDMDL
MODEL 4
REMARK VINA RESULT:      -6.2      8.551     11.591
REMARK  6 active torsions:
REMARK  status: ('A' for Active; 'I' for Inactive)
REMARK    1  A    between atoms: C_6  and  C_7 
REMARK    2  A    between atoms: C_8  and  C_9 
REMARK    3  A    between atoms: C_13  and  C_14 
REMARK    4  A    between atoms: C_14  and  S_16 
REMARK    5  A    between atoms: S_16  and  C_17 
REMARK    6  A    between atoms: C_19  and  C_20 
ROOT
HETATM    1  C   UNK N   1      35.218  13.352  11.628  0.00  0.00     0.250 C 
HETATM    2  O   UNK N   1      34.734  14.000  12.544  0.00  0.00    -0.277 OA
ENDROOT
BRANCH   1   3
HETATM    3  C   UNK N   1      36.009  12.143  11.860  0.00  0.00     0.134 C 
HETATM    4  O   UNK N   1      35.537  11.422  12.808  0.00  0.00    -0.297 OA
HETATM    5  C   UNK N   1      36.492  10.960  13.508  0.00  0.00     0.129 C 
HETATM    6  C   UNK N   1      37.710  11.216  12.911  0.00  0.00     0.049 C 
HETATM    7  C   UNK N   1      37.396  12.020  11.814  0.00  0.00     0.045 C 
BRANCH   5   8
HETATM    8  C   UNK N   1      36.268  11.032  14.906  0.00  0.00    -0.036 C 
HETATM    9  C   UNK N   1      35.873  11.109  16.034  0.00  0.00    -0.059 C 
BRANCH   9  10
HETATM   10  C   UNK N   1      35.367  11.202  17.352  0.00  0.00     0.018 C 
HETATM   11  C   UNK N   1      35.075  12.488  17.782  0.00  0.00     0.020 C 
HETATM   12  C   UNK N   1      35.299  12.827  19.111  0.00  0.00     0.001 C 
HETATM   13  C   UNK N   1      35.801  11.873  20.001  0.00  0.00     0.000 C 
HETATM   14  C   UNK N   1      35.945  10.540  19.593  0.00  0.00     0.001 C 
HETATM   15  C   UNK N   1      35.736  10.201  18.256  0.00  0.00     0.020 C 
ENDBRANCH   9  10
ENDBRANCH   5   8
ENDBRANCH   1   3
BRANCH   1  16
HETATM   16  S   UNK N   1      34.531  13.473   9.929  0.00  0.00    -0.008 SA
BRANCH  16  17
HETATM   17  C   UNK N   1      34.866  15.201   9.722  0.00  0.00     0.168 A 
HETATM   18  N   UNK N   1      34.683  15.841   8.552  0.00  0.00    -0.317 N 
HETATM   19  C   UNK N   1      34.588  17.128   8.935  0.00  0.00     0.207 A 
HETATM   20  H   UNK N   1      34.632  15.462   7.645  0.00  0.00     0.169 HD
HETATM   21  N   UNK N   1      34.709  17.260  10.265  0.00  0.00    -0.280 N 
HETATM   22  N   UNK N   1      34.889  16.054  10.757  0.00  0.00    -0.278 N 
ATOM     23  HN  UNK N   1      34.670  18.131  10.793  1.00  0.00     0.188 HD
ATOM     24  HN  UNK N   1      35.019  15.813  11.740  1.00  0.00     0.189 HD
BRANCH  19  25
HETATM   25  C   UNK N   1      34.102  18.234   8.068  0.00  0.00     0.450 C 
HETATM   26  F   UNK N   1      34.329  17.919   6.742  0.00  0.00    -0.163 F 
HETATM   27  F   UNK N   1      34.833  19.364   8.391  0.00  0.00    -0.163 F 
HETATM   28  F   UNK N   1      32.763  18.498   8.288  0.00  0.00    -0.163 F 
ENDBRANCH  19  25
ENDBRANCH  16  17
ENDBRANCH   1  16
TORSDOF 6
ENDMDL
MODEL 5
REMARK VINA RESULT:      -6.2     11.848     14.038
REMARK  6 active torsions:
REMARK  status: ('A' for Active; 'I' for Inactive)
REMARK    1  A    between atoms: C_6  and  C_7 
REMARK    2  A    between atoms: C_8  and  C_9 
REMARK    3  A    between atoms: C_13  and  C_14 
REMARK    4  A    between atoms: C_14  and  S_16 
REMARK    5  A    between atoms: S_16  and  C_17 
REMARK    6  A    between atoms: C_19  and  C_20 
ROOT
HETATM    1  C   UNK N   1      28.045  29.767  -2.350  0.00  0.00     0.250 C 
HETATM    2  O   UNK N   1      27.779  29.457  -1.198  0.00  0.00    -0.277 OA
ENDROOT
BRANCH   1   3
HETATM    3  C   UNK N   1      29.283  29.347  -3.006  0.00  0.00     0.134 C 
HETATM    4  O   UNK N   1      29.093  28.406  -3.855  0.00  0.00    -0.297 OA
HETATM    5  C   UNK N   1      30.041  27.563  -3.776  0.00  0.00     0.129 C 
HETATM    6  C   UNK N   1      31.050  28.030  -2.958  0.00  0.00     0.049 C 
HETATM    7  C   UNK N   1      30.543  29.218  -2.427  0.00  0.00     0.045 C 
BRANCH   5   8
HETATM    8  C   UNK N   1      29.613  26.212  -3.808  0.00  0.00    -0.036 C 
HETATM    9  C   UNK N   1      29.452  25.029  -3.899  0.00  0.00    -0.059 C 
BRANCH   9  10
HETATM   10  C   UNK N   1      29.302  23.627  -4.017  0.00  0.00     0.018 C 
HETATM   11  C   UNK N   1      29.893  22.883  -3.006  0.00  0.00     0.020 C 
HETATM   12  C   UNK N   1      30.469  21.656  -3.313  0.00  0.00     0.001 C 
HETATM   13  C   UNK N   1      30.437  21.179  -4.627  0.00  0.00     0.000 C 
HETATM   14  C   UNK N   1      29.705  21.863  -5.605  0.00  0.00     0.001 C 
HETATM   15  C   UNK N   1      29.140  23.102  -5.303  0.00  0.00     0.020 C 
ENDBRANCH   9  10
ENDBRANCH   5   8
ENDBRANCH   1   3
BRANCH   1  16
HETATM   16  S   UNK N   1      26.715  30.256  -3.519  0.00  0.00    -0.008 SA
BRANCH  16  17
HETATM   17  C   UNK N   1      26.103  28.616  -3.791  0.00  0.00     0.168 A 
HETATM   18  N   UNK N   1      26.035  28.060  -5.015  0.00  0.00    -0.317 N 
HETATM   19  C   UNK N   1      25.987  26.744  -4.738  0.00  0.00     0.207 A 
HETATM   20  H   UNK N   1      26.023  28.506  -5.894  0.00  0.00     0.169 HD
HETATM   21  N   UNK N   1      26.022  26.515  -3.416  0.00  0.00    -0.280 N 
HETATM   22  N   UNK N   1      26.090  27.688  -2.823  0.00  0.00    -0.278 N 
ATOM     23  HN  UNK N   1      26.000  25.604  -2.957  1.00  0.00     0.188 HD
ATOM     24  HN  UNK N   1      26.126  27.858  -1.818  1.00  0.00     0.189 HD
BRANCH  19  25
HETATM   25  C   UNK N   1      26.186  25.661  -5.736  0.00  0.00     0.450 C 
HETATM   26  F   UNK N   1      27.413  25.818  -6.353  0.00  0.00    -0.163 F 
HETATM   27  F   UNK N   1      25.189  25.785  -6.687  0.00  0.00    -0.163 F 
HETATM   28  F   UNK N   1      26.087  24.411  -5.153  0.00  0.00    -0.163 F 
ENDBRANCH  19  25
ENDBRANCH  16  17
ENDBRANCH   1  16
TORSDOF 6
ENDMDL
MODEL 6
REMARK VINA RESULT:      -6.0     11.224     13.750
REMARK  6 active torsions:
REMARK  status: ('A' for Active; 'I' for Inactive)
REMARK    1  A    between atoms: C_6  and  C_7 
REMARK    2  A    between atoms: C_8  and  C_9 
REMARK    3  A    between atoms: C_13  and  C_14 
REMARK    4  A    between atoms: C_14  and  S_16 
REMARK    5  A    between atoms: S_16  and  C_17 
REMARK    6  A    between atoms: C_19  and  C_20 
ROOT
HETATM    1  C   UNK N   1      35.083  12.140  15.400  0.00  0.00     0.250 C 
HETATM    2  O   UNK N   1      34.064  11.505  15.170  0.00  0.00    -0.277 OA
ENDROOT
BRANCH   1   3
HETATM    3  C   UNK N   1      35.589  12.337  16.758  0.00  0.00     0.134 C 
HETATM    4  O   UNK N   1      35.835  11.231  17.355  0.00  0.00    -0.297 OA
HETATM    5  C   UNK N   1      35.465  11.311  18.569  0.00  0.00     0.129 C 
HETATM    6  C   UNK N   1      35.111  12.605  18.893  0.00  0.00     0.049 C 
HETATM    7  C   UNK N   1      35.177  13.296  17.681  0.00  0.00     0.045 C 
BRANCH   5   8
HETATM    8  C   UNK N   1      34.776  10.164  19.037  0.00  0.00    -0.036 C 
HETATM    9  C   UNK N   1      34.035   9.331  19.473  0.00  0.00    -0.059 C 
BRANCH   9  10
HETATM   10  C   UNK N   1      33.130   8.376  19.995  0.00  0.00     0.018 C 
HETATM   11  C   UNK N   1      33.405   7.059  19.661  0.00  0.00     0.020 C 
HETATM   12  C   UNK N   1      32.352   6.181  19.430  0.00  0.00     0.001 C 
HETATM   13  C   UNK N   1      31.032   6.628  19.547  0.00  0.00     0.000 C 
HETATM   14  C   UNK N   1      30.768   7.914  20.034  0.00  0.00     0.001 C 
HETATM   15  C   UNK N   1      31.822   8.801  20.251  0.00  0.00     0.020 C 
ENDBRANCH   9  10
ENDBRANCH   5   8
ENDBRANCH   1   3
BRANCH   1  16
HETATM   16  S   UNK N   1      36.350  12.384  14.093  0.00  0.00    -0.008 SA
BRANCH  16  17
HETATM   17  C   UNK N   1      35.294  13.271  12.981  0.00  0.00     0.168 A 
HETATM   18  N   UNK N   1      35.517  14.552  12.634  0.00  0.00    -0.317 N 
HETATM   19  C   UNK N   1      34.825  14.669  11.486  0.00  0.00     0.207 A 
HETATM   20  H   UNK N   1      36.052  15.233  13.104  0.00  0.00     0.169 HD
HETATM   21  N   UNK N   1      34.214  13.521  11.155  0.00  0.00    -0.280 N 
HETATM   22  N   UNK N   1      34.504  12.647  12.095  0.00  0.00    -0.278 N 
ATOM     23  HN  UNK N   1      33.635  13.358  10.332  1.00  0.00     0.188 HD
ATOM     24  HN  UNK N   1      34.188  11.678  12.139  1.00  0.00     0.189 HD
BRANCH  19  25
HETATM   25  C   UNK N   1      34.956  15.801  10.531  0.00  0.00     0.450 C 
HETATM   26  F   UNK N   1      33.806  15.904   9.772  0.00  0.00    -0.163 F 
HETATM   27  F   UNK N   1      36.020  15.515   9.693  0.00  0.00    -0.163 F 
HETATM   28  F   UNK N   1      35.218  16.990  11.187  0.00  0.00    -0.163 F 
ENDBRANCH  19  25
ENDBRANCH  16  17
ENDBRANCH   1  16
TORSDOF 6
ENDMDL
MODEL 7
REMARK VINA RESULT:      -6.0      5.781      8.255
REMARK  6 active torsions:
REMARK  status: ('A' for Active; 'I' for Inactive)
REMARK    1  A    between atoms: C_6  and  C_7 
REMARK    2  A    between atoms: C_8  and  C_9 
REMARK    3  A    between atoms: C_13  and  C_14 
REMARK    4  A    between atoms: C_14  and  S_16 
REMARK    5  A    between atoms: S_16  and  C_17 
REMARK    6  A    between atoms: C_19  and  C_20 
ROOT
HETATM    1  C   UNK N   1      20.865  18.238   5.139  0.00  0.00     0.250 C 
HETATM    2  O   UNK N   1      21.025  18.829   6.196  0.00  0.00    -0.277 OA
ENDROOT
BRANCH   1   3
HETATM    3  C   UNK N   1      21.141  18.862   3.846  0.00  0.00     0.134 C 
HETATM    4  O   UNK N   1      22.361  18.719   3.482  0.00  0.00    -0.297 OA
HETATM    5  C   UNK N   1      22.777  19.796   2.950  0.00  0.00     0.129 C 
HETATM    6  C   UNK N   1      21.738  20.684   2.758  0.00  0.00     0.049 C 
HETATM    7  C   UNK N   1      20.642  20.072   3.368  0.00  0.00     0.045 C 
BRANCH   5   8
HETATM    8  C   UNK N   1      24.077  20.180   3.366  0.00  0.00    -0.036 C 
HETATM    9  C   UNK N   1      25.172  20.322   3.829  0.00  0.00    -0.059 C 
BRANCH   9  10
HETATM   10  C   UNK N   1      26.462  20.453   4.395  0.00  0.00     0.018 C 
HETATM   11  C   UNK N   1      27.383  19.497   3.991  0.00  0.00     0.020 C 
HETATM   12  C   UNK N   1      28.324  19.033   4.902  0.00  0.00     0.001 C 
HETATM   13  C   UNK N   1      28.344  19.539   6.206  0.00  0.00     0.000 C 
HETATM   14  C   UNK N   1      27.513  20.611   6.555  0.00  0.00     0.001 C 
HETATM   15  C   UNK N   1      26.556  21.067   5.648  0.00  0.00     0.020 C 
ENDBRANCH   9  10
ENDBRANCH   5   8
ENDBRANCH   1   3
BRANCH   1  16
HETATM   16  S   UNK N   1      20.844  16.402   5.087  0.00  0.00    -0.008 SA
BRANCH  16  17
HETATM   17  C   UNK N   1      22.602  16.199   5.179  0.00  0.00     0.168 A 
HETATM   18  N   UNK N   1      23.329  15.699   4.163  0.00  0.00    -0.317 N 
HETATM   19  C   UNK N   1      24.567  16.146   4.442  0.00  0.00     0.207 A 
HETATM   20  H   UNK N   1      23.030  15.146   3.405  0.00  0.00     0.169 HD
HETATM   21  N   UNK N   1      24.589  16.875   5.569  0.00  0.00    -0.280 N 
HETATM   22  N   UNK N   1      23.359  16.903   6.033  0.00  0.00    -0.278 N 
ATOM     23  HN  UNK N   1      25.406  17.322   5.986  1.00  0.00     0.188 HD
ATOM     24  HN  UNK N   1      23.041  17.373   6.881  1.00  0.00     0.189 HD
BRANCH  19  25
HETATM   25  C   UNK N   1      25.711  16.120   3.492  0.00  0.00     0.450 C 
HETATM   26  F   UNK N   1      25.698  14.934   2.782  0.00  0.00    -0.163 F 
HETATM   27  F   UNK N   1      26.873  16.180   4.241  0.00  0.00    -0.163 F 
HETATM   28  F   UNK N   1      25.682  17.204   2.635  0.00  0.00    -0.163 F 
ENDBRANCH  19  25
ENDBRANCH  16  17
ENDBRANCH   1  16
TORSDOF 6
ENDMDL
MODEL 8
REMARK VINA RESULT:      -5.9      6.951      9.301
REMARK  6 active torsions:
REMARK  status: ('A' for Active; 'I' for Inactive)
REMARK    1  A    between atoms: C_6  and  C_7 
REMARK    2  A    between atoms: C_8  and  C_9 
REMARK    3  A    between atoms: C_13  and  C_14 
REMARK    4  A    between atoms: C_14  and  S_16 
REMARK    5  A    between atoms: S_16  and  C_17 
REMARK    6  A    between atoms: C_19  and  C_20 
ROOT
HETATM    1  C   UNK N   1      21.723  14.991   2.143  0.00  0.00     0.250 C 
HETATM    2  O   UNK N   1      21.236  15.677   1.256  0.00  0.00    -0.277 OA
ENDROOT
BRANCH   1   3
HETATM    3  C   UNK N   1      23.086  14.466   2.064  0.00  0.00     0.134 C 
HETATM    4  O   UNK N   1      23.819  14.853   3.041  0.00  0.00    -0.297 OA
HETATM    5  C   UNK N   1      24.984  15.130   2.615  0.00  0.00     0.129 C 
HETATM    6  C   UNK N   1      25.135  14.738   1.300  0.00  0.00     0.049 C 
HETATM    7  C   UNK N   1      23.863  14.306   0.919  0.00  0.00     0.045 C 
BRANCH   5   8
HETATM    8  C   UNK N   1      25.522  16.328   3.148  0.00  0.00    -0.036 C 
HETATM    9  C   UNK N   1      25.908  17.429   3.417  0.00  0.00    -0.059 C 
BRANCH   9  10
HETATM   10  C   UNK N   1      26.349  18.744   3.698  0.00  0.00     0.018 C 
HETATM   11  C   UNK N   1      27.688  18.857   4.039  0.00  0.00     0.020 C 
HETATM   12  C   UNK N   1      28.071  19.796   4.990  0.00  0.00     0.001 C 
HETATM   13  C   UNK N   1      27.111  20.622   5.582  0.00  0.00     0.000 C 
HETATM   14  C   UNK N   1      25.789  20.605   5.119  0.00  0.00     0.001 C 
HETATM   15  C   UNK N   1      25.400  19.653   4.176  0.00  0.00     0.020 C 
ENDBRANCH   9  10
ENDBRANCH   5   8
ENDBRANCH   1   3
BRANCH   1  16
HETATM   16  S   UNK N   1      21.050  15.053   3.852  0.00  0.00    -0.008 SA
BRANCH  16  17
HETATM   17  C   UNK N   1      20.431  16.710   3.741  0.00  0.00     0.168 A 
HETATM   18  N   UNK N   1      21.236  17.788   3.755  0.00  0.00    -0.317 N 
HETATM   19  C   UNK N   1      20.463  18.737   3.194  0.00  0.00     0.207 A 
HETATM   20  H   UNK N   1      22.159  17.863   4.090  0.00  0.00     0.169 HD
HETATM   21  N   UNK N   1      19.254  18.259   2.861  0.00  0.00    -0.280 N 
HETATM   22  N   UNK N   1      19.232  16.991   3.209  0.00  0.00    -0.278 N 
ATOM     23  HN  UNK N   1      18.496  18.781   2.423  1.00  0.00     0.188 HD
ATOM     24  HN  UNK N   1      18.451  16.344   3.094  1.00  0.00     0.189 HD
BRANCH  19  25
HETATM   25  C   UNK N   1      20.957  20.053   2.710  0.00  0.00     0.450 C 
HETATM   26  F   UNK N   1      20.360  21.068   3.433  0.00  0.00    -0.163 F 
HETATM   27  F   UNK N   1      20.585  20.172   1.382  0.00  0.00    -0.163 F 
HETATM   28  F   UNK N   1      22.335  20.138   2.791  0.00  0.00    -0.163 F 
ENDBRANCH  19  25
ENDBRANCH  16  17
ENDBRANCH   1  16
TORSDOF 6
ENDMDL
MODEL 9
REMARK VINA RESULT:      -5.9      2.941      5.640
REMARK  6 active torsions:
REMARK  status: ('A' for Active; 'I' for Inactive)
REMARK    1  A    between atoms: C_6  and  C_7 
REMARK    2  A    between atoms: C_8  and  C_9 
REMARK    3  A    between atoms: C_13  and  C_14 
REMARK    4  A    between atoms: C_14  and  S_16 
REMARK    5  A    between atoms: S_16  and  C_17 
REMARK    6  A    between atoms: C_19  and  C_20 
ROOT
HETATM    1  C   UNK N   1      27.672  17.664   6.584  0.00  0.00     0.250 C 
HETATM    2  O   UNK N   1      27.343  16.500   6.411  0.00  0.00    -0.277 OA
ENDROOT
BRANCH   1   3
HETATM    3  C   UNK N   1      28.047  18.182   7.899  0.00  0.00     0.134 C 
HETATM    4  O   UNK N   1      29.168  18.801   7.881  0.00  0.00    -0.297 OA
HETATM    5  C   UNK N   1      29.830  18.514   8.928  0.00  0.00     0.129 C 
HETATM    6  C   UNK N   1      29.056  17.801   9.822  0.00  0.00     0.049 C 
HETATM    7  C   UNK N   1      27.864  17.563   9.134  0.00  0.00     0.045 C 
BRANCH   5   8
HETATM    8  C   UNK N   1      31.202  18.249   8.687  0.00  0.00    -0.036 C 
HETATM    9  C   UNK N   1      32.290  17.854   8.380  0.00  0.00    -0.059 C 
BRANCH   9  10
HETATM   10  C   UNK N   1      33.557  17.354   7.996  0.00  0.00     0.018 C 
HETATM   11  C   UNK N   1      33.813  17.381   6.633  0.00  0.00     0.020 C 
HETATM   12  C   UNK N   1      34.552  16.353   6.060  0.00  0.00     0.001 C 
HETATM   13  C   UNK N   1      35.039  15.314   6.859  0.00  0.00     0.000 C 
HETATM   14  C   UNK N   1      34.907  15.378   8.252  0.00  0.00     0.001 C 
HETATM   15  C   UNK N   1      34.152  16.400   8.827  0.00  0.00     0.020 C 
ENDBRANCH   9  10
ENDBRANCH   5   8
ENDBRANCH   1   3
BRANCH   1  16
HETATM   16  S   UNK N   1      28.287  18.682   5.183  0.00  0.00    -0.008 SA
BRANCH  16  17
HETATM   17  C   UNK N   1      29.579  17.568   4.705  0.00  0.00     0.168 A 
HETATM   18  N   UNK N   1      30.267  16.829   5.596  0.00  0.00    -0.317 N 
HETATM   19  C   UNK N   1      30.766  15.841   4.832  0.00  0.00     0.207 A 
HETATM   20  H   UNK N   1      30.376  16.976   6.563  0.00  0.00     0.169 HD
HETATM   21  N   UNK N   1      30.402  15.975   3.547  0.00  0.00    -0.280 N 
HETATM   22  N   UNK N   1      29.663  17.060   3.467  0.00  0.00    -0.278 N 
ATOM     23  HN  UNK N   1      30.653  15.353   2.777  1.00  0.00     0.188 HD
ATOM     24  HN  UNK N   1      29.235  17.441   2.623  1.00  0.00     0.189 HD
BRANCH  19  25
HETATM   25  C   UNK N   1      31.374  14.589   5.357  0.00  0.00     0.450 C 
HETATM   26  F   UNK N   1      32.482  14.258   4.601  0.00  0.00    -0.163 F 
HETATM   27  F   UNK N   1      30.430  13.586   5.231  0.00  0.00    -0.163 F 
HETATM   28  F   UNK N   1      31.711  14.712   6.692  0.00  0.00    -0.163 F 
ENDBRANCH  19  25
ENDBRANCH  16  17
ENDBRANCH   1  16
TORSDOF 6
ENDMDL
