MODEL 1
REMARK VINA RESULT:      -6.2      0.000      0.000
REMARK  8 active torsions:
REMARK  status: ('A' for Active; 'I' for Inactive)
REMARK    1  A    between atoms: C_1  and  O_7 
REMARK    2  A    between atoms: C_4  and  C_12 
REMARK    3  A    between atoms: O_7  and  C_8 
REMARK       I    between atoms: C_12  and  N_13 
REMARK    4  A    between atoms: N_13  and  C_15 
REMARK    5  A    between atoms: C_15  and  C_16 
REMARK    6  A    between atoms: C_16  and  O_17 
REMARK    7  A    between atoms: O_17  and  P_18 
REMARK    8  A    between atoms: P_18  and  O_21 
ROOT
HETATM    1  P   UNK N   1      30.556  23.581  -3.132  0.00  0.00     0.390 P 
HETATM    2  O   UNK N   1      30.737  25.307  -3.177  0.00  0.00    -0.307 OA
HETATM    3  O   UNK N   1      31.816  22.986  -3.813  0.00  0.00    -0.632 OA
HETATM    4  H   UNK N   1      30.812  26.274  -3.145  0.00  0.00     0.222 HD
ENDROOT
BRANCH   1   5
HETATM    5  O   UNK N   1      29.194  23.042  -4.068  0.00  0.00    -0.295 OA
BRANCH   5   6
HETATM    6  C   UNK N   1      29.642  22.970  -5.391  0.00  0.00     0.200 C 
BRANCH   6   7
HETATM    7  C   UNK N   1      28.667  23.658  -6.338  0.00  0.00     0.149 C 
BRANCH   7   8
HETATM    8  N   UNK N   1      27.400  22.966  -6.356  0.00  0.00    -0.355 N 
HETATM    9  C   UNK N   1      26.204  23.509  -6.008  0.00  0.00     0.251 C 
HETATM   10  O   UNK N   1      25.200  22.824  -6.141  0.00  0.00    -0.268 OA
HETATM   11  H   UNK N   1      27.402  22.024  -6.645  0.00  0.00     0.162 HD
BRANCH   9  12
HETATM   12  C   UNK N   1      26.051  24.899  -5.478  0.00  0.00     0.032 A 
HETATM   13  C   UNK N   1      25.518  25.943  -6.251  0.00  0.00     0.020 A 
HETATM   14  C   UNK N   1      25.377  27.227  -5.720  0.00  0.00     0.038 A 
HETATM   15  C   UNK N   1      25.752  27.487  -4.402  0.00  0.00     0.078 A 
HETATM   16  C   UNK N   1      26.298  26.452  -3.626  0.00  0.00     0.038 A 
HETATM   17  C   UNK N   1      26.455  25.174  -4.164  0.00  0.00     0.020 A 
BRANCH  15  18
HETATM   18  O   UNK N   1      25.561  28.732  -3.899  0.00  0.00    -0.255 OA
BRANCH  18  19
HETATM   19  C   UNK N   1      26.523  29.723  -3.881  0.00  0.00     0.530 C 
HETATM   20  F   UNK N   1      27.398  29.502  -2.831  0.00  0.00    -0.144 F 
HETATM   21  F   UNK N   1      27.224  29.751  -5.075  0.00  0.00    -0.144 F 
HETATM   22  F   UNK N   1      25.906  30.945  -3.697  0.00  0.00    -0.144 F 
ENDBRANCH  18  19
ENDBRANCH  15  18
ENDBRANCH   9  12
ENDBRANCH   7   8
ENDBRANCH   6   7
ENDBRANCH   5   6
ENDBRANCH   1   5
BRANCH   1  23
HETATM   23  O   UNK N   1      30.519  22.965  -1.510  0.00  0.00    -0.307 OA
HETATM   24  H   UNK N   1      30.427  22.024  -1.294  0.00  0.00     0.222 HD
ENDBRANCH   1  23
TORSDOF 8
ENDMDL
MODEL 2
REMARK VINA RESULT:      -6.1     11.804     13.403
REMARK  8 active torsions:
REMARK  status: ('A' for Active; 'I' for Inactive)
REMARK    1  A    between atoms: C_1  and  O_7 
REMARK    2  A    between atoms: C_4  and  C_12 
REMARK    3  A    between atoms: O_7  and  C_8 
REMARK       I    between atoms: C_12  and  N_13 
REMARK    4  A    between atoms: N_13  and  C_15 
REMARK    5  A    between atoms: C_15  and  C_16 
REMARK    6  A    between atoms: C_16  and  O_17 
REMARK    7  A    between atoms: O_17  and  P_18 
REMARK    8  A    between atoms: P_18  and  O_21 
ROOT
HETATM    1  P   UNK N   1      19.943  19.327   2.850  0.00  0.00     0.390 P 
HETATM    2  O   UNK N   1      18.290  19.012   2.418  0.00  0.00    -0.307 OA
HETATM    3  O   UNK N   1      20.747  19.364   1.524  0.00  0.00    -0.632 OA
HETATM    4  H   UNK N   1      17.350  18.875   2.222  0.00  0.00     0.222 HD
ENDROOT
BRANCH   1   5
HETATM    5  O   UNK N   1      20.626  18.042   3.801  0.00  0.00    -0.295 OA
BRANCH   5   6
HETATM    6  C   UNK N   1      21.442  18.662   4.752  0.00  0.00     0.200 C 
BRANCH   6   7
HETATM    7  C   UNK N   1      22.909  18.589   4.345  0.00  0.00     0.149 C 
BRANCH   7   8
HETATM    8  N   UNK N   1      23.234  19.647   3.417  0.00  0.00    -0.355 N 
HETATM    9  C   UNK N   1      24.480  20.141   3.196  0.00  0.00     0.251 C 
HETATM   10  O   UNK N   1      24.616  20.989   2.326  0.00  0.00    -0.268 OA
HETATM   11  H   UNK N   1      22.492  20.040   2.902  0.00  0.00     0.162 HD
BRANCH   9  12
HETATM   12  C   UNK N   1      25.691  19.699   3.953  0.00  0.00     0.032 A 
HETATM   13  C   UNK N   1      26.262  20.475   4.975  0.00  0.00     0.020 A 
HETATM   14  C   UNK N   1      27.385  20.026   5.671  0.00  0.00     0.038 A 
HETATM   15  C   UNK N   1      27.951  18.787   5.370  0.00  0.00     0.078 A 
HETATM   16  C   UNK N   1      27.395  18.011   4.340  0.00  0.00     0.038 A 
HETATM   17  C   UNK N   1      26.283  18.469   3.633  0.00  0.00     0.020 A 
BRANCH  15  18
HETATM   18  O   UNK N   1      29.014  18.357   6.093  0.00  0.00    -0.255 OA
BRANCH  18  19
HETATM   19  C   UNK N   1      28.939  17.888   7.390  0.00  0.00     0.530 C 
HETATM   20  F   UNK N   1      29.942  16.958   7.606  0.00  0.00    -0.144 F 
HETATM   21  F   UNK N   1      29.063  18.927   8.297  0.00  0.00    -0.144 F 
HETATM   22  F   UNK N   1      27.715  17.275   7.577  0.00  0.00    -0.144 F 
ENDBRANCH  18  19
ENDBRANCH  15  18
ENDBRANCH   9  12
ENDBRANCH   7   8
ENDBRANCH   6   7
ENDBRANCH   5   6
ENDBRANCH   1   5
BRANCH   1  23
HETATM   23  O   UNK N   1      20.141  20.877   3.605  0.00  0.00    -0.307 OA
HETATM   24  H   UNK N   1      20.485  21.658   3.145  0.00  0.00     0.222 HD
ENDBRANCH   1  23
TORSDOF 8
ENDMDL
MODEL 3
REMARK VINA RESULT:      -6.1     15.194     17.140
REMARK  8 active torsions:
REMARK  status: ('A' for Active; 'I' for Inactive)
REMARK    1  A    between atoms: C_1  and  O_7 
REMARK    2  A    between atoms: C_4  and  C_12 
REMARK    3  A    between atoms: O_7  and  C_8 
REMARK       I    between atoms: C_12  and  N_13 
REMARK    4  A    between atoms: N_13  and  C_15 
REMARK    5  A    between atoms: C_15  and  C_16 
REMARK    6  A    between atoms: C_16  and  O_17 
REMARK    7  A    between atoms: O_17  and  P_18 
REMARK    8  A    between atoms: P_18  and  O_21 
ROOT
HETATM    1  P   UNK N   1      36.047  14.185  12.545  0.00  0.00     0.390 P 
HETATM    2  O   UNK N   1      36.820  14.616  14.039  0.00  0.00    -0.307 OA
HETATM    3  O   UNK N   1      37.015  13.222  11.809  0.00  0.00    -0.632 OA
HETATM    4  H   UNK N   1      37.195  14.855  14.901  0.00  0.00     0.222 HD
ENDROOT
BRANCH   1   5
HETATM    5  O   UNK N   1      35.834  15.557  11.500  0.00  0.00    -0.295 OA
BRANCH   5   6
HETATM    6  C   UNK N   1      34.518  15.484  11.034  0.00  0.00     0.200 C 
BRANCH   6   7
HETATM    7  C   UNK N   1      34.441  15.826   9.551  0.00  0.00     0.149 C 
BRANCH   7   8
HETATM    8  N   UNK N   1      34.941  17.159   9.309  0.00  0.00    -0.355 N 
HETATM    9  C   UNK N   1      34.421  18.041   8.415  0.00  0.00     0.251 C 
HETATM   10  O   UNK N   1      34.904  19.164   8.369  0.00  0.00    -0.268 OA
HETATM   11  H   UNK N   1      35.720  17.453   9.834  0.00  0.00     0.162 HD
BRANCH   9  12
HETATM   12  C   UNK N   1      33.290  17.715   7.494  0.00  0.00     0.032 A 
HETATM   13  C   UNK N   1      33.470  17.562   6.109  0.00  0.00     0.020 A 
HETATM   14  C   UNK N   1      32.394  17.245   5.279  0.00  0.00     0.038 A 
HETATM   15  C   UNK N   1      31.121  17.058   5.818  0.00  0.00     0.078 A 
HETATM   16  C   UNK N   1      30.930  17.222   7.200  0.00  0.00     0.038 A 
HETATM   17  C   UNK N   1      32.003  17.557   8.026  0.00  0.00     0.020 A 
BRANCH  15  18
HETATM   18  O   UNK N   1      30.104  16.705   4.994  0.00  0.00    -0.255 OA
BRANCH  18  19
HETATM   19  C   UNK N   1      29.076  17.547   4.616  0.00  0.00     0.530 C 
HETATM   20  F   UNK N   1      29.505  18.862   4.681  0.00  0.00    -0.144 F 
HETATM   21  F   UNK N   1      28.650  17.258   3.331  0.00  0.00    -0.144 F 
HETATM   22  F   UNK N   1      28.016  17.381   5.486  0.00  0.00    -0.144 F 
ENDBRANCH  18  19
ENDBRANCH  15  18
ENDBRANCH   9  12
ENDBRANCH   7   8
ENDBRANCH   6   7
ENDBRANCH   5   6
ENDBRANCH   1   5
BRANCH   1  23
HETATM   23  O   UNK N   1      34.565  13.318  12.797  0.00  0.00    -0.307 OA
HETATM   24  H   UNK N   1      34.107  12.823  12.100  0.00  0.00     0.222 HD
ENDBRANCH   1  23
TORSDOF 8
ENDMDL
MODEL 4
REMARK VINA RESULT:      -6.0     14.717     16.589
REMARK  8 active torsions:
REMARK  status: ('A' for Active; 'I' for Inactive)
REMARK    1  A    between atoms: C_1  and  O_7 
REMARK    2  A    between atoms: C_4  and  C_12 
REMARK    3  A    between atoms: O_7  and  C_8 
REMARK       I    between atoms: C_12  and  N_13 
REMARK    4  A    between atoms: N_13  and  C_15 
REMARK    5  A    between atoms: C_15  and  C_16 
REMARK    6  A    between atoms: C_16  and  O_17 
REMARK    7  A    between atoms: O_17  and  P_18 
REMARK    8  A    between atoms: P_18  and  O_21 
ROOT
HETATM    1  P   UNK N   1      36.966  14.311  10.513  0.00  0.00     0.390 P 
HETATM    2  O   UNK N   1      37.089  16.011  10.846  0.00  0.00    -0.307 OA
HETATM    3  O   UNK N   1      37.640  14.081   9.136  0.00  0.00    -0.632 OA
HETATM    4  H   UNK N   1      37.168  16.946  11.092  0.00  0.00     0.222 HD
ENDROOT
BRANCH   1   5
HETATM    5  O   UNK N   1      35.314  13.797  10.342  0.00  0.00    -0.295 OA
BRANCH   5   6
HETATM    6  C   UNK N   1      34.550  14.967  10.303  0.00  0.00     0.200 C 
BRANCH   6   7
HETATM    7  C   UNK N   1      34.423  15.491   8.878  0.00  0.00     0.149 C 
BRANCH   7   8
HETATM    8  N   UNK N   1      34.856  16.867   8.800  0.00  0.00    -0.355 N 
HETATM    9  C   UNK N   1      34.182  17.867   8.174  0.00  0.00     0.251 C 
HETATM   10  O   UNK N   1      34.634  19.000   8.250  0.00  0.00    -0.268 OA
HETATM   11  H   UNK N   1      35.707  17.099   9.237  0.00  0.00     0.162 HD
BRANCH   9  12
HETATM   12  C   UNK N   1      32.918  17.656   7.403  0.00  0.00     0.032 A 
HETATM   13  C   UNK N   1      32.912  17.440   6.015  0.00  0.00     0.020 A 
HETATM   14  C   UNK N   1      31.714  17.234   5.329  0.00  0.00     0.038 A 
HETATM   15  C   UNK N   1      30.501  17.224   6.018  0.00  0.00     0.078 A 
HETATM   16  C   UNK N   1      30.497  17.453   7.403  0.00  0.00     0.038 A 
HETATM   17  C   UNK N   1      31.694  17.677   8.085  0.00  0.00     0.020 A 
BRANCH  15  18
HETATM   18  O   UNK N   1      29.359  16.976   5.332  0.00  0.00    -0.255 OA
BRANCH  18  19
HETATM   19  C   UNK N   1      28.418  17.934   5.007  0.00  0.00     0.530 C 
HETATM   20  F   UNK N   1      29.055  19.128   4.715  0.00  0.00    -0.144 F 
HETATM   21  F   UNK N   1      27.660  17.531   3.920  0.00  0.00    -0.144 F 
HETATM   22  F   UNK N   1      27.581  18.129   6.088  0.00  0.00    -0.144 F 
ENDBRANCH  18  19
ENDBRANCH  15  18
ENDBRANCH   9  12
ENDBRANCH   7   8
ENDBRANCH   6   7
ENDBRANCH   5   6
ENDBRANCH   1   5
BRANCH   1  23
HETATM   23  O   UNK N   1      37.834  13.349  11.668  0.00  0.00    -0.307 OA
HETATM   24  H   UNK N   1      38.501  13.708  12.273  0.00  0.00     0.222 HD
ENDBRANCH   1  23
TORSDOF 8
ENDMDL
MODEL 5
REMARK VINA RESULT:      -5.9     15.499     17.507
REMARK  8 active torsions:
REMARK  status: ('A' for Active; 'I' for Inactive)
REMARK    1  A    between atoms: C_1  and  O_7 
REMARK    2  A    between atoms: C_4  and  C_12 
REMARK    3  A    between atoms: O_7  and  C_8 
REMARK       I    between atoms: C_12  and  N_13 
REMARK    4  A    between atoms: N_13  and  C_15 
REMARK    5  A    between atoms: C_15  and  C_16 
REMARK    6  A    between atoms: C_16  and  O_17 
REMARK    7  A    between atoms: O_17  and  P_18 
REMARK    8  A    between atoms: P_18  and  O_21 
ROOT
HETATM    1  P   UNK N   1      36.016  14.157  12.520  0.00  0.00     0.390 P 
HETATM    2  O   UNK N   1      36.880  14.446  13.999  0.00  0.00    -0.307 OA
HETATM    3  O   UNK N   1      36.879  13.173  11.688  0.00  0.00    -0.632 OA
HETATM    4  H   UNK N   1      37.309  14.607  14.854  0.00  0.00     0.222 HD
ENDROOT
BRANCH   1   5
HETATM    5  O   UNK N   1      35.857  15.599  11.564  0.00  0.00    -0.295 OA
BRANCH   5   6
HETATM    6  C   UNK N   1      34.550  15.587  11.067  0.00  0.00     0.200 C 
BRANCH   6   7
HETATM    7  C   UNK N   1      34.527  15.906   9.577  0.00  0.00     0.149 C 
BRANCH   7   8
HETATM    8  N   UNK N   1      35.009  17.245   9.334  0.00  0.00    -0.355 N 
HETATM    9  C   UNK N   1      34.506  18.104   8.408  0.00  0.00     0.251 C 
HETATM   10  O   UNK N   1      34.968  19.235   8.363  0.00  0.00    -0.268 OA
HETATM   11  H   UNK N   1      35.761  17.562   9.885  0.00  0.00     0.162 HD
BRANCH   9  12
HETATM   12  C   UNK N   1      33.418  17.741   7.449  0.00  0.00     0.032 A 
HETATM   13  C   UNK N   1      32.081  17.595   7.850  0.00  0.00     0.020 A 
HETATM   14  C   UNK N   1      31.088  17.268   6.926  0.00  0.00     0.038 A 
HETATM   15  C   UNK N   1      31.410  17.095   5.579  0.00  0.00     0.078 A 
HETATM   16  C   UNK N   1      32.748  17.224   5.172  0.00  0.00     0.038 A 
HETATM   17  C   UNK N   1      33.742  17.534   6.101  0.00  0.00     0.020 A 
BRANCH  15  18
HETATM   18  O   UNK N   1      30.418  16.822   4.697  0.00  0.00    -0.255 OA
BRANCH  18  19
HETATM   19  C   UNK N   1      30.187  15.579   4.139  0.00  0.00     0.530 C 
HETATM   20  F   UNK N   1      30.544  14.592   5.042  0.00  0.00    -0.144 F 
HETATM   21  F   UNK N   1      28.854  15.435   3.793  0.00  0.00    -0.144 F 
HETATM   22  F   UNK N   1      30.961  15.445   3.003  0.00  0.00    -0.144 F 
ENDBRANCH  18  19
ENDBRANCH  15  18
ENDBRANCH   9  12
ENDBRANCH   7   8
ENDBRANCH   6   7
ENDBRANCH   5   6
ENDBRANCH   1   5
BRANCH   1  23
HETATM   23  O   UNK N   1      34.488  13.381  12.793  0.00  0.00    -0.307 OA
HETATM   24  H   UNK N   1      34.203  13.042  13.656  0.00  0.00     0.222 HD
ENDBRANCH   1  23
TORSDOF 8
ENDMDL
MODEL 6
REMARK VINA RESULT:      -5.9     16.509     17.782
REMARK  8 active torsions:
REMARK  status: ('A' for Active; 'I' for Inactive)
REMARK    1  A    between atoms: C_1  and  O_7 
REMARK    2  A    between atoms: C_4  and  C_12 
REMARK    3  A    between atoms: O_7  and  C_8 
REMARK       I    between atoms: C_12  and  N_13 
REMARK    4  A    between atoms: N_13  and  C_15 
REMARK    5  A    between atoms: C_15  and  C_16 
REMARK    6  A    between atoms: C_16  and  O_17 
REMARK    7  A    between atoms: O_17  and  P_18 
REMARK    8  A    between atoms: P_18  and  O_21 
ROOT
HETATM    1  P   UNK N   1      20.720  19.696   2.997  0.00  0.00     0.390 P 
HETATM    2  O   UNK N   1      19.372  18.618   2.808  0.00  0.00    -0.307 OA
HETATM    3  O   UNK N   1      21.219  20.035   1.569  0.00  0.00    -0.632 OA
HETATM    4  H   UNK N   1      18.592  18.044   2.750  0.00  0.00     0.222 HD
ENDROOT
BRANCH   1   5
HETATM    5  O   UNK N   1      22.054  18.938   3.814  0.00  0.00    -0.295 OA
BRANCH   5   6
HETATM    6  C   UNK N   1      21.521  18.378   4.980  0.00  0.00     0.200 C 
BRANCH   6   7
HETATM    7  C   UNK N   1      21.491  16.857   4.894  0.00  0.00     0.149 C 
BRANCH   7   8
HETATM    8  N   UNK N   1      20.130  16.376   4.855  0.00  0.00    -0.355 N 
HETATM    9  C   UNK N   1      19.567  15.542   5.769  0.00  0.00     0.251 C 
HETATM   10  O   UNK N   1      18.380  15.274   5.647  0.00  0.00    -0.268 OA
HETATM   11  H   UNK N   1      19.565  16.676   4.107  0.00  0.00     0.162 HD
BRANCH   9  12
HETATM   12  C   UNK N   1      20.318  14.942   6.914  0.00  0.00     0.032 A 
HETATM   13  C   UNK N   1      21.078  13.769   6.781  0.00  0.00     0.020 A 
HETATM   14  C   UNK N   1      21.777  13.242   7.868  0.00  0.00     0.038 A 
HETATM   15  C   UNK N   1      21.743  13.887   9.105  0.00  0.00     0.078 A 
HETATM   16  C   UNK N   1      20.974  15.053   9.250  0.00  0.00     0.038 A 
HETATM   17  C   UNK N   1      20.261  15.568   8.167  0.00  0.00     0.020 A 
BRANCH  15  18
HETATM   18  O   UNK N   1      22.469  13.378  10.131  0.00  0.00    -0.255 OA
BRANCH  18  19
HETATM   19  C   UNK N   1      22.090  12.288  10.891  0.00  0.00     0.530 C 
HETATM   20  F   UNK N   1      22.551  11.125  10.296  0.00  0.00    -0.144 F 
HETATM   21  F   UNK N   1      22.595  12.385  12.177  0.00  0.00    -0.144 F 
HETATM   22  F   UNK N   1      20.712  12.240  10.955  0.00  0.00    -0.144 F 
ENDBRANCH  18  19
ENDBRANCH  15  18
ENDBRANCH   9  12
ENDBRANCH   7   8
ENDBRANCH   6   7
ENDBRANCH   5   6
ENDBRANCH   1   5
BRANCH   1  23
HETATM   23  O   UNK N   1      20.264  21.195   3.742  0.00  0.00    -0.307 OA
HETATM   24  H   UNK N   1      20.876  21.754   4.246  0.00  0.00     0.222 HD
ENDBRANCH   1  23
TORSDOF 8
ENDMDL
MODEL 7
REMARK VINA RESULT:      -5.7      4.734      7.003
REMARK  8 active torsions:
REMARK  status: ('A' for Active; 'I' for Inactive)
REMARK    1  A    between atoms: C_1  and  O_7 
REMARK    2  A    between atoms: C_4  and  C_12 
REMARK    3  A    between atoms: O_7  and  C_8 
REMARK       I    between atoms: C_12  and  N_13 
REMARK    4  A    between atoms: N_13  and  C_15 
REMARK    5  A    between atoms: C_15  and  C_16 
REMARK    6  A    between atoms: C_16  and  O_17 
REMARK    7  A    between atoms: O_17  and  P_18 
REMARK    8  A    between atoms: P_18  and  O_21 
ROOT
HETATM    1  P   UNK N   1      25.565  24.122  -9.120  0.00  0.00     0.390 P 
HETATM    2  O   UNK N   1      27.029  23.384  -9.694  0.00  0.00    -0.307 OA
HETATM    3  O   UNK N   1      24.876  24.757 -10.355  0.00  0.00    -0.632 OA
HETATM    4  H   UNK N   1      27.836  22.926  -9.974  0.00  0.00     0.222 HD
ENDROOT
BRANCH   1   5
HETATM    5  O   UNK N   1      25.880  25.423  -8.012  0.00  0.00    -0.295 OA
BRANCH   5   6
HETATM    6  C   UNK N   1      26.952  25.002  -7.220  0.00  0.00     0.200 C 
BRANCH   6   7
HETATM    7  C   UNK N   1      26.463  24.223  -6.004  0.00  0.00     0.149 C 
BRANCH   7   8
HETATM    8  N   UNK N   1      26.036  25.124  -4.960  0.00  0.00    -0.355 N 
HETATM    9  C   UNK N   1      26.705  25.353  -3.799  0.00  0.00     0.251 C 
HETATM   10  O   UNK N   1      26.259  26.199  -3.037  0.00  0.00    -0.268 OA
HETATM   11  H   UNK N   1      25.192  25.612  -5.101  0.00  0.00     0.162 HD
BRANCH   9  12
HETATM   12  C   UNK N   1      27.955  24.632  -3.410  0.00  0.00     0.032 A 
HETATM   13  C   UNK N   1      29.229  25.068  -3.809  0.00  0.00     0.020 A 
HETATM   14  C   UNK N   1      30.377  24.378  -3.417  0.00  0.00     0.038 A 
HETATM   15  C   UNK N   1      30.275  23.248  -2.606  0.00  0.00     0.078 A 
HETATM   16  C   UNK N   1      29.005  22.796  -2.214  0.00  0.00     0.038 A 
HETATM   17  C   UNK N   1      27.857  23.477  -2.622  0.00  0.00     0.020 A 
BRANCH  15  18
HETATM   18  O   UNK N   1      31.410  22.625  -2.203  0.00  0.00    -0.255 OA
BRANCH  18  19
HETATM   19  C   UNK N   1      32.104  21.700  -2.959  0.00  0.00     0.530 C 
HETATM   20  F   UNK N   1      31.244  20.695  -3.367  0.00  0.00    -0.144 F 
HETATM   21  F   UNK N   1      32.679  22.301  -4.066  0.00  0.00    -0.144 F 
HETATM   22  F   UNK N   1      33.103  21.143  -2.184  0.00  0.00    -0.144 F 
ENDBRANCH  18  19
ENDBRANCH  15  18
ENDBRANCH   9  12
ENDBRANCH   7   8
ENDBRANCH   6   7
ENDBRANCH   5   6
ENDBRANCH   1   5
BRANCH   1  23
HETATM   23  O   UNK N   1      24.456  22.959  -8.465  0.00  0.00    -0.307 OA
HETATM   24  H   UNK N   1      24.376  22.049  -8.790  0.00  0.00     0.222 HD
ENDBRANCH   1  23
TORSDOF 8
ENDMDL
MODEL 8
REMARK VINA RESULT:      -5.6     16.472     17.803
REMARK  8 active torsions:
REMARK  status: ('A' for Active; 'I' for Inactive)
REMARK    1  A    between atoms: C_1  and  O_7 
REMARK    2  A    between atoms: C_4  and  C_12 
REMARK    3  A    between atoms: O_7  and  C_8 
REMARK       I    between atoms: C_12  and  N_13 
REMARK    4  A    between atoms: N_13  and  C_15 
REMARK    5  A    between atoms: C_15  and  C_16 
REMARK    6  A    between atoms: C_16  and  O_17 
REMARK    7  A    between atoms: O_17  and  P_18 
REMARK    8  A    between atoms: P_18  and  O_21 
ROOT
HETATM    1  P   UNK N   1      19.805  15.315   3.437  0.00  0.00     0.390 P 
HETATM    2  O   UNK N   1      19.043  16.715   4.126  0.00  0.00    -0.307 OA
HETATM    3  O   UNK N   1      19.666  14.177   4.481  0.00  0.00    -0.632 OA
HETATM    4  H   UNK N   1      18.596  17.511   4.455  0.00  0.00     0.222 HD
ENDROOT
BRANCH   1   5
HETATM    5  O   UNK N   1      21.510  15.552   3.195  0.00  0.00    -0.295 OA
BRANCH   5   6
HETATM    6  C   UNK N   1      21.738  16.918   3.382  0.00  0.00     0.200 C 
BRANCH   6   7
HETATM    7  C   UNK N   1      22.499  17.176   4.677  0.00  0.00     0.149 C 
BRANCH   7   8
HETATM    8  N   UNK N   1      21.816  18.162   5.481  0.00  0.00    -0.355 N 
HETATM    9  C   UNK N   1      21.226  17.922   6.682  0.00  0.00     0.251 C 
HETATM   10  O   UNK N   1      20.747  18.871   7.286  0.00  0.00    -0.268 OA
HETATM   11  H   UNK N   1      21.776  19.082   5.132  0.00  0.00     0.162 HD
BRANCH   9  12
HETATM   12  C   UNK N   1      21.138  16.565   7.304  0.00  0.00     0.032 A 
HETATM   13  C   UNK N   1      21.914  15.483   6.857  0.00  0.00     0.020 A 
HETATM   14  C   UNK N   1      21.816  14.232   7.469  0.00  0.00     0.038 A 
HETATM   15  C   UNK N   1      20.953  14.043   8.549  0.00  0.00     0.078 A 
HETATM   16  C   UNK N   1      20.163  15.116   8.992  0.00  0.00     0.038 A 
HETATM   17  C   UNK N   1      20.249  16.361   8.368  0.00  0.00     0.020 A 
BRANCH  15  18
HETATM   18  O   UNK N   1      20.912  12.830   9.152  0.00  0.00    -0.255 OA
BRANCH  18  19
HETATM   19  C   UNK N   1      21.761  12.432  10.167  0.00  0.00     0.530 C 
HETATM   20  F   UNK N   1      22.488  11.327   9.757  0.00  0.00    -0.144 F 
HETATM   21  F   UNK N   1      22.626  13.456  10.514  0.00  0.00    -0.144 F 
HETATM   22  F   UNK N   1      21.010  12.087  11.273  0.00  0.00    -0.144 F 
ENDBRANCH  18  19
ENDBRANCH  15  18
ENDBRANCH   9  12
ENDBRANCH   7   8
ENDBRANCH   6   7
ENDBRANCH   5   6
ENDBRANCH   1   5
BRANCH   1  23
HETATM   23  O   UNK N   1      19.008  14.776   1.993  0.00  0.00    -0.307 OA
HETATM   24  H   UNK N   1      19.247  13.966   1.517  0.00  0.00     0.222 HD
ENDBRANCH   1  23
TORSDOF 8
ENDMDL
MODEL 9
REMARK VINA RESULT:      -5.6     16.018     17.083
REMARK  8 active torsions:
REMARK  status: ('A' for Active; 'I' for Inactive)
REMARK    1  A    between atoms: C_1  and  O_7 
REMARK    2  A    between atoms: C_4  and  C_12 
REMARK    3  A    between atoms: O_7  and  C_8 
REMARK       I    between atoms: C_12  and  N_13 
REMARK    4  A    between atoms: N_13  and  C_15 
REMARK    5  A    between atoms: C_15  and  C_16 
REMARK    6  A    between atoms: C_16  and  O_17 
REMARK    7  A    between atoms: O_17  and  P_18 
REMARK    8  A    between atoms: P_18  and  O_21 
ROOT
HETATM    1  P   UNK N   1      23.198  12.146  11.071  0.00  0.00     0.390 P 
HETATM    2  O   UNK N   1      24.873  12.446  11.413  0.00  0.00    -0.307 OA
HETATM    3  O   UNK N   1      23.159  11.002  10.024  0.00  0.00    -0.632 OA
HETATM    4  H   UNK N   1      25.793  12.623  11.664  0.00  0.00     0.222 HD
ENDROOT
BRANCH   1   5
HETATM    5  O   UNK N   1      22.427  13.515  10.328  0.00  0.00    -0.295 OA
BRANCH   5   6
HETATM    6  C   UNK N   1      21.340  13.002   9.613  0.00  0.00     0.200 C 
BRANCH   6   7
HETATM    7  C   UNK N   1      20.877  13.982   8.542  0.00  0.00     0.149 C 
BRANCH   7   8
HETATM    8  N   UNK N   1      20.150  15.079   9.135  0.00  0.00    -0.355 N 
HETATM    9  C   UNK N   1      19.725  16.188   8.473  0.00  0.00     0.251 C 
HETATM   10  O   UNK N   1      19.056  17.005   9.090  0.00  0.00    -0.268 OA
HETATM   11  H   UNK N   1      19.945  15.019  10.096  0.00  0.00     0.162 HD
BRANCH   9  12
HETATM   12  C   UNK N   1      20.026  16.457   7.034  0.00  0.00     0.032 A 
HETATM   13  C   UNK N   1      19.235  15.944   5.993  0.00  0.00     0.020 A 
HETATM   14  C   UNK N   1      19.537  16.225   4.659  0.00  0.00     0.038 A 
HETATM   15  C   UNK N   1      20.625  17.038   4.341  0.00  0.00     0.078 A 
HETATM   16  C   UNK N   1      21.430  17.543   5.375  0.00  0.00     0.038 A 
HETATM   17  C   UNK N   1      21.137  17.246   6.707  0.00  0.00     0.020 A 
BRANCH  15  18
HETATM   18  O   UNK N   1      20.868  17.331   3.040  0.00  0.00    -0.255 OA
BRANCH  18  19
HETATM   19  C   UNK N   1      20.448  18.486   2.408  0.00  0.00     0.530 C 
HETATM   20  F   UNK N   1      19.213  18.865   2.907  0.00  0.00    -0.144 F 
HETATM   21  F   UNK N   1      21.361  19.509   2.594  0.00  0.00    -0.144 F 
HETATM   22  F   UNK N   1      20.324  18.238   1.055  0.00  0.00    -0.144 F 
ENDBRANCH  18  19
ENDBRANCH  15  18
ENDBRANCH   9  12
ENDBRANCH   7   8
ENDBRANCH   6   7
ENDBRANCH   5   6
ENDBRANCH   1   5
BRANCH   1  23
HETATM   23  O   UNK N   1      22.331  11.584  12.466  0.00  0.00    -0.307 OA
HETATM   24  H   UNK N   1      21.767  10.795  12.467  0.00  0.00     0.222 HD
ENDBRANCH   1  23
TORSDOF 8
ENDMDL
