REMARK  6 active torsions:
REMARK  status: ('A' for Active; 'I' for Inactive)
REMARK    1  A    between atoms: C_2  and  C_3 
REMARK    2  A    between atoms: C_6  and  N_13 
REMARK    3  A    between atoms: C_7  and  C_10 
REMARK    4  A    between atoms: C_10  and  O_12 
REMARK    5  A    between atoms: N_13  and  S_14 
REMARK    6  A    between atoms: S_14  and  C_17 
ROOT
HETATM    1  C   UNK N   1       2.846   1.943  -0.145  0.00  0.00    -0.051 A 
HETATM    2  C   UNK N   1       3.998   1.256   0.231  0.00  0.00     0.010 A 
HETATM    3  C   UNK N   1       3.926  -0.071   0.653  0.00  0.00     0.032 A 
HETATM    4  C   UNK N   1       2.695  -0.728   0.725  0.00  0.00     0.060 A 
HETATM    5  C   UNK N   1       1.509  -0.045   0.364  0.00  0.00     0.071 A 
HETATM    6  C   UNK N   1       1.593   1.298  -0.102  0.00  0.00    -0.036 A 
HETATM    7  C   UNK N   1       0.361   2.062  -0.487  0.00  0.00     0.050 C 
ENDROOT
BRANCH   4   8
HETATM    8  N   UNK N   1       2.684  -2.098   1.122  0.00  0.00    -0.280 N 
HETATM    9  H   UNK N   1       2.899  -2.327   2.056  0.00  0.00     0.179 HD
BRANCH   8  10
HETATM   10  S   UNK N   1       2.296  -3.401  -0.012  0.00  0.00     0.263 S 
HETATM   11  O   UNK N   1       2.683  -2.844  -1.391  0.00  0.00    -0.200 OA
HETATM   12  O   UNK N   1       3.411  -4.435   0.201  0.00  0.00    -0.200 OA
BRANCH  10  13
HETATM   13  C   UNK N   1       0.678  -4.192  -0.058  0.00  0.00     0.080 A 
HETATM   14  C   UNK N   1       0.263  -4.857  -1.218  0.00  0.00     0.028 A 
HETATM   15  C   UNK N   1      -1.010  -5.435  -1.280  0.00  0.00     0.044 A 
HETATM   16  C   UNK N   1      -1.876  -5.339  -0.186  0.00  0.00     0.116 A 
HETATM   17  C   UNK N   1      -1.457  -4.696   0.980  0.00  0.00     0.044 A 
HETATM   18  F   UNK N   1      -3.121  -5.870  -0.254  0.00  0.00    -0.206 F 
HETATM   19  C   UNK N   1      -0.178  -4.138   1.046  0.00  0.00     0.028 A 
ENDBRANCH  10  13
ENDBRANCH   8  10
ENDBRANCH   4   8
BRANCH   5  20
HETATM   20  C   UNK N   1       0.184  -0.693   0.540  0.00  0.00     0.179 C 
HETATM   21  O   UNK N   1      -0.780  -0.368  -0.119  0.00  0.00    -0.646 OA
BRANCH  20  22
HETATM   22  O   UNK N   1       0.021  -1.556   1.560  0.00  0.00    -0.773 OA
HETATM   23  H   UNK N   1      -0.557  -1.758   2.270  0.00  0.00     0.167 HD
ENDBRANCH  20  22
ENDBRANCH   5  20
BRANCH   1  24
HETATM   24  C   UNK N   1       2.975   3.379  -0.559  0.00  0.00     0.034 C 
HETATM   25  C   UNK N   1       2.299   4.294   0.452  0.00  0.00     0.010 C 
ENDBRANCH   1  24
TORSDOF 6
