MODEL 1
REMARK VINA RESULT:      -6.7      0.000      0.000
REMARK  6 active torsions:
REMARK  status: ('A' for Active; 'I' for Inactive)
REMARK    1  A    between atoms: C_2  and  C_3 
REMARK    2  A    between atoms: C_6  and  N_13 
REMARK    3  A    between atoms: C_7  and  C_10 
REMARK    4  A    between atoms: C_10  and  O_12 
REMARK    5  A    between atoms: N_13  and  S_14 
REMARK    6  A    between atoms: S_14  and  C_17 
ROOT
HETATM    1  C   UNK N   1      27.450  19.930   6.054  0.00  0.00    -0.051 A 
HETATM    2  C   UNK N   1      28.072  19.483   7.218  0.00  0.00     0.010 A 
HETATM    3  C   UNK N   1      28.845  18.322   7.208  0.00  0.00     0.032 A 
HETATM    4  C   UNK N   1      28.992  17.577   6.035  0.00  0.00     0.060 A 
HETATM    5  C   UNK N   1      28.355  18.002   4.845  0.00  0.00     0.071 A 
HETATM    6  C   UNK N   1      27.598  19.208   4.852  0.00  0.00    -0.036 A 
HETATM    7  C   UNK N   1      26.901  19.691   3.615  0.00  0.00     0.050 C 
ENDROOT
BRANCH   4   8
HETATM    8  N   UNK N   1      29.828  16.422   6.071  0.00  0.00    -0.280 N 
HETATM    9  H   UNK N   1      29.421  15.542   6.251  0.00  0.00     0.179 HD
BRANCH   8  10
HETATM   10  S   UNK N   1      31.575  16.519   5.801  0.00  0.00     0.263 S 
HETATM   11  O   UNK N   1      31.905  15.288   4.942  0.00  0.00    -0.200 OA
HETATM   12  O   UNK N   1      31.738  17.641   4.766  0.00  0.00    -0.200 OA
BRANCH  10  13
HETATM   13  C   UNK N   1      32.752  16.706   7.152  0.00  0.00     0.080 A 
HETATM   14  C   UNK N   1      32.832  15.722   8.145  0.00  0.00     0.028 A 
HETATM   15  C   UNK N   1      33.711  15.880   9.223  0.00  0.00     0.044 A 
HETATM   16  C   UNK N   1      34.502  17.029   9.317  0.00  0.00     0.116 A 
HETATM   17  C   UNK N   1      34.441  18.002   8.318  0.00  0.00     0.044 A 
HETATM   18  F   UNK N   1      35.331  17.200  10.376  0.00  0.00    -0.206 F 
HETATM   19  C   UNK N   1      33.578  17.831   7.233  0.00  0.00     0.028 A 
ENDBRANCH  10  13
ENDBRANCH   8  10
ENDBRANCH   4   8
BRANCH   5  20
HETATM   20  C   UNK N   1      28.411  17.163   3.620  0.00  0.00     0.179 C 
HETATM   21  O   UNK N   1      27.529  16.380   3.340  0.00  0.00    -0.646 OA
BRANCH  20  22
HETATM   22  O   UNK N   1      29.541  17.168   2.888  0.00  0.00    -0.773 OA
HETATM   23  H   UNK N   1      30.443  16.914   2.922  0.00  0.00     0.167 HD
ENDBRANCH  20  22
ENDBRANCH   5  20
BRANCH   1  24
HETATM   24  C   UNK N   1      26.603  21.166   6.127  0.00  0.00     0.034 C 
HETATM   25  C   UNK N   1      26.176  21.442   7.562  0.00  0.00     0.010 C 
ENDBRANCH   1  24
TORSDOF 6
ENDMDL
MODEL 2
REMARK VINA RESULT:      -6.6     12.527     15.009
REMARK  6 active torsions:
REMARK  status: ('A' for Active; 'I' for Inactive)
REMARK    1  A    between atoms: C_2  and  C_3 
REMARK    2  A    between atoms: C_6  and  N_13 
REMARK    3  A    between atoms: C_7  and  C_10 
REMARK    4  A    between atoms: C_10  and  O_12 
REMARK    5  A    between atoms: N_13  and  S_14 
REMARK    6  A    between atoms: S_14  and  C_17 
ROOT
HETATM    1  C   UNK N   1      26.932  29.079  -5.217  0.00  0.00    -0.051 A 
HETATM    2  C   UNK N   1      25.862  28.429  -4.607  0.00  0.00     0.010 A 
HETATM    3  C   UNK N   1      25.377  27.227  -5.121  0.00  0.00     0.032 A 
HETATM    4  C   UNK N   1      25.944  26.665  -6.268  0.00  0.00     0.060 A 
HETATM    5  C   UNK N   1      27.021  27.317  -6.915  0.00  0.00     0.071 A 
HETATM    6  C   UNK N   1      27.536  28.524  -6.363  0.00  0.00    -0.036 A 
HETATM    7  C   UNK N   1      28.671  29.252  -7.020  0.00  0.00     0.050 C 
ENDROOT
BRANCH   4   8
HETATM    8  N   UNK N   1      25.437  25.412  -6.726  0.00  0.00    -0.280 N 
HETATM    9  H   UNK N   1      24.605  25.397  -7.254  0.00  0.00     0.179 HD
BRANCH   8  10
HETATM   10  S   UNK N   1      26.258  23.883  -6.376  0.00  0.00     0.263 S 
HETATM   11  O   UNK N   1      25.127  22.847  -6.285  0.00  0.00    -0.200 OA
HETATM   12  O   UNK N   1      26.903  23.484  -7.711  0.00  0.00    -0.200 OA
BRANCH  10  13
HETATM   13  C   UNK N   1      27.422  23.701  -5.013  0.00  0.00     0.080 A 
HETATM   14  C   UNK N   1      28.711  23.215  -5.262  0.00  0.00     0.028 A 
HETATM   15  C   UNK N   1      29.608  23.027  -4.204  0.00  0.00     0.044 A 
HETATM   16  C   UNK N   1      29.213  23.313  -2.893  0.00  0.00     0.116 A 
HETATM   17  C   UNK N   1      27.936  23.819  -2.644  0.00  0.00     0.044 A 
HETATM   18  F   UNK N   1      30.068  23.102  -1.862  0.00  0.00    -0.206 F 
HETATM   19  C   UNK N   1      27.051  24.025  -3.705  0.00  0.00     0.028 A 
ENDBRANCH  10  13
ENDBRANCH   8  10
ENDBRANCH   4   8
BRANCH   5  20
HETATM   20  C   UNK N   1      27.560  26.790  -8.195  0.00  0.00     0.179 C 
HETATM   21  O   UNK N   1      26.967  26.927  -9.243  0.00  0.00    -0.646 OA
BRANCH  20  22
HETATM   22  O   UNK N   1      28.660  26.015  -8.159  0.00  0.00    -0.773 OA
HETATM   23  H   UNK N   1      28.930  25.117  -8.157  0.00  0.00     0.167 HD
ENDBRANCH  20  22
ENDBRANCH   5  20
BRANCH   1  24
HETATM   24  C   UNK N   1      27.393  30.387  -4.643  0.00  0.00     0.034 C 
HETATM   25  C   UNK N   1      26.357  30.947  -3.679  0.00  0.00     0.010 C 
ENDBRANCH   1  24
TORSDOF 6
ENDMDL
MODEL 3
REMARK VINA RESULT:      -6.5      8.979     11.704
REMARK  6 active torsions:
REMARK  status: ('A' for Active; 'I' for Inactive)
REMARK    1  A    between atoms: C_2  and  C_3 
REMARK    2  A    between atoms: C_6  and  N_13 
REMARK    3  A    between atoms: C_7  and  C_10 
REMARK    4  A    between atoms: C_10  and  O_12 
REMARK    5  A    between atoms: N_13  and  S_14 
REMARK    6  A    between atoms: S_14  and  C_17 
ROOT
HETATM    1  C   UNK N   1      22.208  13.481   9.463  0.00  0.00    -0.051 A 
HETATM    2  C   UNK N   1      20.980  14.066   9.763  0.00  0.00     0.010 A 
HETATM    3  C   UNK N   1      20.396  14.977   8.883  0.00  0.00     0.032 A 
HETATM    4  C   UNK N   1      21.040  15.333   7.696  0.00  0.00     0.060 A 
HETATM    5  C   UNK N   1      22.297  14.763   7.378  0.00  0.00     0.071 A 
HETATM    6  C   UNK N   1      22.871  13.806   8.261  0.00  0.00    -0.036 A 
HETATM    7  C   UNK N   1      24.204  13.183   7.968  0.00  0.00     0.050 C 
ENDROOT
BRANCH   4   8
HETATM    8  N   UNK N   1      20.377  16.236   6.813  0.00  0.00    -0.280 N 
HETATM    9  H   UNK N   1      20.471  17.205   6.962  0.00  0.00     0.179 HD
BRANCH   8  10
HETATM   10  S   UNK N   1      19.391  15.668   5.457  0.00  0.00     0.263 S 
HETATM   11  O   UNK N   1      19.384  14.138   5.595  0.00  0.00    -0.200 OA
HETATM   12  O   UNK N   1      17.950  15.999   5.870  0.00  0.00    -0.200 OA
BRANCH  10  13
HETATM   13  C   UNK N   1      19.709  16.168   3.755  0.00  0.00     0.080 A 
HETATM   14  C   UNK N   1      19.719  17.528   3.422  0.00  0.00     0.028 A 
HETATM   15  C   UNK N   1      19.919  17.925   2.095  0.00  0.00     0.044 A 
HETATM   16  C   UNK N   1      20.097  16.962   1.096  0.00  0.00     0.116 A 
HETATM   17  C   UNK N   1      20.110  15.607   1.429  0.00  0.00     0.044 A 
HETATM   18  F   UNK N   1      20.259  17.342  -0.195  0.00  0.00    -0.206 F 
HETATM   19  C   UNK N   1      19.930  15.214   2.757  0.00  0.00     0.028 A 
ENDBRANCH  10  13
ENDBRANCH   8  10
ENDBRANCH   4   8
BRANCH   5  20
HETATM   20  C   UNK N   1      23.044  15.213   6.176  0.00  0.00     0.179 C 
HETATM   21  O   UNK N   1      22.848  14.730   5.082  0.00  0.00    -0.646 OA
BRANCH  20  22
HETATM   22  O   UNK N   1      24.067  16.073   6.340  0.00  0.00    -0.773 OA
HETATM   23  H   UNK N   1      24.253  16.963   6.571  0.00  0.00     0.167 HD
ENDBRANCH  20  22
ENDBRANCH   5  20
BRANCH   1  24
HETATM   24  C   UNK N   1      22.809  12.533  10.458  0.00  0.00     0.034 C 
HETATM   25  C   UNK N   1      21.769  12.093  11.479  0.00  0.00     0.010 C 
ENDBRANCH   1  24
TORSDOF 6
ENDMDL
MODEL 4
REMARK VINA RESULT:      -6.4      8.743     10.124
REMARK  6 active torsions:
REMARK  status: ('A' for Active; 'I' for Inactive)
REMARK    1  A    between atoms: C_2  and  C_3 
REMARK    2  A    between atoms: C_6  and  N_13 
REMARK    3  A    between atoms: C_7  and  C_10 
REMARK    4  A    between atoms: C_10  and  O_12 
REMARK    5  A    between atoms: N_13  and  S_14 
REMARK    6  A    between atoms: S_14  and  C_17 
ROOT
HETATM    1  C   UNK N   1      21.415  18.271   4.368  0.00  0.00    -0.051 A 
HETATM    2  C   UNK N   1      22.136  18.254   5.560  0.00  0.00     0.010 A 
HETATM    3  C   UNK N   1      21.796  17.367   6.581  0.00  0.00     0.032 A 
HETATM    4  C   UNK N   1      20.714  16.496   6.434  0.00  0.00     0.060 A 
HETATM    5  C   UNK N   1      19.956  16.507   5.239  0.00  0.00     0.071 A 
HETATM    6  C   UNK N   1      20.332  17.388   4.185  0.00  0.00    -0.036 A 
HETATM    7  C   UNK N   1      19.552  17.439   2.904  0.00  0.00     0.050 C 
ENDROOT
BRANCH   4   8
HETATM    8  N   UNK N   1      20.437  15.581   7.493  0.00  0.00    -0.280 N 
HETATM    9  H   UNK N   1      19.801  15.843   8.198  0.00  0.00     0.179 HD
BRANCH   8  10
HETATM   10  S   UNK N   1      21.201  13.986   7.579  0.00  0.00     0.263 S 
HETATM   11  O   UNK N   1      20.222  13.046   6.858  0.00  0.00    -0.200 OA
HETATM   12  O   UNK N   1      22.340  14.054   6.551  0.00  0.00    -0.200 OA
BRANCH  10  13
HETATM   13  C   UNK N   1      21.769  13.270   9.131  0.00  0.00     0.080 A 
HETATM   14  C   UNK N   1      23.135  13.030   9.326  0.00  0.00     0.028 A 
HETATM   15  C   UNK N   1      23.582  12.432  10.510  0.00  0.00     0.044 A 
HETATM   16  C   UNK N   1      22.663  12.061  11.497  0.00  0.00     0.116 A 
HETATM   17  C   UNK N   1      21.303  12.318  11.315  0.00  0.00     0.044 A 
HETATM   18  F   UNK N   1      23.089  11.452  12.630  0.00  0.00    -0.206 F 
HETATM   19  C   UNK N   1      20.862  12.934  10.141  0.00  0.00     0.028 A 
ENDBRANCH  10  13
ENDBRANCH   8  10
ENDBRANCH   4   8
BRANCH   5  20
HETATM   20  C   UNK N   1      18.739  15.666   5.111  0.00  0.00     0.179 C 
HETATM   21  O   UNK N   1      17.731  15.898   5.744  0.00  0.00    -0.646 OA
BRANCH  20  22
HETATM   22  O   UNK N   1      18.813  14.534   4.387  0.00  0.00    -0.773 OA
HETATM   23  H   UNK N   1      18.520  14.152   3.582  0.00  0.00     0.167 HD
ENDBRANCH  20  22
ENDBRANCH   5  20
BRANCH   1  24
HETATM   24  C   UNK N   1      21.802  19.267   3.315  0.00  0.00     0.034 C 
HETATM   25  C   UNK N   1      23.275  19.630   3.431  0.00  0.00     0.010 C 
ENDBRANCH   1  24
TORSDOF 6
ENDMDL
MODEL 5
REMARK VINA RESULT:      -6.3      7.253      9.097
REMARK  6 active torsions:
REMARK  status: ('A' for Active; 'I' for Inactive)
REMARK    1  A    between atoms: C_2  and  C_3 
REMARK    2  A    between atoms: C_6  and  N_13 
REMARK    3  A    between atoms: C_7  and  C_10 
REMARK    4  A    between atoms: C_10  and  O_12 
REMARK    5  A    between atoms: N_13  and  S_14 
REMARK    6  A    between atoms: S_14  and  C_17 
ROOT
HETATM    1  C   UNK N   1      25.210  18.779   4.177  0.00  0.00    -0.051 A 
HETATM    2  C   UNK N   1      25.242  17.582   4.888  0.00  0.00     0.010 A 
HETATM    3  C   UNK N   1      24.066  16.876   5.141  0.00  0.00     0.032 A 
HETATM    4  C   UNK N   1      22.834  17.367   4.702  0.00  0.00     0.060 A 
HETATM    5  C   UNK N   1      22.775  18.590   3.992  0.00  0.00     0.071 A 
HETATM    6  C   UNK N   1      23.983  19.288   3.705  0.00  0.00    -0.036 A 
HETATM    7  C   UNK N   1      23.966  20.591   2.963  0.00  0.00     0.050 C 
ENDROOT
BRANCH   4   8
HETATM    8  N   UNK N   1      21.668  16.584   4.950  0.00  0.00    -0.280 N 
HETATM    9  H   UNK N   1      21.258  16.087   4.205  0.00  0.00     0.179 HD
BRANCH   8  10
HETATM   10  S   UNK N   1      20.934  16.475   6.558  0.00  0.00     0.263 S 
HETATM   11  O   UNK N   1      21.082  17.887   7.148  0.00  0.00    -0.200 OA
HETATM   12  O   UNK N   1      19.424  16.437   6.284  0.00  0.00    -0.200 OA
BRANCH  10  13
HETATM   13  C   UNK N   1      21.409  15.214   7.754  0.00  0.00     0.080 A 
HETATM   14  C   UNK N   1      20.592  14.968   8.864  0.00  0.00     0.028 A 
HETATM   15  C   UNK N   1      20.975  14.023   9.823  0.00  0.00     0.044 A 
HETATM   16  C   UNK N   1      22.181  13.330   9.680  0.00  0.00     0.116 A 
HETATM   17  C   UNK N   1      22.987  13.558   8.563  0.00  0.00     0.044 A 
HETATM   18  F   UNK N   1      22.570  12.438  10.622  0.00  0.00    -0.206 F 
HETATM   19  C   UNK N   1      22.592  14.487   7.597  0.00  0.00     0.028 A 
ENDBRANCH  10  13
ENDBRANCH   8  10
ENDBRANCH   4   8
BRANCH   5  20
HETATM   20  C   UNK N   1      21.465  19.180   3.617  0.00  0.00     0.179 C 
HETATM   21  O   UNK N   1      20.841  19.890   4.376  0.00  0.00    -0.646 OA
BRANCH  20  22
HETATM   22  O   UNK N   1      20.892  18.792   2.462  0.00  0.00    -0.773 OA
HETATM   23  H   UNK N   1      21.046  18.756   1.538  0.00  0.00     0.167 HD
ENDBRANCH  20  22
ENDBRANCH   5  20
BRANCH   1  24
HETATM   24  C   UNK N   1      26.499  19.515   3.962  0.00  0.00     0.034 C 
HETATM   25  C   UNK N   1      26.901  20.277   5.217  0.00  0.00     0.010 C 
ENDBRANCH   1  24
TORSDOF 6
ENDMDL
MODEL 6
REMARK VINA RESULT:      -6.3      7.146     10.382
REMARK  6 active torsions:
REMARK  status: ('A' for Active; 'I' for Inactive)
REMARK    1  A    between atoms: C_2  and  C_3 
REMARK    2  A    between atoms: C_6  and  N_13 
REMARK    3  A    between atoms: C_7  and  C_10 
REMARK    4  A    between atoms: C_10  and  O_12 
REMARK    5  A    between atoms: N_13  and  S_14 
REMARK    6  A    between atoms: S_14  and  C_17 
ROOT
HETATM    1  C   UNK N   1      35.300  12.870  15.552  0.00  0.00    -0.051 A 
HETATM    2  C   UNK N   1      36.189  13.928  15.380  0.00  0.00     0.010 A 
HETATM    3  C   UNK N   1      36.636  14.280  14.107  0.00  0.00     0.032 A 
HETATM    4  C   UNK N   1      36.215  13.563  12.984  0.00  0.00     0.060 A 
HETATM    5  C   UNK N   1      35.325  12.473  13.135  0.00  0.00     0.071 A 
HETATM    6  C   UNK N   1      34.843  12.143  14.433  0.00  0.00    -0.036 A 
HETATM    7  C   UNK N   1      33.905  10.991  14.640  0.00  0.00     0.050 C 
ENDROOT
BRANCH   4   8
HETATM    8  N   UNK N   1      36.670  13.993  11.702  0.00  0.00    -0.280 N 
HETATM    9  H   UNK N   1      37.529  13.652  11.360  0.00  0.00     0.179 HD
BRANCH   8  10
HETATM   10  S   UNK N   1      35.737  15.119  10.704  0.00  0.00     0.263 S 
HETATM   11  O   UNK N   1      34.358  15.185  11.378  0.00  0.00    -0.200 OA
HETATM   12  O   UNK N   1      36.298  16.502  11.067  0.00  0.00    -0.200 OA
BRANCH  10  13
HETATM   13  C   UNK N   1      35.584  14.930   8.919  0.00  0.00     0.080 A 
HETATM   14  C   UNK N   1      36.284  13.908   8.266  0.00  0.00     0.028 A 
HETATM   15  C   UNK N   1      36.208  13.781   6.875  0.00  0.00     0.044 A 
HETATM   16  C   UNK N   1      35.441  14.683   6.131  0.00  0.00     0.116 A 
HETATM   17  C   UNK N   1      34.725  15.690   6.780  0.00  0.00     0.044 A 
HETATM   18  F   UNK N   1      35.391  14.583   4.780  0.00  0.00    -0.206 F 
HETATM   19  C   UNK N   1      34.786  15.801   8.171  0.00  0.00     0.028 A 
ENDBRANCH  10  13
ENDBRANCH   8  10
ENDBRANCH   4   8
BRANCH   5  20
HETATM   20  C   UNK N   1      34.957  11.635  11.965  0.00  0.00     0.179 C 
HETATM   21  O   UNK N   1      35.528  10.595  11.718  0.00  0.00    -0.646 OA
BRANCH  20  22
HETATM   22  O   UNK N   1      34.068  12.122  11.080  0.00  0.00    -0.773 OA
HETATM   23  H   UNK N   1      33.147  12.225  10.940  0.00  0.00     0.167 HD
ENDBRANCH  20  22
ENDBRANCH   5  20
BRANCH   1  24
HETATM   24  C   UNK N   1      34.876  12.512  16.946  0.00  0.00     0.034 C 
HETATM   25  C   UNK N   1      35.179  13.650  17.909  0.00  0.00     0.010 C 
ENDBRANCH   1  24
TORSDOF 6
ENDMDL
MODEL 7
REMARK VINA RESULT:      -6.3      2.826      6.159
REMARK  6 active torsions:
REMARK  status: ('A' for Active; 'I' for Inactive)
REMARK    1  A    between atoms: C_2  and  C_3 
REMARK    2  A    between atoms: C_6  and  N_13 
REMARK    3  A    between atoms: C_7  and  C_10 
REMARK    4  A    between atoms: C_10  and  O_12 
REMARK    5  A    between atoms: N_13  and  S_14 
REMARK    6  A    between atoms: S_14  and  C_17 
ROOT
HETATM    1  C   UNK N   1      32.558  17.485   7.249  0.00  0.00    -0.051 A 
HETATM    2  C   UNK N   1      31.446  17.292   8.066  0.00  0.00     0.010 A 
HETATM    3  C   UNK N   1      30.290  16.697   7.561  0.00  0.00     0.032 A 
HETATM    4  C   UNK N   1      30.220  16.303   6.223  0.00  0.00     0.060 A 
HETATM    5  C   UNK N   1      31.332  16.504   5.369  0.00  0.00     0.071 A 
HETATM    6  C   UNK N   1      32.522  17.077   5.900  0.00  0.00    -0.036 A 
HETATM    7  C   UNK N   1      33.720  17.316   5.030  0.00  0.00     0.050 C 
ENDROOT
BRANCH   4   8
HETATM    8  N   UNK N   1      29.030  15.661   5.770  0.00  0.00    -0.280 N 
HETATM    9  H   UNK N   1      28.959  14.680   5.840  0.00  0.00     0.179 HD
BRANCH   8  10
HETATM   10  S   UNK N   1      27.674  16.571   5.086  0.00  0.00     0.263 S 
HETATM   11  O   UNK N   1      27.667  16.196   3.596  0.00  0.00    -0.200 OA
HETATM   12  O   UNK N   1      26.427  15.820   5.575  0.00  0.00    -0.200 OA
BRANCH  10  13
HETATM   13  C   UNK N   1      27.491  18.349   5.313  0.00  0.00     0.080 A 
HETATM   14  C   UNK N   1      27.732  18.917   6.570  0.00  0.00     0.028 A 
HETATM   15  C   UNK N   1      27.548  20.290   6.768  0.00  0.00     0.044 A 
HETATM   16  C   UNK N   1      27.112  21.097   5.712  0.00  0.00     0.116 A 
HETATM   17  C   UNK N   1      26.893  20.537   4.452  0.00  0.00     0.044 A 
HETATM   18  F   UNK N   1      26.903  22.421   5.908  0.00  0.00    -0.206 F 
HETATM   19  C   UNK N   1      27.097  19.170   4.253  0.00  0.00     0.028 A 
ENDBRANCH  10  13
ENDBRANCH   8  10
ENDBRANCH   4   8
BRANCH   5  20
HETATM   20  C   UNK N   1      31.234  16.192   3.920  0.00  0.00     0.179 C 
HETATM   21  O   UNK N   1      31.822  15.254   3.427  0.00  0.00    -0.646 OA
BRANCH  20  22
HETATM   22  O   UNK N   1      30.597  17.064   3.117  0.00  0.00    -0.773 OA
HETATM   23  H   UNK N   1      30.138  17.115   2.301  0.00  0.00     0.167 HD
ENDBRANCH  20  22
ENDBRANCH   5  20
BRANCH   1  24
HETATM   24  C   UNK N   1      33.764  18.159   7.833  0.00  0.00     0.034 C 
HETATM   25  C   UNK N   1      34.387  17.299   8.923  0.00  0.00     0.010 C 
ENDBRANCH   1  24
TORSDOF 6
ENDMDL
MODEL 8
REMARK VINA RESULT:      -6.3     14.125     16.378
REMARK  6 active torsions:
REMARK  status: ('A' for Active; 'I' for Inactive)
REMARK    1  A    between atoms: C_2  and  C_3 
REMARK    2  A    between atoms: C_6  and  N_13 
REMARK    3  A    between atoms: C_7  and  C_10 
REMARK    4  A    between atoms: C_10  and  O_12 
REMARK    5  A    between atoms: N_13  and  S_14 
REMARK    6  A    between atoms: S_14  and  C_17 
ROOT
HETATM    1  C   UNK N   1      28.554  21.889  -6.962  0.00  0.00    -0.051 A 
HETATM    2  C   UNK N   1      28.662  22.772  -5.889  0.00  0.00     0.010 A 
HETATM    3  C   UNK N   1      27.623  23.653  -5.590  0.00  0.00     0.032 A 
HETATM    4  C   UNK N   1      26.466  23.680  -6.371  0.00  0.00     0.060 A 
HETATM    5  C   UNK N   1      26.341  22.803  -7.476  0.00  0.00     0.071 A 
HETATM    6  C   UNK N   1      27.388  21.880  -7.755  0.00  0.00    -0.036 A 
HETATM    7  C   UNK N   1      27.301  20.939  -8.920  0.00  0.00     0.050 C 
ENDROOT
BRANCH   4   8
HETATM    8  N   UNK N   1      25.417  24.570  -5.994  0.00  0.00    -0.280 N 
HETATM    9  H   UNK N   1      24.495  24.228  -5.940  0.00  0.00     0.179 HD
BRANCH   8  10
HETATM   10  S   UNK N   1      25.722  26.274  -5.620  0.00  0.00     0.263 S 
HETATM   11  O   UNK N   1      24.335  26.933  -5.655  0.00  0.00    -0.200 OA
HETATM   12  O   UNK N   1      26.005  26.287  -4.111  0.00  0.00    -0.200 OA
BRANCH  10  13
HETATM   13  C   UNK N   1      26.936  27.258  -6.516  0.00  0.00     0.080 A 
HETATM   14  C   UNK N   1      27.403  28.456  -5.964  0.00  0.00     0.028 A 
HETATM   15  C   UNK N   1      28.311  29.251  -6.672  0.00  0.00     0.044 A 
HETATM   16  C   UNK N   1      28.745  28.854  -7.941  0.00  0.00     0.116 A 
HETATM   17  C   UNK N   1      28.299  27.649  -8.486  0.00  0.00     0.044 A 
HETATM   18  F   UNK N   1      29.600  29.637  -8.644  0.00  0.00    -0.206 F 
HETATM   19  C   UNK N   1      27.408  26.848  -7.767  0.00  0.00     0.028 A 
ENDBRANCH  10  13
ENDBRANCH   8  10
ENDBRANCH   4   8
BRANCH   5  20
HETATM   20  C   UNK N   1      25.166  22.896  -8.381  0.00  0.00     0.179 C 
HETATM   21  O   UNK N   1      25.118  23.699  -9.287  0.00  0.00    -0.646 OA
BRANCH  20  22
HETATM   22  O   UNK N   1      24.071  22.169  -8.089  0.00  0.00    -0.773 OA
HETATM   23  H   UNK N   1      23.491  21.961  -7.382  0.00  0.00     0.167 HD
ENDBRANCH  20  22
ENDBRANCH   5  20
BRANCH   1  24
HETATM   24  C   UNK N   1      29.713  20.986  -7.261  0.00  0.00     0.034 C 
HETATM   25  C   UNK N   1      30.422  20.575  -5.978  0.00  0.00     0.010 C 
ENDBRANCH   1  24
TORSDOF 6
ENDMDL
MODEL 9
REMARK VINA RESULT:      -6.3      7.382      9.637
REMARK  6 active torsions:
REMARK  status: ('A' for Active; 'I' for Inactive)
REMARK    1  A    between atoms: C_2  and  C_3 
REMARK    2  A    between atoms: C_6  and  N_13 
REMARK    3  A    between atoms: C_7  and  C_10 
REMARK    4  A    between atoms: C_10  and  O_12 
REMARK    5  A    between atoms: N_13  and  S_14 
REMARK    6  A    between atoms: S_14  and  C_17 
ROOT
HETATM    1  C   UNK N   1      22.491  14.311   7.569  0.00  0.00    -0.051 A 
HETATM    2  C   UNK N   1      23.142  14.926   6.501  0.00  0.00     0.010 A 
HETATM    3  C   UNK N   1      22.747  16.189   6.063  0.00  0.00     0.032 A 
HETATM    4  C   UNK N   1      21.679  16.852   6.674  0.00  0.00     0.060 A 
HETATM    5  C   UNK N   1      20.993  16.240   7.750  0.00  0.00     0.071 A 
HETATM    6  C   UNK N   1      21.424  14.966   8.217  0.00  0.00    -0.036 A 
HETATM    7  C   UNK N   1      20.720  14.278   9.349  0.00  0.00     0.050 C 
ENDROOT
BRANCH   4   8
HETATM    8  N   UNK N   1      21.346  18.160   6.214  0.00  0.00    -0.280 N 
HETATM    9  H   UNK N   1      20.887  18.780   6.827  0.00  0.00     0.179 HD
BRANCH   8  10
HETATM   10  S   UNK N   1      21.729  18.705   4.573  0.00  0.00     0.263 S 
HETATM   11  O   UNK N   1      21.170  17.604   3.658  0.00  0.00    -0.200 OA
HETATM   12  O   UNK N   1      20.726  19.836   4.304  0.00  0.00    -0.200 OA
BRANCH  10  13
HETATM   13  C   UNK N   1      23.394  19.182   4.078  0.00  0.00     0.080 A 
HETATM   14  C   UNK N   1      24.500  18.603   4.712  0.00  0.00     0.028 A 
HETATM   15  C   UNK N   1      25.797  19.000   4.367  0.00  0.00     0.044 A 
HETATM   16  C   UNK N   1      25.990  19.988   3.396  0.00  0.00     0.116 A 
HETATM   17  C   UNK N   1      24.891  20.552   2.747  0.00  0.00     0.044 A 
HETATM   18  F   UNK N   1      27.243  20.398   3.082  0.00  0.00    -0.206 F 
HETATM   19  C   UNK N   1      23.599  20.138   3.079  0.00  0.00     0.028 A 
ENDBRANCH  10  13
ENDBRANCH   8  10
ENDBRANCH   4   8
BRANCH   5  20
HETATM   20  C   UNK N   1      19.788  16.882   8.336  0.00  0.00     0.179 C 
HETATM   21  O   UNK N   1      18.668  16.501   8.075  0.00  0.00    -0.646 OA
BRANCH  20  22
HETATM   22  O   UNK N   1      19.947  18.008   9.057  0.00  0.00    -0.773 OA
HETATM   23  H   UNK N   1      20.058  18.311   9.937  0.00  0.00     0.167 HD
ENDBRANCH  20  22
ENDBRANCH   5  20
BRANCH   1  24
HETATM   24  C   UNK N   1      22.934  12.938   7.978  0.00  0.00     0.034 C 
HETATM   25  C   UNK N   1      24.191  13.009   8.833  0.00  0.00     0.010 C 
ENDBRANCH   1  24
TORSDOF 6
ENDMDL
