MODEL 1
REMARK VINA RESULT:      -7.7      0.000      0.000
REMARK  5 active torsions:
REMARK  status: ('A' for Active; 'I' for Inactive)
REMARK    1  A    between atoms: O_1  and  C_2 
REMARK    2  A    between atoms: C_3  and  C_2 
REMARK    3  A    between atoms: C_8  and  S_13 
REMARK    4  A    between atoms: S_13  and  N_16 
REMARK    5  A    between atoms: N_16  and  C_17 
ROOT
HETATM    1  C   UNK N   1      20.832  19.682   1.824  0.00  0.00     0.104 C 
HETATM    2  N   UNK N   1      19.499  19.341   2.326  0.00  0.00    -0.411 N 
HETATM    3  C   UNK N   1      19.507  17.969   2.838  0.00  0.00     0.153 C 
HETATM    4  C   UNK N   1      20.499  17.824   3.951  0.00  0.00    -0.033 A 
HETATM    5  C   UNK N   1      20.277  16.881   4.957  0.00  0.00     0.034 A 
HETATM    6  C   UNK N   1      21.178  16.760   6.021  0.00  0.00     0.080 A 
HETATM    7  C   UNK N   1      22.301  17.591   6.076  0.00  0.00     0.026 A 
HETATM    8  C   UNK N   1      22.528  18.537   5.071  0.00  0.00     0.009 A 
HETATM    9  C   UNK N   1      21.627  18.663   4.009  0.00  0.00    -0.048 A 
HETATM   10  C   UNK N   1      21.844  19.737   2.980  0.00  0.00     0.066 C 
HETATM   11  H   UNK N   1      18.690  19.962   2.318  0.00  0.00     0.154 HD
ENDROOT
BRANCH   6  12
HETATM   12  S   UNK N   1      20.799  15.652   7.379  0.00  0.00     0.263 S 
HETATM   13  O   UNK N   1      21.052  16.317   8.739  0.00  0.00    -0.200 OA
HETATM   14  O   UNK N   1      19.287  15.395   7.471  0.00  0.00    -0.200 OA
BRANCH  12  15
HETATM   15  N   UNK N   1      21.503  14.047   7.526  0.00  0.00    -0.281 N 
HETATM   16  H   UNK N   1      21.632  13.517   6.706  0.00  0.00     0.179 HD
BRANCH  15  17
HETATM   17  C   UNK N   1      21.892  13.477   8.759  0.00  0.00     0.042 A 
HETATM   18  C   UNK N   1      20.907  13.113   9.687  0.00  0.00     0.032 A 
HETATM   19  C   UNK N   1      21.267  12.560  10.918  0.00  0.00     0.026 A 
HETATM   20  C   UNK N   1      22.615  12.357  11.227  0.00  0.00     0.034 A 
HETATM   21  C   UNK N   1      23.604  12.712  10.304  0.00  0.00     0.026 A 
HETATM   22 Cl   UNK N   1      23.065  11.659  12.767  0.00  0.00    -0.084 Cl
HETATM   23  C   UNK N   1      23.244  13.277   9.078  0.00  0.00     0.032 A 
ENDBRANCH  15  17
ENDBRANCH  12  15
ENDBRANCH   6  12
BRANCH   1  24
HETATM   24  C   UNK N   1      20.761  21.042   1.142  0.00  0.00     0.189 C 
BRANCH  24  25
HETATM   25  O   UNK N   1      20.698  20.899  -0.245  0.00  0.00    -0.399 OA
HETATM   26  H   UNK N   1      21.453  20.955  -0.852  0.00  0.00     0.209 HD
ENDBRANCH  24  25
ENDBRANCH   1  24
TORSDOF 5
ENDMDL
MODEL 2
REMARK VINA RESULT:      -7.4     15.494     17.002
REMARK  5 active torsions:
REMARK  status: ('A' for Active; 'I' for Inactive)
REMARK    1  A    between atoms: O_1  and  C_2 
REMARK    2  A    between atoms: C_3  and  C_2 
REMARK    3  A    between atoms: C_8  and  S_13 
REMARK    4  A    between atoms: S_13  and  N_16 
REMARK    5  A    between atoms: N_16  and  C_17 
ROOT
HETATM    1  C   UNK N   1      32.475  21.818  -4.047  0.00  0.00     0.104 C 
HETATM    2  N   UNK N   1      31.499  22.424  -3.138  0.00  0.00    -0.411 N 
HETATM    3  C   UNK N   1      30.699  23.410  -3.868  0.00  0.00     0.153 C 
HETATM    4  C   UNK N   1      29.969  22.763  -5.005  0.00  0.00    -0.033 A 
HETATM    5  C   UNK N   1      28.748  23.290  -5.431  0.00  0.00     0.034 A 
HETATM    6  C   UNK N   1      28.039  22.675  -6.469  0.00  0.00     0.080 A 
HETATM    7  C   UNK N   1      28.556  21.526  -7.076  0.00  0.00     0.026 A 
HETATM    8  C   UNK N   1      29.778  20.995  -6.653  0.00  0.00     0.009 A 
HETATM    9  C   UNK N   1      30.487  21.606  -5.613  0.00  0.00    -0.048 A 
HETATM   10  C   UNK N   1      31.760  20.977  -5.118  0.00  0.00     0.066 C 
HETATM   11  H   UNK N   1      31.395  22.197  -2.149  0.00  0.00     0.154 HD
ENDROOT
BRANCH   6  12
HETATM   12  S   UNK N   1      26.404  23.274  -6.900  0.00  0.00     0.263 S 
HETATM   13  O   UNK N   1      26.455  24.264  -8.072  0.00  0.00    -0.200 OA
HETATM   14  O   UNK N   1      25.556  22.153  -7.519  0.00  0.00    -0.200 OA
BRANCH  12  15
HETATM   15  N   UNK N   1      25.322  24.018  -5.731  0.00  0.00    -0.281 N 
HETATM   16  H   UNK N   1      24.506  23.531  -5.475  0.00  0.00     0.179 HD
BRANCH  15  17
HETATM   17  C   UNK N   1      25.562  25.279  -5.139  0.00  0.00     0.042 A 
HETATM   18  C   UNK N   1      25.048  26.431  -5.750  0.00  0.00     0.032 A 
HETATM   19  C   UNK N   1      25.283  27.690  -5.193  0.00  0.00     0.026 A 
HETATM   20  C   UNK N   1      26.024  27.806  -4.014  0.00  0.00     0.034 A 
HETATM   21  C   UNK N   1      26.536  26.661  -3.395  0.00  0.00     0.026 A 
HETATM   22 Cl   UNK N   1      26.313  29.383  -3.313  0.00  0.00    -0.084 Cl
HETATM   23  C   UNK N   1      26.312  25.403  -3.960  0.00  0.00     0.032 A 
ENDBRANCH  15  17
ENDBRANCH  12  15
ENDBRANCH   6  12
BRANCH   1  24
HETATM   24  C   UNK N   1      33.405  20.927  -3.236  0.00  0.00     0.189 C 
BRANCH  24  25
HETATM   25  O   UNK N   1      33.058  20.947  -1.884  0.00  0.00    -0.399 OA
HETATM   26  H   UNK N   1      33.084  21.726  -1.307  0.00  0.00     0.209 HD
ENDBRANCH  24  25
ENDBRANCH   1  24
TORSDOF 5
ENDMDL
MODEL 3
REMARK VINA RESULT:      -7.2      4.011      9.326
REMARK  5 active torsions:
REMARK  status: ('A' for Active; 'I' for Inactive)
REMARK    1  A    between atoms: O_1  and  C_2 
REMARK    2  A    between atoms: C_3  and  C_2 
REMARK    3  A    between atoms: C_8  and  S_13 
REMARK    4  A    between atoms: S_13  and  N_16 
REMARK    5  A    between atoms: N_16  and  C_17 
ROOT
HETATM    1  C   UNK N   1      23.086  11.897  11.585  0.00  0.00     0.104 C 
HETATM    2  N   UNK N   1      24.252  12.625  11.078  0.00  0.00    -0.411 N 
HETATM    3  C   UNK N   1      24.209  12.655   9.614  0.00  0.00     0.153 C 
HETATM    4  C   UNK N   1      22.963  13.334   9.134  0.00  0.00    -0.033 A 
HETATM    5  C   UNK N   1      22.972  14.012   7.912  0.00  0.00     0.034 A 
HETATM    6  C   UNK N   1      21.824  14.679   7.469  0.00  0.00     0.080 A 
HETATM    7  C   UNK N   1      20.669  14.671   8.257  0.00  0.00     0.026 A 
HETATM    8  C   UNK N   1      20.655  13.993   9.480  0.00  0.00     0.009 A 
HETATM    9  C   UNK N   1      21.802  13.328   9.927  0.00  0.00    -0.048 A 
HETATM   10  C   UNK N   1      21.794  12.672  11.280  0.00  0.00     0.066 C 
HETATM   11  H   UNK N   1      24.981  13.044  11.654  0.00  0.00     0.154 HD
ENDROOT
BRANCH   6  12
HETATM   12  S   UNK N   1      21.899  15.669   5.975  0.00  0.00     0.263 S 
HETATM   13  O   UNK N   1      23.036  16.700   6.036  0.00  0.00    -0.200 OA
HETATM   14  O   UNK N   1      22.356  14.822   4.779  0.00  0.00    -0.200 OA
BRANCH  12  15
HETATM   15  N   UNK N   1      20.518  16.560   5.351  0.00  0.00    -0.281 N 
HETATM   16  H   UNK N   1      19.632  16.380   5.741  0.00  0.00     0.179 HD
BRANCH  15  17
HETATM   17  C   UNK N   1      20.612  17.521   4.318  0.00  0.00     0.042 A 
HETATM   18  C   UNK N   1      20.084  17.223   3.056  0.00  0.00     0.032 A 
HETATM   19  C   UNK N   1      20.177  18.150   2.015  0.00  0.00     0.026 A 
HETATM   20  C   UNK N   1      20.789  19.387   2.233  0.00  0.00     0.034 A 
HETATM   21  C   UNK N   1      21.313  19.695   3.492  0.00  0.00     0.026 A 
HETATM   22 Cl   UNK N   1      20.899  20.551   0.931  0.00  0.00    -0.084 Cl
HETATM   23  C   UNK N   1      21.232  18.762   4.529  0.00  0.00     0.032 A 
ENDBRANCH  15  17
ENDBRANCH  12  15
ENDBRANCH   6  12
BRANCH   1  24
HETATM   24  C   UNK N   1      23.238  11.727  13.090  0.00  0.00     0.189 C 
BRANCH  24  25
HETATM   25  O   UNK N   1      24.012  12.756  13.630  0.00  0.00    -0.399 OA
HETATM   26  H   UNK N   1      23.856  13.191  14.483  0.00  0.00     0.209 HD
ENDBRANCH  24  25
ENDBRANCH   1  24
TORSDOF 5
ENDMDL
MODEL 4
REMARK VINA RESULT:      -7.2     15.853     16.880
REMARK  5 active torsions:
REMARK  status: ('A' for Active; 'I' for Inactive)
REMARK    1  A    between atoms: O_1  and  C_2 
REMARK    2  A    between atoms: C_3  and  C_2 
REMARK    3  A    between atoms: C_8  and  S_13 
REMARK    4  A    between atoms: S_13  and  N_16 
REMARK    5  A    between atoms: N_16  and  C_17 
ROOT
HETATM    1  C   UNK N   1      26.510  29.602  -3.774  0.00  0.00     0.104 C 
HETATM    2  N   UNK N   1      26.364  28.376  -2.985  0.00  0.00    -0.411 N 
HETATM    3  C   UNK N   1      25.441  27.465  -3.664  0.00  0.00     0.153 C 
HETATM    4  C   UNK N   1      25.953  27.109  -5.027  0.00  0.00    -0.033 A 
HETATM    5  C   UNK N   1      25.628  25.872  -5.586  0.00  0.00     0.034 A 
HETATM    6  C   UNK N   1      26.128  25.514  -6.843  0.00  0.00     0.080 A 
HETATM    7  C   UNK N   1      26.960  26.399  -7.537  0.00  0.00     0.026 A 
HETATM    8  C   UNK N   1      27.287  27.640  -6.981  0.00  0.00     0.009 A 
HETATM    9  C   UNK N   1      26.791  27.998  -5.723  0.00  0.00    -0.048 A 
HETATM   10  C   UNK N   1      27.217  29.302  -5.106  0.00  0.00     0.066 C 
HETATM   11  H   UNK N   1      26.833  28.187  -2.099  0.00  0.00     0.154 HD
ENDROOT
BRANCH   6  12
HETATM   12  S   UNK N   1      25.827  23.863  -7.477  0.00  0.00     0.263 S 
HETATM   13  O   UNK N   1      25.124  22.978  -6.439  0.00  0.00    -0.200 OA
HETATM   14  O   UNK N   1      24.765  23.888  -8.587  0.00  0.00    -0.200 OA
BRANCH  12  15
HETATM   15  N   UNK N   1      27.101  22.850  -8.143  0.00  0.00    -0.281 N 
HETATM   16  H   UNK N   1      27.118  22.702  -9.116  0.00  0.00     0.179 HD
BRANCH  15  17
HETATM   17  C   UNK N   1      28.100  22.236  -7.354  0.00  0.00     0.042 A 
HETATM   18  C   UNK N   1      28.508  22.852  -6.164  0.00  0.00     0.032 A 
HETATM   19  C   UNK N   1      29.503  22.272  -5.374  0.00  0.00     0.026 A 
HETATM   20  C   UNK N   1      30.089  21.064  -5.763  0.00  0.00     0.034 A 
HETATM   21  C   UNK N   1      29.684  20.440  -6.946  0.00  0.00     0.026 A 
HETATM   22 Cl   UNK N   1      31.332  20.334  -4.769  0.00  0.00    -0.084 Cl
HETATM   23  C   UNK N   1      28.698  21.028  -7.743  0.00  0.00     0.032 A 
ENDBRANCH  15  17
ENDBRANCH  12  15
ENDBRANCH   6  12
BRANCH   1  24
HETATM   24  C   UNK N   1      27.333  30.600  -2.972  0.00  0.00     0.189 C 
BRANCH  24  25
HETATM   25  O   UNK N   1      27.983  29.968  -1.910  0.00  0.00    -0.399 OA
HETATM   26  H   UNK N   1      28.860  29.556  -1.952  0.00  0.00     0.209 HD
ENDBRANCH  24  25
ENDBRANCH   1  24
TORSDOF 5
ENDMDL
MODEL 5
REMARK VINA RESULT:      -7.0      3.881      8.500
REMARK  5 active torsions:
REMARK  status: ('A' for Active; 'I' for Inactive)
REMARK    1  A    between atoms: O_1  and  C_2 
REMARK    2  A    between atoms: C_3  and  C_2 
REMARK    3  A    between atoms: C_8  and  S_13 
REMARK    4  A    between atoms: S_13  and  N_16 
REMARK    5  A    between atoms: N_16  and  C_17 
ROOT
HETATM    1  C   UNK N   1      22.723  12.248  10.472  0.00  0.00     0.104 C 
HETATM    2  N   UNK N   1      23.876  13.030  10.018  0.00  0.00    -0.411 N 
HETATM    3  C   UNK N   1      23.684  13.413   8.618  0.00  0.00     0.153 C 
HETATM    4  C   UNK N   1      22.443  14.236   8.457  0.00  0.00    -0.033 A 
HETATM    5  C   UNK N   1      22.370  15.186   7.436  0.00  0.00     0.034 A 
HETATM    6  C   UNK N   1      21.230  15.985   7.296  0.00  0.00     0.080 A 
HETATM    7  C   UNK N   1      20.163  15.832   8.188  0.00  0.00     0.026 A 
HETATM    8  C   UNK N   1      20.231  14.882   9.212  0.00  0.00     0.009 A 
HETATM    9  C   UNK N   1      21.371  14.085   9.355  0.00  0.00    -0.048 A 
HETATM   10  C   UNK N   1      21.460  13.123  10.508  0.00  0.00     0.066 C 
HETATM   11  H   UNK N   1      24.686  13.270  10.589  0.00  0.00     0.154 HD
ENDROOT
BRANCH   6  12
HETATM   12  S   UNK N   1      21.215  17.301   6.078  0.00  0.00     0.263 S 
HETATM   13  O   UNK N   1      21.095  18.682   6.738  0.00  0.00    -0.200 OA
HETATM   14  O   UNK N   1      22.587  17.435   5.400  0.00  0.00    -0.200 OA
BRANCH  12  15
HETATM   15  N   UNK N   1      20.081  17.345   4.735  0.00  0.00    -0.281 N 
HETATM   16  H   UNK N   1      19.469  18.113   4.666  0.00  0.00     0.179 HD
BRANCH  15  17
HETATM   17  C   UNK N   1      20.001  16.334   3.749  0.00  0.00     0.042 A 
HETATM   18  C   UNK N   1      20.460  16.604   2.454  0.00  0.00     0.032 A 
HETATM   19  C   UNK N   1      20.380  15.627   1.459  0.00  0.00     0.026 A 
HETATM   20  C   UNK N   1      19.849  14.368   1.756  0.00  0.00     0.034 A 
HETATM   21  C   UNK N   1      19.394  14.089   3.048  0.00  0.00     0.026 A 
HETATM   22 Cl   UNK N   1      19.753  13.142   0.511  0.00  0.00    -0.084 Cl
HETATM   23  C   UNK N   1      19.462  15.072   4.039  0.00  0.00     0.032 A 
ENDBRANCH  15  17
ENDBRANCH  12  15
ENDBRANCH   6  12
BRANCH   1  24
HETATM   24  C   UNK N   1      23.016  11.716  11.867  0.00  0.00     0.189 C 
BRANCH  24  25
HETATM   25  O   UNK N   1      24.128  12.357  12.419  0.00  0.00    -0.399 OA
HETATM   26  H   UNK N   1      24.098  13.095  13.048  0.00  0.00     0.209 HD
ENDBRANCH  24  25
ENDBRANCH   1  24
TORSDOF 5
ENDMDL
MODEL 6
REMARK VINA RESULT:      -6.9      3.997      8.593
REMARK  5 active torsions:
REMARK  status: ('A' for Active; 'I' for Inactive)
REMARK    1  A    between atoms: O_1  and  C_2 
REMARK    2  A    between atoms: C_3  and  C_2 
REMARK    3  A    between atoms: C_8  and  S_13 
REMARK    4  A    between atoms: S_13  and  N_16 
REMARK    5  A    between atoms: N_16  and  C_17 
ROOT
HETATM    1  C   UNK N   1      22.905  12.218  10.586  0.00  0.00     0.104 C 
HETATM    2  N   UNK N   1      24.071  12.977  10.126  0.00  0.00    -0.411 N 
HETATM    3  C   UNK N   1      23.926  13.275   8.699  0.00  0.00     0.153 C 
HETATM    4  C   UNK N   1      22.689  14.082   8.448  0.00  0.00    -0.033 A 
HETATM    5  C   UNK N   1      22.649  14.969   7.370  0.00  0.00     0.034 A 
HETATM    6  C   UNK N   1      21.513  15.754   7.146  0.00  0.00     0.080 A 
HETATM    7  C   UNK N   1      20.417  15.651   8.009  0.00  0.00     0.026 A 
HETATM    8  C   UNK N   1      20.452  14.763   9.089  0.00  0.00     0.009 A 
HETATM    9  C   UNK N   1      21.589  13.980   9.317  0.00  0.00    -0.048 A 
HETATM   10  C   UNK N   1      21.640  13.089  10.528  0.00  0.00     0.066 C 
HETATM   11  H   UNK N   1      24.861  13.253  10.708  0.00  0.00     0.154 HD
ENDROOT
BRANCH   6  12
HETATM   12  S   UNK N   1      21.537  16.995   5.852  0.00  0.00     0.263 S 
HETATM   13  O   UNK N   1      20.160  17.150   5.190  0.00  0.00    -0.200 OA
HETATM   14  O   UNK N   1      21.721  18.401   6.444  0.00  0.00    -0.200 OA
BRANCH  12  15
HETATM   15  N   UNK N   1      22.676  16.955   4.513  0.00  0.00    -0.281 N 
HETATM   16  H   UNK N   1      22.462  16.391   3.735  0.00  0.00     0.179 HD
BRANCH  15  17
HETATM   17  C   UNK N   1      23.884  17.689   4.496  0.00  0.00     0.042 A 
HETATM   18  C   UNK N   1      25.034  17.129   5.067  0.00  0.00     0.032 A 
HETATM   19  C   UNK N   1      26.237  17.840   5.074  0.00  0.00     0.026 A 
HETATM   20  C   UNK N   1      26.300  19.113   4.500  0.00  0.00     0.034 A 
HETATM   21  C   UNK N   1      25.159  19.676   3.922  0.00  0.00     0.026 A 
HETATM   22 Cl   UNK N   1      27.808  20.000   4.503  0.00  0.00    -0.084 Cl
HETATM   23  C   UNK N   1      23.953  18.970   3.927  0.00  0.00     0.032 A 
ENDBRANCH  15  17
ENDBRANCH  12  15
ENDBRANCH   6  12
BRANCH   1  24
HETATM   24  C   UNK N   1      23.153  11.771  12.020  0.00  0.00     0.189 C 
BRANCH  24  25
HETATM   25  O   UNK N   1      24.313  12.358  12.529  0.00  0.00    -0.399 OA
HETATM   26  H   UNK N   1      24.631  12.276  13.442  0.00  0.00     0.209 HD
ENDBRANCH  24  25
ENDBRANCH   1  24
TORSDOF 5
ENDMDL
MODEL 7
REMARK VINA RESULT:      -6.8     11.809     15.092
REMARK  5 active torsions:
REMARK  status: ('A' for Active; 'I' for Inactive)
REMARK    1  A    between atoms: O_1  and  C_2 
REMARK    2  A    between atoms: C_3  and  C_2 
REMARK    3  A    between atoms: C_8  and  S_13 
REMARK    4  A    between atoms: S_13  and  N_16 
REMARK    5  A    between atoms: N_16  and  C_17 
ROOT
HETATM    1  C   UNK N   1      35.672  13.365  12.871  0.00  0.00     0.104 C 
HETATM    2  N   UNK N   1      36.043  12.571  11.697  0.00  0.00    -0.411 N 
HETATM    3  C   UNK N   1      35.054  12.778  10.637  0.00  0.00     0.153 C 
HETATM    4  C   UNK N   1      34.986  14.223  10.247  0.00  0.00    -0.033 A 
HETATM    5  C   UNK N   1      34.629  14.571   8.943  0.00  0.00     0.034 A 
HETATM    6  C   UNK N   1      34.596  15.916   8.557  0.00  0.00     0.080 A 
HETATM    7  C   UNK N   1      34.927  16.912   9.482  0.00  0.00     0.026 A 
HETATM    8  C   UNK N   1      35.285  16.567  10.790  0.00  0.00     0.009 A 
HETATM    9  C   UNK N   1      35.322  15.223  11.177  0.00  0.00    -0.048 A 
HETATM   10  C   UNK N   1      35.785  14.866  12.562  0.00  0.00     0.066 C 
HETATM   11  H   UNK N   1      36.863  11.968  11.628  0.00  0.00     0.154 HD
ENDROOT
BRANCH   6  12
HETATM   12  S   UNK N   1      34.284  16.337   6.842  0.00  0.00     0.263 S 
HETATM   13  O   UNK N   1      34.376  17.851   6.605  0.00  0.00    -0.200 OA
HETATM   14  O   UNK N   1      35.427  15.844   5.941  0.00  0.00    -0.200 OA
BRANCH  12  15
HETATM   15  N   UNK N   1      32.833  15.835   5.985  0.00  0.00    -0.281 N 
HETATM   16  H   UNK N   1      32.879  15.031   5.420  0.00  0.00     0.179 HD
BRANCH  15  17
HETATM   17  C   UNK N   1      31.603  16.528   6.065  0.00  0.00     0.042 A 
HETATM   18  C   UNK N   1      31.010  16.729   7.318  0.00  0.00     0.032 A 
HETATM   19  C   UNK N   1      29.789  17.398   7.422  0.00  0.00     0.026 A 
HETATM   20  C   UNK N   1      29.156  17.882   6.273  0.00  0.00     0.034 A 
HETATM   21  C   UNK N   1      29.744  17.691   5.019  0.00  0.00     0.026 A 
HETATM   22 Cl   UNK N   1      27.629  18.726   6.403  0.00  0.00    -0.084 Cl
HETATM   23  C   UNK N   1      30.959  17.009   4.915  0.00  0.00     0.032 A 
ENDBRANCH  15  17
ENDBRANCH  12  15
ENDBRANCH   6  12
BRANCH   1  24
HETATM   24  C   UNK N   1      36.611  13.007  14.014  0.00  0.00     0.189 C 
BRANCH  24  25
HETATM   25  O   UNK N   1      37.074  14.157  14.655  0.00  0.00    -0.399 OA
HETATM   26  H   UNK N   1      37.980  14.501  14.611  0.00  0.00     0.209 HD
ENDBRANCH  24  25
ENDBRANCH   1  24
TORSDOF 5
ENDMDL
MODEL 8
REMARK VINA RESULT:      -6.8     15.573     17.196
REMARK  5 active torsions:
REMARK  status: ('A' for Active; 'I' for Inactive)
REMARK    1  A    between atoms: O_1  and  C_2 
REMARK    2  A    between atoms: C_3  and  C_2 
REMARK    3  A    between atoms: C_8  and  S_13 
REMARK    4  A    between atoms: S_13  and  N_16 
REMARK    5  A    between atoms: N_16  and  C_17 
ROOT
HETATM    1  C   UNK N   1      31.993  20.677  -5.880  0.00  0.00     0.104 C 
HETATM    2  N   UNK N   1      31.234  21.389  -4.848  0.00  0.00    -0.411 N 
HETATM    3  C   UNK N   1      30.406  22.420  -5.477  0.00  0.00     0.153 C 
HETATM    4  C   UNK N   1      29.447  21.809  -6.453  0.00  0.00    -0.033 A 
HETATM    5  C   UNK N   1      28.219  22.427  -6.695  0.00  0.00     0.034 A 
HETATM    6  C   UNK N   1      27.300  21.848  -7.578  0.00  0.00     0.080 A 
HETATM    7  C   UNK N   1      27.615  20.643  -8.214  0.00  0.00     0.026 A 
HETATM    8  C   UNK N   1      28.845  20.021  -7.976  0.00  0.00     0.009 A 
HETATM    9  C   UNK N   1      29.763  20.596  -7.090  0.00  0.00    -0.048 A 
HETATM   10  C   UNK N   1      31.046  19.874  -6.785  0.00  0.00     0.066 C 
HETATM   11  H   UNK N   1      31.278  21.197  -3.848  0.00  0.00     0.154 HD
ENDROOT
BRANCH   6  12
HETATM   12  S   UNK N   1      25.670  22.574  -7.760  0.00  0.00     0.263 S 
HETATM   13  O   UNK N   1      24.979  22.097  -9.045  0.00  0.00    -0.200 OA
HETATM   14  O   UNK N   1      24.704  22.021  -6.702  0.00  0.00    -0.200 OA
BRANCH  12  15
HETATM   15  N   UNK N   1      25.388  24.309  -7.715  0.00  0.00    -0.281 N 
HETATM   16  H   UNK N   1      25.045  24.746  -8.528  0.00  0.00     0.179 HD
BRANCH  15  17
HETATM   17  C   UNK N   1      25.630  25.109  -6.575  0.00  0.00     0.042 A 
HETATM   18  C   UNK N   1      25.557  26.503  -6.689  0.00  0.00     0.032 A 
HETATM   19  C   UNK N   1      25.805  27.315  -5.580  0.00  0.00     0.026 A 
HETATM   20  C   UNK N   1      26.116  26.738  -4.346  0.00  0.00     0.034 A 
HETATM   21  C   UNK N   1      26.184  25.347  -4.222  0.00  0.00     0.026 A 
HETATM   22 Cl   UNK N   1      26.419  27.756  -2.955  0.00  0.00    -0.084 Cl
HETATM   23  C   UNK N   1      25.950  24.536  -5.335  0.00  0.00     0.032 A 
ENDBRANCH  15  17
ENDBRANCH  12  15
ENDBRANCH   6  12
BRANCH   1  24
HETATM   24  C   UNK N   1      32.971  19.732  -5.197  0.00  0.00     0.189 C 
BRANCH  24  25
HETATM   25  O   UNK N   1      32.769  19.722  -3.815  0.00  0.00    -0.399 OA
HETATM   26  H   UNK N   1      32.146  19.149  -3.341  0.00  0.00     0.209 HD
ENDBRANCH  24  25
ENDBRANCH   1  24
TORSDOF 5
ENDMDL
MODEL 9
REMARK VINA RESULT:      -6.8      5.495      7.662
REMARK  5 active torsions:
REMARK  status: ('A' for Active; 'I' for Inactive)
REMARK    1  A    between atoms: O_1  and  C_2 
REMARK    2  A    between atoms: C_3  and  C_2 
REMARK    3  A    between atoms: C_8  and  S_13 
REMARK    4  A    between atoms: S_13  and  N_16 
REMARK    5  A    between atoms: N_16  and  C_17 
ROOT
HETATM    1  C   UNK N   1      27.593  18.857   4.757  0.00  0.00     0.104 C 
HETATM    2  N   UNK N   1      27.279  20.276   4.569  0.00  0.00    -0.411 N 
HETATM    3  C   UNK N   1      26.353  20.425   3.444  0.00  0.00     0.153 C 
HETATM    4  C   UNK N   1      25.082  19.673   3.699  0.00  0.00    -0.033 A 
HETATM    5  C   UNK N   1      23.887  20.125   3.135  0.00  0.00     0.034 A 
HETATM    6  C   UNK N   1      22.687  19.452   3.394  0.00  0.00     0.080 A 
HETATM    7  C   UNK N   1      22.688  18.327   4.225  0.00  0.00     0.026 A 
HETATM    8  C   UNK N   1      23.883  17.870   4.790  0.00  0.00     0.009 A 
HETATM    9  C   UNK N   1      25.083  18.544   4.536  0.00  0.00    -0.048 A 
HETATM   10  C   UNK N   1      26.344  18.086   5.215  0.00  0.00     0.066 C 
HETATM   11  H   UNK N   1      27.648  21.041   5.133  0.00  0.00     0.154 HD
ENDROOT
BRANCH   6  12
HETATM   12  S   UNK N   1      21.143  20.133   2.788  0.00  0.00     0.263 S 
HETATM   13  O   UNK N   1      20.336  20.797   3.914  0.00  0.00    -0.200 OA
HETATM   14  O   UNK N   1      21.398  21.344   1.878  0.00  0.00    -0.200 OA
BRANCH  12  15
HETATM   15  N   UNK N   1      19.966  19.181   1.894  0.00  0.00    -0.281 N 
HETATM   16  H   UNK N   1      19.275  19.656   1.379  0.00  0.00     0.179 HD
BRANCH  15  17
HETATM   17  C   UNK N   1      19.958  17.767   1.878  0.00  0.00     0.042 A 
HETATM   18  C   UNK N   1      19.820  17.069   3.085  0.00  0.00     0.032 A 
HETATM   19  C   UNK N   1      19.824  15.672   3.096  0.00  0.00     0.026 A 
HETATM   20  C   UNK N   1      19.954  14.963   1.899  0.00  0.00     0.034 A 
HETATM   21  C   UNK N   1      20.085  15.652   0.690  0.00  0.00     0.026 A 
HETATM   22 Cl   UNK N   1      19.951  13.213   1.913  0.00  0.00    -0.084 Cl
HETATM   23  C   UNK N   1      20.096  17.049   0.680  0.00  0.00     0.032 A 
ENDBRANCH  15  17
ENDBRANCH  12  15
ENDBRANCH   6  12
BRANCH   1  24
HETATM   24  C   UNK N   1      28.683  18.738   5.813  0.00  0.00     0.189 C 
BRANCH  24  25
HETATM   25  O   UNK N   1      28.246  19.250   7.037  0.00  0.00    -0.399 OA
HETATM   26  H   UNK N   1      27.320  19.378   7.296  0.00  0.00     0.209 HD
ENDBRANCH  24  25
ENDBRANCH   1  24
TORSDOF 5
ENDMDL
