REMARK  5 active torsions:
REMARK  status: ('A' for Active; 'I' for Inactive)
REMARK    1  A    between atoms: O_1  and  C_2 
REMARK    2  A    between atoms: C_3  and  C_2 
REMARK    3  A    between atoms: C_8  and  S_13 
REMARK    4  A    between atoms: S_13  and  N_16 
REMARK    5  A    between atoms: N_16  and  C_17 
ROOT
HETATM    1  C   UNK N   1      -3.894  -1.210   0.260  0.00  0.00     0.104 C 
HETATM    2  N   UNK N   1      -4.048   0.130  -0.312  0.00  0.00    -0.411 N 
HETATM    3  C   UNK N   1      -3.085   1.040   0.312  0.00  0.00     0.153 C 
HETATM    4  C   UNK N   1      -1.682   0.569   0.080  0.00  0.00    -0.033 A 
HETATM    5  C   UNK N   1      -0.642   1.499   0.016  0.00  0.00     0.034 A 
HETATM    6  C   UNK N   1       0.668   1.075  -0.235  0.00  0.00     0.080 A 
HETATM    7  C   UNK N   1       0.932  -0.285  -0.427  0.00  0.00     0.026 A 
HETATM    8  C   UNK N   1      -0.106  -1.220  -0.363  0.00  0.00     0.009 A 
HETATM    9  C   UNK N   1      -1.417  -0.798  -0.116  0.00  0.00    -0.048 A 
HETATM   10  C   UNK N   1      -2.532  -1.807  -0.129  0.00  0.00     0.066 C 
HETATM   11  H   UNK N   1      -4.722   0.389  -1.032  0.00  0.00     0.154 HD
ENDROOT
BRANCH   6  12
HETATM   12  S   UNK N   1       1.963   2.294  -0.465  0.00  0.00     0.263 S 
HETATM   13  O   UNK N   1       2.362   2.424  -1.942  0.00  0.00    -0.200 OA
HETATM   14  O   UNK N   1       1.436   3.711  -0.193  0.00  0.00    -0.200 OA
BRANCH  12  15
HETATM   15  N   UNK N   1       3.488   2.242   0.409  0.00  0.00    -0.281 N 
HETATM   16  H   UNK N   1       3.704   2.987   1.015  0.00  0.00     0.179 HD
BRANCH  15  17
HETATM   17  C   UNK N   1       4.421   1.187   0.286  0.00  0.00     0.042 A 
HETATM   18  C   UNK N   1       5.726   1.368   0.762  0.00  0.00     0.032 A 
HETATM   19  C   UNK N   1       6.670   0.346   0.640  0.00  0.00     0.026 A 
HETATM   20  C   UNK N   1       6.312  -0.870   0.051  0.00  0.00     0.034 A 
HETATM   21  C   UNK N   1       5.010  -1.061  -0.421  0.00  0.00     0.026 A 
HETATM   22 Cl   UNK N   1       7.493  -2.153  -0.096  0.00  0.00    -0.084 Cl
HETATM   23  C   UNK N   1       4.070  -0.033  -0.311  0.00  0.00     0.032 A 
ENDBRANCH  15  17
ENDBRANCH  12  15
ENDBRANCH   6  12
BRANCH   1  24
HETATM   24  C   UNK N   1      -5.011  -2.096  -0.273  0.00  0.00     0.189 C 
BRANCH  24  25
HETATM   25  O   UNK N   1      -4.944  -3.372   0.290  0.00  0.00    -0.399 OA
HETATM   26  H   UNK N   1      -5.689  -3.855   0.681  0.00  0.00     0.209 HD
ENDBRANCH  24  25
ENDBRANCH   1  24
TORSDOF 5
