MODEL 1
REMARK VINA RESULT:      -6.6      0.000      0.000
REMARK  10 active torsions:
REMARK  status: ('A' for Active; 'I' for Inactive)
REMARK    1  A    between atoms: C_1  and  O_7 
REMARK    2  A    between atoms: C_4  and  S_12 
REMARK    3  A    between atoms: O_7  and  C_8 
REMARK    4  A    between atoms: S_12  and  N_13 
REMARK    5  A    between atoms: N_13  and  C_14 
REMARK    6  A    between atoms: C_14  and  C_15 
REMARK    7  A    between atoms: C_15  and  O_16 
REMARK    8  A    between atoms: O_16  and  P_17 
REMARK    9  A    between atoms: P_17  and  O_18 
REMARK   10  A    between atoms: P_17  and  O_20 
ROOT
HETATM    1  S   UNK N   1      21.311  17.375   6.281  0.00  0.00     0.258 S 
HETATM    2  O   UNK N   1      22.716  17.618   5.711  0.00  0.00    -0.201 OA
HETATM    3  O   UNK N   1      21.022  18.723   6.963  0.00  0.00    -0.201 OA
ENDROOT
BRANCH   1   4
HETATM    4  C   UNK N   1      21.343  15.957   7.375  0.00  0.00     0.079 A 
HETATM    5  C   UNK N   1      22.166  14.872   7.068  0.00  0.00     0.028 A 
HETATM    6  C   UNK N   1      22.155  13.732   7.873  0.00  0.00     0.038 A 
HETATM    7  C   UNK N   1      21.324  13.660   8.995  0.00  0.00     0.078 A 
HETATM    8  C   UNK N   1      20.503  14.762   9.307  0.00  0.00     0.038 A 
HETATM    9  C   UNK N   1      20.513  15.904   8.499  0.00  0.00     0.028 A 
BRANCH   7  10
HETATM   10  O   UNK N   1      21.311  12.506   9.713  0.00  0.00    -0.255 OA
BRANCH  10  11
HETATM   11  C   UNK N   1      22.163  12.114  10.736  0.00  0.00     0.530 C 
HETATM   12  F   UNK N   1      22.790  10.938  10.372  0.00  0.00    -0.144 F 
HETATM   13  F   UNK N   1      21.513  11.927  11.943  0.00  0.00    -0.144 F 
HETATM   14  F   UNK N   1      23.125  13.091  10.908  0.00  0.00    -0.144 F 
ENDBRANCH  10  11
ENDBRANCH   7  10
ENDBRANCH   1   4
BRANCH   1  15
HETATM   15  N   UNK N   1      20.307  17.291   4.825  0.00  0.00    -0.313 N 
HETATM   16  H   UNK N   1      19.292  17.387   4.803  0.00  0.00     0.172 HD
BRANCH  15  17
HETATM   17  C   UNK N   1      21.155  17.063   3.668  0.00  0.00     0.159 C 
BRANCH  17  18
HETATM   18  C   UNK N   1      20.774  18.052   2.583  0.00  0.00     0.200 C 
BRANCH  18  19
HETATM   19  O   UNK N   1      21.459  19.258   2.765  0.00  0.00    -0.295 OA
BRANCH  19  20
HETATM   20  P   UNK N   1      20.631  20.392   1.736  0.00  0.00     0.390 P 
HETATM   21  O   UNK N   1      22.119  20.756   1.483  0.00  0.00    -0.632 OA
BRANCH  20  22
HETATM   22  O   UNK N   1      20.756  20.287   0.009  0.00  0.00    -0.307 OA
HETATM   23  H   UNK N   1      20.593  21.047  -0.573  0.00  0.00     0.222 HD
ENDBRANCH  20  22
BRANCH  20  24
HETATM   24  O   UNK N   1      20.327  18.773   1.188  0.00  0.00    -0.307 OA
HETATM   25  H   UNK N   1      20.426  17.902   1.603  0.00  0.00     0.222 HD
ENDBRANCH  20  24
ENDBRANCH  19  20
ENDBRANCH  18  19
ENDBRANCH  17  18
ENDBRANCH  15  17
ENDBRANCH   1  15
TORSDOF 10
ENDMDL
MODEL 2
REMARK VINA RESULT:      -6.4     12.152     13.262
REMARK  10 active torsions:
REMARK  status: ('A' for Active; 'I' for Inactive)
REMARK    1  A    between atoms: C_1  and  O_7 
REMARK    2  A    between atoms: C_4  and  S_12 
REMARK    3  A    between atoms: O_7  and  C_8 
REMARK    4  A    between atoms: S_12  and  N_13 
REMARK    5  A    between atoms: N_13  and  C_14 
REMARK    6  A    between atoms: C_14  and  C_15 
REMARK    7  A    between atoms: C_15  and  O_16 
REMARK    8  A    between atoms: O_16  and  P_17 
REMARK    9  A    between atoms: P_17  and  O_18 
REMARK   10  A    between atoms: P_17  and  O_20 
ROOT
HETATM    1  S   UNK N   1      34.318  17.852   8.251  0.00  0.00     0.258 S 
HETATM    2  O   UNK N   1      34.592  17.516   6.778  0.00  0.00    -0.201 OA
HETATM    3  O   UNK N   1      35.012  19.217   8.387  0.00  0.00    -0.201 OA
ENDROOT
BRANCH   1   4
HETATM    4  C   UNK N   1      34.977  16.554   9.296  0.00  0.00     0.079 A 
HETATM    5  C   UNK N   1      35.295  16.838  10.625  0.00  0.00     0.028 A 
HETATM    6  C   UNK N   1      35.870  15.857  11.435  0.00  0.00     0.038 A 
HETATM    7  C   UNK N   1      36.134  14.581  10.929  0.00  0.00     0.078 A 
HETATM    8  C   UNK N   1      35.802  14.295   9.590  0.00  0.00     0.038 A 
HETATM    9  C   UNK N   1      35.226  15.279   8.778  0.00  0.00     0.028 A 
BRANCH   7  10
HETATM   10  O   UNK N   1      36.746  13.680  11.744  0.00  0.00    -0.255 OA
BRANCH  10  11
HETATM   11  C   UNK N   1      36.437  13.352  13.056  0.00  0.00     0.530 C 
HETATM   12  F   UNK N   1      35.077  13.127  13.154  0.00  0.00    -0.144 F 
HETATM   13  F   UNK N   1      36.801  14.332  13.962  0.00  0.00    -0.144 F 
HETATM   14  F   UNK N   1      37.101  12.186  13.387  0.00  0.00    -0.144 F 
ENDBRANCH  10  11
ENDBRANCH   7  10
ENDBRANCH   1   4
BRANCH   1  15
HETATM   15  N   UNK N   1      32.571  18.139   8.270  0.00  0.00    -0.313 N 
HETATM   16  H   UNK N   1      32.120  19.040   8.110  0.00  0.00     0.172 HD
BRANCH  15  17
HETATM   17  C   UNK N   1      31.880  16.892   8.548  0.00  0.00     0.159 C 
BRANCH  17  18
HETATM   18  C   UNK N   1      30.390  17.168   8.630  0.00  0.00     0.200 C 
BRANCH  18  19
HETATM   19  O   UNK N   1      30.114  18.469   8.200  0.00  0.00    -0.295 OA
BRANCH  19  20
HETATM   20  P   UNK N   1      28.384  18.612   8.316  0.00  0.00     0.390 P 
HETATM   21  O   UNK N   1      28.553  17.148   7.828  0.00  0.00    -0.632 OA
BRANCH  20  22
HETATM   22  O   UNK N   1      27.492  17.713   9.502  0.00  0.00    -0.307 OA
HETATM   23  H   UNK N   1      26.666  18.042   9.892  0.00  0.00     0.222 HD
ENDBRANCH  20  22
BRANCH  20  24
HETATM   24  O   UNK N   1      29.094  18.785   9.891  0.00  0.00    -0.307 OA
HETATM   25  H   UNK N   1      29.526  19.523  10.347  0.00  0.00     0.222 HD
ENDBRANCH  20  24
ENDBRANCH  19  20
ENDBRANCH  18  19
ENDBRANCH  17  18
ENDBRANCH  15  17
ENDBRANCH   1  15
TORSDOF 10
ENDMDL
MODEL 3
REMARK VINA RESULT:      -6.4     11.955     13.006
REMARK  10 active torsions:
REMARK  status: ('A' for Active; 'I' for Inactive)
REMARK    1  A    between atoms: C_1  and  O_7 
REMARK    2  A    between atoms: C_4  and  S_12 
REMARK    3  A    between atoms: O_7  and  C_8 
REMARK    4  A    between atoms: S_12  and  N_13 
REMARK    5  A    between atoms: N_13  and  C_14 
REMARK    6  A    between atoms: C_14  and  C_15 
REMARK    7  A    between atoms: C_15  and  O_16 
REMARK    8  A    between atoms: O_16  and  P_17 
REMARK    9  A    between atoms: P_17  and  O_18 
REMARK   10  A    between atoms: P_17  and  O_20 
ROOT
HETATM    1  S   UNK N   1      34.364  17.776   8.298  0.00  0.00     0.258 S 
HETATM    2  O   UNK N   1      34.833  17.220   6.946  0.00  0.00    -0.201 OA
HETATM    3  O   UNK N   1      35.210  19.055   8.411  0.00  0.00    -0.201 OA
ENDROOT
BRANCH   1   4
HETATM    4  C   UNK N   1      34.647  16.557   9.580  0.00  0.00     0.079 A 
HETATM    5  C   UNK N   1      34.001  15.322   9.507  0.00  0.00     0.028 A 
HETATM    6  C   UNK N   1      34.157  14.385  10.530  0.00  0.00     0.038 A 
HETATM    7  C   UNK N   1      34.961  14.668  11.638  0.00  0.00     0.078 A 
HETATM    8  C   UNK N   1      35.619  15.912  11.703  0.00  0.00     0.038 A 
HETATM    9  C   UNK N   1      35.461  16.852  10.678  0.00  0.00     0.028 A 
BRANCH   7  10
HETATM   10  O   UNK N   1      35.035  13.744  12.632  0.00  0.00    -0.255 OA
BRANCH  10  11
HETATM   11  C   UNK N   1      36.122  12.969  13.012  0.00  0.00     0.530 C 
HETATM   12  F   UNK N   1      36.521  13.347  14.280  0.00  0.00    -0.144 F 
HETATM   13  F   UNK N   1      37.197  13.077  12.147  0.00  0.00    -0.144 F 
HETATM   14  F   UNK N   1      35.727  11.645  13.051  0.00  0.00    -0.144 F 
ENDBRANCH  10  11
ENDBRANCH   7  10
ENDBRANCH   1   4
BRANCH   1  15
HETATM   15  N   UNK N   1      32.697  18.271   7.962  0.00  0.00    -0.313 N 
HETATM   16  H   UNK N   1      32.249  19.114   8.320  0.00  0.00     0.172 HD
BRANCH  15  17
HETATM   17  C   UNK N   1      32.067  17.287   7.098  0.00  0.00     0.159 C 
BRANCH  17  18
HETATM   18  C   UNK N   1      30.581  17.254   7.399  0.00  0.00     0.200 C 
BRANCH  18  19
HETATM   19  O   UNK N   1      30.262  18.210   8.369  0.00  0.00    -0.295 OA
BRANCH  19  20
HETATM   20  P   UNK N   1      28.950  17.503   9.268  0.00  0.00     0.390 P 
HETATM   21  O   UNK N   1      29.303  18.741  10.136  0.00  0.00    -0.632 OA
BRANCH  20  22
HETATM   22  O   UNK N   1      27.423  18.314   9.407  0.00  0.00    -0.307 OA
HETATM   23  H   UNK N   1      26.976  18.717   8.645  0.00  0.00     0.222 HD
ENDBRANCH  20  22
BRANCH  20  24
HETATM   24  O   UNK N   1      28.381  18.026   7.713  0.00  0.00    -0.307 OA
HETATM   25  H   UNK N   1      27.681  18.636   7.433  0.00  0.00     0.222 HD
ENDBRANCH  20  24
ENDBRANCH  19  20
ENDBRANCH  18  19
ENDBRANCH  17  18
ENDBRANCH  15  17
ENDBRANCH   1  15
TORSDOF 10
ENDMDL
MODEL 4
REMARK VINA RESULT:      -6.2     10.971     12.851
REMARK  10 active torsions:
REMARK  status: ('A' for Active; 'I' for Inactive)
REMARK    1  A    between atoms: C_1  and  O_7 
REMARK    2  A    between atoms: C_4  and  S_12 
REMARK    3  A    between atoms: O_7  and  C_8 
REMARK    4  A    between atoms: S_12  and  N_13 
REMARK    5  A    between atoms: N_13  and  C_14 
REMARK    6  A    between atoms: C_14  and  C_15 
REMARK    7  A    between atoms: C_15  and  O_16 
REMARK    8  A    between atoms: O_16  and  P_17 
REMARK    9  A    between atoms: P_17  and  O_18 
REMARK   10  A    between atoms: P_17  and  O_20 
ROOT
HETATM    1  S   UNK N   1      32.025  16.586   8.147  0.00  0.00     0.258 S 
HETATM    2  O   UNK N   1      33.015  17.644   8.656  0.00  0.00    -0.201 OA
HETATM    3  O   UNK N   1      32.821  15.955   6.993  0.00  0.00    -0.201 OA
ENDROOT
BRANCH   1   4
HETATM    4  C   UNK N   1      30.490  17.379   7.672  0.00  0.00     0.079 A 
HETATM    5  C   UNK N   1      30.036  17.262   6.357  0.00  0.00     0.028 A 
HETATM    6  C   UNK N   1      28.878  17.927   5.952  0.00  0.00     0.038 A 
HETATM    7  C   UNK N   1      28.156  18.715   6.854  0.00  0.00     0.078 A 
HETATM    8  C   UNK N   1      28.612  18.821   8.183  0.00  0.00     0.038 A 
HETATM    9  C   UNK N   1      29.775  18.155   8.588  0.00  0.00     0.028 A 
BRANCH   7  10
HETATM   10  O   UNK N   1      27.066  19.384   6.395  0.00  0.00    -0.255 OA
BRANCH  10  11
HETATM   11  C   UNK N   1      26.820  20.750   6.411  0.00  0.00     0.530 C 
HETATM   12  F   UNK N   1      26.305  21.098   7.645  0.00  0.00    -0.144 F 
HETATM   13  F   UNK N   1      25.940  21.155   5.422  0.00  0.00    -0.144 F 
HETATM   14  F   UNK N   1      28.016  21.417   6.228  0.00  0.00    -0.144 F 
ENDBRANCH  10  11
ENDBRANCH   7  10
ENDBRANCH   1   4
BRANCH   1  15
HETATM   15  N   UNK N   1      31.990  15.412   9.472  0.00  0.00    -0.313 N 
HETATM   16  H   UNK N   1      31.487  15.531  10.351  0.00  0.00     0.172 HD
BRANCH  15  17
HETATM   17  C   UNK N   1      32.788  14.253   9.110  0.00  0.00     0.159 C 
BRANCH  17  18
HETATM   18  C   UNK N   1      34.114  14.328   9.844  0.00  0.00     0.200 C 
BRANCH  18  19
HETATM   19  O   UNK N   1      34.028  15.227  10.911  0.00  0.00    -0.295 OA
BRANCH  19  20
HETATM   20  P   UNK N   1      35.635  15.273  11.578  0.00  0.00     0.390 P 
HETATM   21  O   UNK N   1      35.854  14.471  10.266  0.00  0.00    -0.632 OA
BRANCH  20  22
HETATM   22  O   UNK N   1      36.901  16.166  10.797  0.00  0.00    -0.307 OA
HETATM   23  H   UNK N   1      37.334  15.855   9.986  0.00  0.00     0.222 HD
ENDBRANCH  20  22
BRANCH  20  24
HETATM   24  O   UNK N   1      35.113  16.884  11.193  0.00  0.00    -0.307 OA
HETATM   25  H   UNK N   1      34.329  17.239  10.749  0.00  0.00     0.222 HD
ENDBRANCH  20  24
ENDBRANCH  19  20
ENDBRANCH  18  19
ENDBRANCH  17  18
ENDBRANCH  15  17
ENDBRANCH   1  15
TORSDOF 10
ENDMDL
MODEL 5
REMARK VINA RESULT:      -6.2      5.638      7.445
REMARK  10 active torsions:
REMARK  status: ('A' for Active; 'I' for Inactive)
REMARK    1  A    between atoms: C_1  and  O_7 
REMARK    2  A    between atoms: C_4  and  S_12 
REMARK    3  A    between atoms: O_7  and  C_8 
REMARK    4  A    between atoms: S_12  and  N_13 
REMARK    5  A    between atoms: N_13  and  C_14 
REMARK    6  A    between atoms: C_14  and  C_15 
REMARK    7  A    between atoms: C_15  and  O_16 
REMARK    8  A    between atoms: O_16  and  P_17 
REMARK    9  A    between atoms: P_17  and  O_18 
REMARK   10  A    between atoms: P_17  and  O_20 
ROOT
HETATM    1  S   UNK N   1      21.298  20.225   2.709  0.00  0.00     0.258 S 
HETATM    2  O   UNK N   1      21.285  21.429   1.756  0.00  0.00    -0.201 OA
HETATM    3  O   UNK N   1      20.400  20.730   3.850  0.00  0.00    -0.201 OA
ENDROOT
BRANCH   1   4
HETATM    4  C   UNK N   1      22.986  19.847   3.177  0.00  0.00     0.079 A 
HETATM    5  C   UNK N   1      24.024  20.658   2.714  0.00  0.00     0.028 A 
HETATM    6  C   UNK N   1      25.350  20.341   3.013  0.00  0.00     0.038 A 
HETATM    7  C   UNK N   1      25.657  19.212   3.779  0.00  0.00     0.078 A 
HETATM    8  C   UNK N   1      24.606  18.402   4.252  0.00  0.00     0.038 A 
HETATM    9  C   UNK N   1      23.276  18.719   3.951  0.00  0.00     0.028 A 
BRANCH   7  10
HETATM   10  O   UNK N   1      26.967  18.918   3.994  0.00  0.00    -0.255 OA
BRANCH  10  11
HETATM   11  C   UNK N   1      27.785  19.330   5.037  0.00  0.00     0.530 C 
HETATM   12  F   UNK N   1      27.956  20.698   4.960  0.00  0.00    -0.144 F 
HETATM   13  F   UNK N   1      29.026  18.717   5.029  0.00  0.00    -0.144 F 
HETATM   14  F   UNK N   1      27.161  19.030   6.233  0.00  0.00    -0.144 F 
ENDBRANCH  10  11
ENDBRANCH   7  10
ENDBRANCH   1   4
BRANCH   1  15
HETATM   15  N   UNK N   1      20.381  19.004   1.812  0.00  0.00    -0.313 N 
HETATM   16  H   UNK N   1      20.578  18.702   0.859  0.00  0.00     0.172 HD
BRANCH  15  17
HETATM   17  C   UNK N   1      19.304  18.501   2.647  0.00  0.00     0.159 C 
BRANCH  17  18
HETATM   18  C   UNK N   1      19.822  17.324   3.453  0.00  0.00     0.200 C 
BRANCH  18  19
HETATM   19  O   UNK N   1      18.826  16.851   4.313  0.00  0.00    -0.295 OA
BRANCH  19  20
HETATM   20  P   UNK N   1      19.475  15.373   4.964  0.00  0.00     0.390 P 
HETATM   21  O   UNK N   1      20.535  16.415   5.415  0.00  0.00    -0.632 OA
BRANCH  20  22
HETATM   22  O   UNK N   1      19.556  15.112   6.677  0.00  0.00    -0.307 OA
HETATM   23  H   UNK N   1      20.054  14.376   7.069  0.00  0.00     0.222 HD
ENDBRANCH  20  22
BRANCH  20  24
HETATM   24  O   UNK N   1      17.953  15.728   5.720  0.00  0.00    -0.307 OA
HETATM   25  H   UNK N   1      17.427  15.277   6.397  0.00  0.00     0.222 HD
ENDBRANCH  20  24
ENDBRANCH  19  20
ENDBRANCH  18  19
ENDBRANCH  17  18
ENDBRANCH  15  17
ENDBRANCH   1  15
TORSDOF 10
ENDMDL
MODEL 6
REMARK VINA RESULT:      -6.2     10.307     11.976
REMARK  10 active torsions:
REMARK  status: ('A' for Active; 'I' for Inactive)
REMARK    1  A    between atoms: C_1  and  O_7 
REMARK    2  A    between atoms: C_4  and  S_12 
REMARK    3  A    between atoms: O_7  and  C_8 
REMARK    4  A    between atoms: S_12  and  N_13 
REMARK    5  A    between atoms: N_13  and  C_14 
REMARK    6  A    between atoms: C_14  and  C_15 
REMARK    7  A    between atoms: C_15  and  O_16 
REMARK    8  A    between atoms: O_16  and  P_17 
REMARK    9  A    between atoms: P_17  and  O_18 
REMARK   10  A    between atoms: P_17  and  O_20 
ROOT
HETATM    1  S   UNK N   1      31.187  15.715   4.648  0.00  0.00     0.258 S 
HETATM    2  O   UNK N   1      30.743  14.968   3.381  0.00  0.00    -0.201 OA
HETATM    3  O   UNK N   1      31.470  14.546   5.606  0.00  0.00    -0.201 OA
ENDROOT
BRANCH   1   4
HETATM    4  C   UNK N   1      29.889  16.834   5.171  0.00  0.00     0.079 A 
HETATM    5  C   UNK N   1      28.992  17.334   4.226  0.00  0.00     0.028 A 
HETATM    6  C   UNK N   1      28.017  18.258   4.604  0.00  0.00     0.038 A 
HETATM    7  C   UNK N   1      27.922  18.693   5.929  0.00  0.00     0.078 A 
HETATM    8  C   UNK N   1      28.823  18.177   6.881  0.00  0.00     0.038 A 
HETATM    9  C   UNK N   1      29.802  17.252   6.503  0.00  0.00     0.028 A 
BRANCH   7  10
HETATM   10  O   UNK N   1      26.990  19.635   6.232  0.00  0.00    -0.255 OA
BRANCH  10  11
HETATM   11  C   UNK N   1      27.048  21.006   6.029  0.00  0.00     0.530 C 
HETATM   12  F   UNK N   1      26.780  21.275   4.701  0.00  0.00    -0.144 F 
HETATM   13  F   UNK N   1      28.274  21.554   6.364  0.00  0.00    -0.144 F 
HETATM   14  F   UNK N   1      26.077  21.609   6.806  0.00  0.00    -0.144 F 
ENDBRANCH  10  11
ENDBRANCH   7  10
ENDBRANCH   1   4
BRANCH   1  15
HETATM   15  N   UNK N   1      32.747  16.402   4.172  0.00  0.00    -0.313 N 
HETATM   16  H   UNK N   1      32.964  16.794   3.256  0.00  0.00     0.172 HD
BRANCH  15  17
HETATM   17  C   UNK N   1      33.671  16.319   5.290  0.00  0.00     0.159 C 
BRANCH  17  18
HETATM   18  C   UNK N   1      33.499  17.553   6.156  0.00  0.00     0.200 C 
BRANCH  18  19
HETATM   19  O   UNK N   1      34.662  17.792   6.895  0.00  0.00    -0.295 OA
BRANCH  19  20
HETATM   20  P   UNK N   1      34.164  17.646   8.556  0.00  0.00     0.390 P 
HETATM   21  O   UNK N   1      34.997  16.352   8.356  0.00  0.00    -0.632 OA
BRANCH  20  22
HETATM   22  O   UNK N   1      35.320  17.739   9.846  0.00  0.00    -0.307 OA
HETATM   23  H   UNK N   1      35.604  18.584  10.232  0.00  0.00     0.222 HD
ENDBRANCH  20  22
BRANCH  20  24
HETATM   24  O   UNK N   1      35.192  19.034   8.371  0.00  0.00    -0.307 OA
HETATM   25  H   UNK N   1      35.574  19.479   7.599  0.00  0.00     0.222 HD
ENDBRANCH  20  24
ENDBRANCH  19  20
ENDBRANCH  18  19
ENDBRANCH  17  18
ENDBRANCH  15  17
ENDBRANCH   1  15
TORSDOF 10
ENDMDL
MODEL 7
REMARK VINA RESULT:      -6.2     16.040     17.193
REMARK  10 active torsions:
REMARK  status: ('A' for Active; 'I' for Inactive)
REMARK    1  A    between atoms: C_1  and  O_7 
REMARK    2  A    between atoms: C_4  and  S_12 
REMARK    3  A    between atoms: O_7  and  C_8 
REMARK    4  A    between atoms: S_12  and  N_13 
REMARK    5  A    between atoms: N_13  and  C_14 
REMARK    6  A    between atoms: C_14  and  C_15 
REMARK    7  A    between atoms: C_15  and  O_16 
REMARK    8  A    between atoms: O_16  and  P_17 
REMARK    9  A    between atoms: P_17  and  O_18 
REMARK   10  A    between atoms: P_17  and  O_20 
ROOT
HETATM    1  S   UNK N   1      26.052  23.898  -6.662  0.00  0.00     0.258 S 
HETATM    2  O   UNK N   1      25.291  24.183  -7.964  0.00  0.00    -0.201 OA
HETATM    3  O   UNK N   1      25.342  22.628  -6.165  0.00  0.00    -0.201 OA
ENDROOT
BRANCH   1   4
HETATM    4  C   UNK N   1      25.932  25.315  -5.573  0.00  0.00     0.079 A 
HETATM    5  C   UNK N   1      25.293  26.473  -6.022  0.00  0.00     0.028 A 
HETATM    6  C   UNK N   1      25.248  27.609  -5.212  0.00  0.00     0.038 A 
HETATM    7  C   UNK N   1      25.838  27.604  -3.945  0.00  0.00     0.078 A 
HETATM    8  C   UNK N   1      26.472  26.431  -3.492  0.00  0.00     0.038 A 
HETATM    9  C   UNK N   1      26.519  25.292  -4.304  0.00  0.00     0.028 A 
BRANCH   7  10
HETATM   10  O   UNK N   1      25.813  28.754  -3.220  0.00  0.00    -0.255 OA
BRANCH  10  11
HETATM   11  C   UNK N   1      26.732  29.794  -3.215  0.00  0.00     0.530 C 
HETATM   12  F   UNK N   1      26.050  30.995  -3.201  0.00  0.00    -0.144 F 
HETATM   13  F   UNK N   1      27.585  29.770  -4.304  0.00  0.00    -0.144 F 
HETATM   14  F   UNK N   1      27.492  29.705  -2.065  0.00  0.00    -0.144 F 
ENDBRANCH  10  11
ENDBRANCH   7  10
ENDBRANCH   1   4
BRANCH   1  15
HETATM   15  N   UNK N   1      27.655  23.417  -7.242  0.00  0.00    -0.313 N 
HETATM   16  H   UNK N   1      28.074  23.707  -8.125  0.00  0.00     0.172 HD
BRANCH  15  17
HETATM   17  C   UNK N   1      28.281  22.546  -6.261  0.00  0.00     0.159 C 
BRANCH  17  18
HETATM   18  C   UNK N   1      29.389  23.313  -5.565  0.00  0.00     0.200 C 
BRANCH  18  19
HETATM   19  O   UNK N   1      29.311  23.130  -4.181  0.00  0.00    -0.295 OA
BRANCH  19  20
HETATM   20  P   UNK N   1      30.968  23.046  -3.655  0.00  0.00     0.390 P 
HETATM   21  O   UNK N   1      30.357  24.046  -2.636  0.00  0.00    -0.632 OA
BRANCH  20  22
HETATM   22  O   UNK N   1      31.385  22.332  -2.130  0.00  0.00    -0.307 OA
HETATM   23  H   UNK N   1      30.810  21.692  -1.680  0.00  0.00     0.222 HD
ENDBRANCH  20  22
BRANCH  20  24
HETATM   24  O   UNK N   1      30.213  21.493  -3.468  0.00  0.00    -0.307 OA
HETATM   25  H   UNK N   1      30.521  20.643  -3.120  0.00  0.00     0.222 HD
ENDBRANCH  20  24
ENDBRANCH  19  20
ENDBRANCH  18  19
ENDBRANCH  17  18
ENDBRANCH  15  17
ENDBRANCH   1  15
TORSDOF 10
ENDMDL
MODEL 8
REMARK VINA RESULT:      -6.1      5.964      7.125
REMARK  10 active torsions:
REMARK  status: ('A' for Active; 'I' for Inactive)
REMARK    1  A    between atoms: C_1  and  O_7 
REMARK    2  A    between atoms: C_4  and  S_12 
REMARK    3  A    between atoms: O_7  and  C_8 
REMARK    4  A    between atoms: S_12  and  N_13 
REMARK    5  A    between atoms: N_13  and  C_14 
REMARK    6  A    between atoms: C_14  and  C_15 
REMARK    7  A    between atoms: C_15  and  O_16 
REMARK    8  A    between atoms: O_16  and  P_17 
REMARK    9  A    between atoms: P_17  and  O_18 
REMARK   10  A    between atoms: P_17  and  O_20 
ROOT
HETATM    1  S   UNK N   1      21.182  20.231   2.700  0.00  0.00     0.258 S 
HETATM    2  O   UNK N   1      21.247  21.387   1.691  0.00  0.00    -0.201 OA
HETATM    3  O   UNK N   1      20.258  20.820   3.778  0.00  0.00    -0.201 OA
ENDROOT
BRANCH   1   4
HETATM    4  C   UNK N   1      22.837  19.823   3.253  0.00  0.00     0.079 A 
HETATM    5  C   UNK N   1      23.021  18.759   4.139  0.00  0.00     0.028 A 
HETATM    6  C   UNK N   1      24.294  18.468   4.632  0.00  0.00     0.038 A 
HETATM    7  C   UNK N   1      25.399  19.232   4.246  0.00  0.00     0.078 A 
HETATM    8  C   UNK N   1      25.210  20.297   3.343  0.00  0.00     0.038 A 
HETATM    9  C   UNK N   1      23.933  20.591   2.850  0.00  0.00     0.028 A 
BRANCH   7  10
HETATM   10  O   UNK N   1      26.607  18.941   4.797  0.00  0.00    -0.255 OA
BRANCH  10  11
HETATM   11  C   UNK N   1      27.392  19.729   5.627  0.00  0.00     0.530 C 
HETATM   12  F   UNK N   1      28.255  20.477   4.851  0.00  0.00    -0.144 F 
HETATM   13  F   UNK N   1      28.125  18.993   6.541  0.00  0.00    -0.144 F 
HETATM   14  F   UNK N   1      26.568  20.591   6.325  0.00  0.00    -0.144 F 
ENDBRANCH  10  11
ENDBRANCH   7  10
ENDBRANCH   1   4
BRANCH   1  15
HETATM   15  N   UNK N   1      20.260  18.998   1.826  0.00  0.00    -0.313 N 
HETATM   16  H   UNK N   1      20.223  18.898   0.812  0.00  0.00     0.172 HD
BRANCH  15  17
HETATM   17  C   UNK N   1      19.564  18.151   2.780  0.00  0.00     0.159 C 
BRANCH  17  18
HETATM   18  C   UNK N   1      20.079  16.731   2.635  0.00  0.00     0.200 C 
BRANCH  18  19
HETATM   19  O   UNK N   1      20.392  16.462   1.299  0.00  0.00    -0.295 OA
BRANCH  19  20
HETATM   20  P   UNK N   1      20.028  14.773   1.093  0.00  0.00     0.390 P 
HETATM   21  O   UNK N   1      19.980  14.926   2.638  0.00  0.00    -0.632 OA
BRANCH  20  22
HETATM   22  O   UNK N   1      18.461  14.143   1.486  0.00  0.00    -0.307 OA
HETATM   23  H   UNK N   1      18.340  13.307   1.964  0.00  0.00     0.222 HD
ENDBRANCH  20  22
BRANCH  20  24
HETATM   24  O   UNK N   1      18.774  15.734   0.374  0.00  0.00    -0.307 OA
HETATM   25  H   UNK N   1      18.568  16.681   0.396  0.00  0.00     0.222 HD
ENDBRANCH  20  24
ENDBRANCH  19  20
ENDBRANCH  18  19
ENDBRANCH  17  18
ENDBRANCH  15  17
ENDBRANCH   1  15
TORSDOF 10
ENDMDL
MODEL 9
REMARK VINA RESULT:      -6.1      6.822      7.625
REMARK  10 active torsions:
REMARK  status: ('A' for Active; 'I' for Inactive)
REMARK    1  A    between atoms: C_1  and  O_7 
REMARK    2  A    between atoms: C_4  and  S_12 
REMARK    3  A    between atoms: O_7  and  C_8 
REMARK    4  A    between atoms: S_12  and  N_13 
REMARK    5  A    between atoms: N_13  and  C_14 
REMARK    6  A    between atoms: C_14  and  C_15 
REMARK    7  A    between atoms: C_15  and  O_16 
REMARK    8  A    between atoms: O_16  and  P_17 
REMARK    9  A    between atoms: P_17  and  O_18 
REMARK   10  A    between atoms: P_17  and  O_20 
ROOT
HETATM    1  S   UNK N   1      26.481  19.914   5.394  0.00  0.00     0.258 S 
HETATM    2  O   UNK N   1      26.779  20.101   3.899  0.00  0.00    -0.201 OA
HETATM    3  O   UNK N   1      26.304  21.371   5.853  0.00  0.00    -0.201 OA
ENDROOT
BRANCH   1   4
HETATM    4  C   UNK N   1      27.830  19.027   6.170  0.00  0.00     0.079 A 
HETATM    5  C   UNK N   1      28.628  18.180   5.398  0.00  0.00     0.028 A 
HETATM    6  C   UNK N   1      29.641  17.430   5.998  0.00  0.00     0.038 A 
HETATM    7  C   UNK N   1      29.873  17.518   7.373  0.00  0.00     0.078 A 
HETATM    8  C   UNK N   1      29.074  18.383   8.146  0.00  0.00     0.038 A 
HETATM    9  C   UNK N   1      28.056  19.133   7.546  0.00  0.00     0.028 A 
BRANCH   7  10
HETATM   10  O   UNK N   1      30.836  16.726   7.915  0.00  0.00    -0.255 OA
BRANCH  10  11
HETATM   11  C   UNK N   1      32.188  16.997   8.080  0.00  0.00     0.530 C 
HETATM   12  F   UNK N   1      32.680  16.216   9.107  0.00  0.00    -0.144 F 
HETATM   13  F   UNK N   1      32.445  18.328   8.358  0.00  0.00    -0.144 F 
HETATM   14  F   UNK N   1      32.850  16.661   6.915  0.00  0.00    -0.144 F 
ENDBRANCH  10  11
ENDBRANCH   7  10
ENDBRANCH   1   4
BRANCH   1  15
HETATM   15  N   UNK N   1      24.878  19.162   5.383  0.00  0.00    -0.313 N 
HETATM   16  H   UNK N   1      24.163  19.287   6.100  0.00  0.00     0.172 HD
BRANCH  15  17
HETATM   17  C   UNK N   1      24.739  18.341   4.192  0.00  0.00     0.159 C 
BRANCH  17  18
HETATM   18  C   UNK N   1      23.277  18.310   3.789  0.00  0.00     0.200 C 
BRANCH  18  19
HETATM   19  O   UNK N   1      22.630  19.470   4.225  0.00  0.00    -0.295 OA
BRANCH  19  20
HETATM   20  P   UNK N   1      21.739  20.024   2.836  0.00  0.00     0.390 P 
HETATM   21  O   UNK N   1      20.731  20.284   3.988  0.00  0.00    -0.632 OA
BRANCH  20  22
HETATM   22  O   UNK N   1      21.358  21.704   2.632  0.00  0.00    -0.307 OA
HETATM   23  H   UNK N   1      21.822  22.406   3.115  0.00  0.00     0.222 HD
ENDBRANCH  20  22
BRANCH  20  24
HETATM   24  O   UNK N   1      23.148  21.014   3.063  0.00  0.00    -0.307 OA
HETATM   25  H   UNK N   1      23.484  21.804   2.613  0.00  0.00     0.222 HD
ENDBRANCH  20  24
ENDBRANCH  19  20
ENDBRANCH  18  19
ENDBRANCH  17  18
ENDBRANCH  15  17
ENDBRANCH   1  15
TORSDOF 10
ENDMDL
