REMARK  8 active torsions:
REMARK  status: ('A' for Active; 'I' for Inactive)
REMARK       I    between atoms: C_1  and  N_4 
REMARK    1  A    between atoms: C_5  and  N_4 
REMARK    2  A    between atoms: C_5  and  C_6 
REMARK    3  A    between atoms: C_5  and  C_10 
REMARK    4  A    between atoms: C_6  and  C_7 
REMARK       I    between atoms: C_10  and  N_12 
REMARK    5  A    between atoms: C_13  and  N_12 
REMARK    6  A    between atoms: C_13  and  C_14 
REMARK    7  A    between atoms: C_13  and  C_21 
REMARK    8  A    between atoms: C_14  and  C_15 
ROOT
HETATM    1  C   UNK N   1      -0.103  -1.382   1.151  0.00  0.00     0.241 C 
HETATM    2  O   UNK N   1       0.066  -1.833   2.272  0.00  0.00    -0.271 OA
HETATM    3  N   UNK N   1       0.945  -0.703   0.582  0.00  0.00    -0.348 N 
HETATM    4  H   UNK N   1       1.698  -0.519   1.189  0.00  0.00     0.163 HD
ENDROOT
BRANCH   1   5
HETATM    5  C   UNK N   1      -1.459  -1.676   0.495  0.00  0.00     0.177 C 
BRANCH   5   6
HETATM    6  N   UNK N   1      -1.470  -3.064   0.071  0.00  0.00    -0.348 N 
HETATM    7  C   UNK N   1      -2.585  -3.732  -0.329  0.00  0.00     0.214 C 
HETATM    8  O   UNK N   1      -2.493  -4.898  -0.675  0.00  0.00    -0.274 OA
HETATM    9  C   UNK N   1      -3.933  -3.081  -0.336  0.00  0.00     0.117 C 
HETATM   10  H   UNK N   1      -0.616  -3.553   0.073  0.00  0.00     0.163 HD
ENDBRANCH   5   6
BRANCH   5  11
HETATM   11  C   UNK N   1      -1.907  -0.758  -0.654  0.00  0.00     0.038 C 
BRANCH  11  12
HETATM   12  C   UNK N   1      -2.496   0.596  -0.246  0.00  0.00    -0.020 C 
HETATM   13  C   UNK N   1      -3.917   0.439   0.258  0.00  0.00     0.009 C 
HETATM   14  C   UNK N   1      -1.655   1.345   0.772  0.00  0.00     0.009 C 
ENDBRANCH  11  12
ENDBRANCH   5  11
ENDBRANCH   1   5
BRANCH   3  15
HETATM   15  C   UNK N   1       1.119  -0.210  -0.776  0.00  0.00     0.150 C 
BRANCH  15  16
HETATM   16  C   UNK N   1       1.253   1.323  -0.791  0.00  0.00     0.070 C 
BRANCH  16  17
HETATM   17  C   UNK N   1       2.484   1.911  -0.154  0.00  0.00    -0.056 A 
HETATM   18  C   UNK N   1       2.355   2.799   0.922  0.00  0.00     0.007 A 
HETATM   19  C   UNK N   1       3.490   3.408   1.472  0.00  0.00     0.001 A 
HETATM   20  C   UNK N   1       4.756   3.138   0.944  0.00  0.00     0.000 A 
HETATM   21  C   UNK N   1       4.889   2.260  -0.135  0.00  0.00     0.001 A 
HETATM   22  C   UNK N   1       3.756   1.656  -0.687  0.00  0.00     0.007 A 
ENDBRANCH  16  17
ENDBRANCH  15  16
BRANCH  15  23
HETATM   23  C   UNK N   1       2.305  -0.864  -1.427  0.00  0.00     0.256 C 
HETATM   24  O   UNK N   1       2.987  -1.684  -0.831  0.00  0.00    -0.305 OA
ENDBRANCH  15  23
ENDBRANCH   3  15
TORSDOF 8
