MODEL 1
REMARK VINA RESULT:      -6.2      0.000      0.000
REMARK  8 active torsions:
REMARK  status: ('A' for Active; 'I' for Inactive)
REMARK       I    between atoms: C_1  and  N_4 
REMARK    1  A    between atoms: C_5  and  N_4 
REMARK    2  A    between atoms: C_5  and  C_6 
REMARK    3  A    between atoms: C_5  and  C_10 
REMARK    4  A    between atoms: C_6  and  C_7 
REMARK       I    between atoms: C_10  and  N_12 
REMARK    5  A    between atoms: C_13  and  N_12 
REMARK    6  A    between atoms: C_13  and  C_14 
REMARK    7  A    between atoms: C_13  and  C_21 
REMARK    8  A    between atoms: C_14  and  C_15 
ROOT
HETATM    1  C   UNK N   1      25.271  22.494  -6.809  0.00  0.00     0.241 C 
HETATM    2  O   UNK N   1      24.517  21.543  -6.680  0.00  0.00    -0.271 OA
HETATM    3  N   UNK N   1      25.188  23.494  -5.873  0.00  0.00    -0.348 N 
HETATM    4  H   UNK N   1      24.426  23.420  -5.253  0.00  0.00     0.163 HD
ENDROOT
BRANCH   1   5
HETATM    5  C   UNK N   1      26.257  22.428  -7.983  0.00  0.00     0.177 C 
BRANCH   5   6
HETATM    6  N   UNK N   1      25.583  22.914  -9.174  0.00  0.00    -0.348 N 
HETATM    7  C   UNK N   1      25.817  24.127  -9.742  0.00  0.00     0.214 C 
HETATM    8  O   UNK N   1      25.205  24.445 -10.748  0.00  0.00    -0.274 OA
HETATM    9  C   UNK N   1      26.793  25.098  -9.154  0.00  0.00     0.117 C 
HETATM   10  H   UNK N   1      24.915  22.329  -9.596  0.00  0.00     0.163 HD
ENDBRANCH   5   6
BRANCH   5  11
HETATM   11  C   UNK N   1      26.940  21.079  -8.264  0.00  0.00     0.038 C 
BRANCH  11  12
HETATM   12  C   UNK N   1      28.447  21.017  -7.995  0.00  0.00    -0.020 C 
HETATM   13  C   UNK N   1      28.835  21.951  -6.866  0.00  0.00     0.009 C 
HETATM   14  C   UNK N   1      28.959  19.615  -7.720  0.00  0.00     0.009 C 
ENDBRANCH  11  12
ENDBRANCH   5  11
ENDBRANCH   1   5
BRANCH   3  15
HETATM   15  C   UNK N   1      26.047  24.647  -5.651  0.00  0.00     0.150 C 
BRANCH  15  16
HETATM   16  C   UNK N   1      25.226  25.949  -5.636  0.00  0.00     0.070 C 
BRANCH  16  17
HETATM   17  C   UNK N   1      25.973  27.229  -5.372  0.00  0.00    -0.056 A 
HETATM   18  C   UNK N   1      25.642  28.012  -4.258  0.00  0.00     0.007 A 
HETATM   19  C   UNK N   1      26.281  29.241  -4.047  0.00  0.00     0.001 A 
HETATM   20  C   UNK N   1      27.246  29.694  -4.951  0.00  0.00     0.000 A 
HETATM   21  C   UNK N   1      27.573  28.921  -6.068  0.00  0.00     0.001 A 
HETATM   22  C   UNK N   1      26.933  27.697  -6.282  0.00  0.00     0.007 A 
ENDBRANCH  16  17
ENDBRANCH  15  16
BRANCH  15  23
HETATM   23  C   UNK N   1      26.829  24.486  -4.378  0.00  0.00     0.256 C 
HETATM   24  O   UNK N   1      26.271  24.360  -3.298  0.00  0.00    -0.305 OA
ENDBRANCH  15  23
ENDBRANCH   3  15
TORSDOF 8
ENDMDL
MODEL 2
REMARK VINA RESULT:      -6.2      3.101      5.160
REMARK  8 active torsions:
REMARK  status: ('A' for Active; 'I' for Inactive)
REMARK       I    between atoms: C_1  and  N_4 
REMARK    1  A    between atoms: C_5  and  N_4 
REMARK    2  A    between atoms: C_5  and  C_6 
REMARK    3  A    between atoms: C_5  and  C_10 
REMARK    4  A    between atoms: C_6  and  C_7 
REMARK       I    between atoms: C_10  and  N_12 
REMARK    5  A    between atoms: C_13  and  N_12 
REMARK    6  A    between atoms: C_13  and  C_14 
REMARK    7  A    between atoms: C_13  and  C_21 
REMARK    8  A    between atoms: C_14  and  C_15 
ROOT
HETATM    1  C   UNK N   1      27.041  24.729  -3.580  0.00  0.00     0.241 C 
HETATM    2  O   UNK N   1      26.326  23.930  -2.998  0.00  0.00    -0.271 OA
HETATM    3  N   UNK N   1      26.576  26.015  -3.703  0.00  0.00    -0.348 N 
HETATM    4  H   UNK N   1      25.639  26.144  -3.430  0.00  0.00     0.163 HD
ENDROOT
BRANCH   1   5
HETATM    5  C   UNK N   1      28.401  24.205  -4.060  0.00  0.00     0.177 C 
BRANCH   5   6
HETATM    6  N   UNK N   1      29.273  24.071  -2.907  0.00  0.00    -0.348 N 
HETATM    7  C   UNK N   1      30.075  22.998  -2.676  0.00  0.00     0.214 C 
HETATM    8  O   UNK N   1      30.779  22.979  -1.680  0.00  0.00    -0.274 OA
HETATM    9  C   UNK N   1      30.102  21.821  -3.602  0.00  0.00     0.117 C 
HETATM   10  H   UNK N   1      29.284  24.804  -2.251  0.00  0.00     0.163 HD
ENDBRANCH   5   6
BRANCH   5  11
HETATM   11  C   UNK N   1      29.108  24.983  -5.182  0.00  0.00     0.038 C 
BRANCH  11  12
HETATM   12  C   UNK N   1      29.031  24.367  -6.583  0.00  0.00    -0.020 C 
HETATM   13  C   UNK N   1      30.417  24.074  -7.122  0.00  0.00     0.009 C 
HETATM   14  C   UNK N   1      28.163  23.124  -6.656  0.00  0.00     0.009 C 
ENDBRANCH  11  12
ENDBRANCH   5  11
ENDBRANCH   1   5
BRANCH   3  15
HETATM   15  C   UNK N   1      27.248  27.216  -4.174  0.00  0.00     0.150 C 
BRANCH  15  16
HETATM   16  C   UNK N   1      26.488  27.843  -5.356  0.00  0.00     0.070 C 
BRANCH  16  17
HETATM   17  C   UNK N   1      26.754  27.272  -6.724  0.00  0.00    -0.056 A 
HETATM   18  C   UNK N   1      27.831  27.752  -7.481  0.00  0.00     0.007 A 
HETATM   19  C   UNK N   1      28.041  27.279  -8.783  0.00  0.00     0.001 A 
HETATM   20  C   UNK N   1      27.171  26.333  -9.335  0.00  0.00     0.000 A 
HETATM   21  C   UNK N   1      26.091  25.859  -8.586  0.00  0.00     0.001 A 
HETATM   22  C   UNK N   1      25.879  26.333  -7.289  0.00  0.00     0.007 A 
ENDBRANCH  16  17
ENDBRANCH  15  16
BRANCH  15  23
HETATM   23  C   UNK N   1      27.414  28.202  -3.052  0.00  0.00     0.256 C 
HETATM   24  O   UNK N   1      26.539  29.009  -2.779  0.00  0.00    -0.305 OA
ENDBRANCH  15  23
ENDBRANCH   3  15
TORSDOF 8
ENDMDL
MODEL 3
REMARK VINA RESULT:      -6.1      1.470      3.321
REMARK  8 active torsions:
REMARK  status: ('A' for Active; 'I' for Inactive)
REMARK       I    between atoms: C_1  and  N_4 
REMARK    1  A    between atoms: C_5  and  N_4 
REMARK    2  A    between atoms: C_5  and  C_6 
REMARK    3  A    between atoms: C_5  and  C_10 
REMARK    4  A    between atoms: C_6  and  C_7 
REMARK       I    between atoms: C_10  and  N_12 
REMARK    5  A    between atoms: C_13  and  N_12 
REMARK    6  A    between atoms: C_13  and  C_14 
REMARK    7  A    between atoms: C_13  and  C_21 
REMARK    8  A    between atoms: C_14  and  C_15 
ROOT
HETATM    1  C   UNK N   1      25.654  22.948  -6.566  0.00  0.00     0.241 C 
HETATM    2  O   UNK N   1      24.892  21.997  -6.632  0.00  0.00    -0.271 OA
HETATM    3  N   UNK N   1      25.332  23.953  -5.689  0.00  0.00    -0.348 N 
HETATM    4  H   UNK N   1      24.435  23.882  -5.289  0.00  0.00     0.163 HD
ENDROOT
BRANCH   1   5
HETATM    5  C   UNK N   1      26.912  22.876  -7.443  0.00  0.00     0.177 C 
BRANCH   5   6
HETATM    6  N   UNK N   1      28.062  22.688  -6.577  0.00  0.00    -0.348 N 
HETATM    7  C   UNK N   1      28.981  21.698  -6.732  0.00  0.00     0.214 C 
HETATM    8  O   UNK N   1      29.920  21.626  -5.956  0.00  0.00    -0.274 OA
HETATM    9  C   UNK N   1      28.862  20.675  -7.818  0.00  0.00     0.117 C 
HETATM   10  H   UNK N   1      28.184  23.318  -5.831  0.00  0.00     0.163 HD
ENDBRANCH   5   6
BRANCH   5  11
HETATM   11  C   UNK N   1      27.161  24.031  -8.427  0.00  0.00     0.038 C 
BRANCH  11  12
HETATM   12  C   UNK N   1      25.940  24.527  -9.207  0.00  0.00    -0.020 C 
HETATM   13  C   UNK N   1      25.770  26.026  -9.052  0.00  0.00     0.009 C 
HETATM   14  C   UNK N   1      25.960  24.148 -10.677  0.00  0.00     0.009 C 
ENDBRANCH  11  12
ENDBRANCH   5  11
ENDBRANCH   1   5
BRANCH   3  15
HETATM   15  C   UNK N   1      26.104  25.108  -5.258  0.00  0.00     0.150 C 
BRANCH  15  16
HETATM   16  C   UNK N   1      25.278  26.400  -5.385  0.00  0.00     0.070 C 
BRANCH  16  17
HETATM   17  C   UNK N   1      26.016  27.705  -5.243  0.00  0.00    -0.056 A 
HETATM   18  C   UNK N   1      27.001  28.053  -6.176  0.00  0.00     0.007 A 
HETATM   19  C   UNK N   1      27.745  29.228  -6.010  0.00  0.00     0.001 A 
HETATM   20  C   UNK N   1      27.512  30.055  -4.907  0.00  0.00     0.000 A 
HETATM   21  C   UNK N   1      26.536  29.708  -3.969  0.00  0.00     0.001 A 
HETATM   22  C   UNK N   1      25.798  28.532  -4.132  0.00  0.00     0.007 A 
ENDBRANCH  16  17
ENDBRANCH  15  16
BRANCH  15  23
HETATM   23  C   UNK N   1      26.599  24.917  -3.852  0.00  0.00     0.256 C 
HETATM   24  O   UNK N   1      26.250  23.960  -3.179  0.00  0.00    -0.305 OA
ENDBRANCH  15  23
ENDBRANCH   3  15
TORSDOF 8
ENDMDL
MODEL 4
REMARK VINA RESULT:      -6.0     13.823     16.382
REMARK  8 active torsions:
REMARK  status: ('A' for Active; 'I' for Inactive)
REMARK       I    between atoms: C_1  and  N_4 
REMARK    1  A    between atoms: C_5  and  N_4 
REMARK    2  A    between atoms: C_5  and  C_6 
REMARK    3  A    between atoms: C_5  and  C_10 
REMARK    4  A    between atoms: C_6  and  C_7 
REMARK       I    between atoms: C_10  and  N_12 
REMARK    5  A    between atoms: C_13  and  N_12 
REMARK    6  A    between atoms: C_13  and  C_14 
REMARK    7  A    between atoms: C_13  and  C_21 
REMARK    8  A    between atoms: C_14  and  C_15 
ROOT
HETATM    1  C   UNK N   1      29.741  18.211   8.767  0.00  0.00     0.241 C 
HETATM    2  O   UNK N   1      29.290  18.771   9.752  0.00  0.00    -0.271 OA
HETATM    3  N   UNK N   1      30.943  17.564   8.907  0.00  0.00    -0.348 N 
HETATM    4  H   UNK N   1      31.405  17.728   9.761  0.00  0.00     0.163 HD
ENDROOT
BRANCH   1   5
HETATM    5  C   UNK N   1      28.878  18.260   7.499  0.00  0.00     0.177 C 
BRANCH   5   6
HETATM    6  N   UNK N   1      27.800  19.208   7.716  0.00  0.00    -0.348 N 
HETATM    7  C   UNK N   1      27.373  20.105   6.788  0.00  0.00     0.214 C 
HETATM    8  O   UNK N   1      26.454  20.858   7.061  0.00  0.00    -0.274 OA
HETATM    9  C   UNK N   1      28.017  20.210   5.440  0.00  0.00     0.117 C 
HETATM   10  H   UNK N   1      27.350  19.201   8.592  0.00  0.00     0.163 HD
ENDBRANCH   5   6
BRANCH   5  11
HETATM   11  C   UNK N   1      28.324  16.929   6.964  0.00  0.00     0.038 C 
BRANCH  11  12
HETATM   12  C   UNK N   1      28.738  16.550   5.539  0.00  0.00    -0.020 C 
HETATM   13  C   UNK N   1      29.381  15.178   5.508  0.00  0.00     0.009 C 
HETATM   14  C   UNK N   1      27.603  16.623   4.534  0.00  0.00     0.009 C 
ENDBRANCH  11  12
ENDBRANCH   5  11
ENDBRANCH   1   5
BRANCH   3  15
HETATM   15  C   UNK N   1      31.644  16.675   7.993  0.00  0.00     0.150 C 
BRANCH  15  16
HETATM   16  C   UNK N   1      32.566  17.470   7.052  0.00  0.00     0.070 C 
BRANCH  16  17
HETATM   17  C   UNK N   1      32.708  16.964   5.641  0.00  0.00    -0.056 A 
HETATM   18  C   UNK N   1      33.563  15.887   5.370  0.00  0.00     0.007 A 
HETATM   19  C   UNK N   1      33.758  15.459   4.051  0.00  0.00     0.001 A 
HETATM   20  C   UNK N   1      33.107  16.109   2.999  0.00  0.00     0.000 A 
HETATM   21  C   UNK N   1      32.261  17.190   3.263  0.00  0.00     0.001 A 
HETATM   22  C   UNK N   1      32.070  17.621   4.579  0.00  0.00     0.007 A 
ENDBRANCH  16  17
ENDBRANCH  15  16
BRANCH  15  23
HETATM   23  C   UNK N   1      32.416  15.635   8.756  0.00  0.00     0.256 C 
HETATM   24  O   UNK N   1      33.528  15.868   9.204  0.00  0.00    -0.305 OA
ENDBRANCH  15  23
ENDBRANCH   3  15
TORSDOF 8
ENDMDL
MODEL 5
REMARK VINA RESULT:      -6.0      3.219      5.323
REMARK  8 active torsions:
REMARK  status: ('A' for Active; 'I' for Inactive)
REMARK       I    between atoms: C_1  and  N_4 
REMARK    1  A    between atoms: C_5  and  N_4 
REMARK    2  A    between atoms: C_5  and  C_6 
REMARK    3  A    between atoms: C_5  and  C_10 
REMARK    4  A    between atoms: C_6  and  C_7 
REMARK       I    between atoms: C_10  and  N_12 
REMARK    5  A    between atoms: C_13  and  N_12 
REMARK    6  A    between atoms: C_13  and  C_14 
REMARK    7  A    between atoms: C_13  and  C_21 
REMARK    8  A    between atoms: C_14  and  C_15 
ROOT
HETATM    1  C   UNK N   1      28.952  23.103  -5.523  0.00  0.00     0.241 C 
HETATM    2  O   UNK N   1      29.046  21.999  -6.034  0.00  0.00    -0.271 OA
HETATM    3  N   UNK N   1      27.711  23.689  -5.518  0.00  0.00    -0.348 N 
HETATM    4  H   UNK N   1      27.030  23.222  -6.054  0.00  0.00     0.163 HD
ENDROOT
BRANCH   1   5
HETATM    5  C   UNK N   1      30.232  23.679  -4.904  0.00  0.00     0.177 C 
BRANCH   5   6
HETATM    6  N   UNK N   1      30.051  23.752  -3.465  0.00  0.00    -0.348 N 
HETATM    7  C   UNK N   1      30.605  22.881  -2.580  0.00  0.00     0.214 C 
HETATM    8  O   UNK N   1      30.401  23.028  -1.387  0.00  0.00    -0.274 OA
HETATM    9  C   UNK N   1      31.446  21.727  -3.032  0.00  0.00     0.117 C 
HETATM   10  H   UNK N   1      29.491  24.478  -3.108  0.00  0.00     0.163 HD
ENDBRANCH   5   6
BRANCH   5  11
HETATM   11  C   UNK N   1      30.745  25.021  -5.451  0.00  0.00     0.038 C 
BRANCH  11  12
HETATM   12  C   UNK N   1      31.237  26.031  -4.409  0.00  0.00    -0.020 C 
HETATM   13  C   UNK N   1      32.641  26.502  -4.731  0.00  0.00     0.009 C 
HETATM   14  C   UNK N   1      30.311  27.221  -4.229  0.00  0.00     0.009 C 
ENDBRANCH  11  12
ENDBRANCH   5  11
ENDBRANCH   1   5
BRANCH   3  15
HETATM   15  C   UNK N   1      27.243  24.892  -4.846  0.00  0.00     0.150 C 
BRANCH  15  16
HETATM   16  C   UNK N   1      26.485  25.807  -5.824  0.00  0.00     0.070 C 
BRANCH  16  17
HETATM   17  C   UNK N   1      27.043  27.189  -6.042  0.00  0.00    -0.056 A 
HETATM   18  C   UNK N   1      27.863  27.442  -7.149  0.00  0.00     0.007 A 
HETATM   19  C   UNK N   1      28.446  28.705  -7.319  0.00  0.00     0.001 A 
HETATM   20  C   UNK N   1      28.217  29.715  -6.380  0.00  0.00     0.000 A 
HETATM   21  C   UNK N   1      27.407  29.464  -5.270  0.00  0.00     0.001 A 
HETATM   22  C   UNK N   1      26.829  28.203  -5.097  0.00  0.00     0.007 A 
ENDBRANCH  16  17
ENDBRANCH  15  16
BRANCH  15  23
HETATM   23  C   UNK N   1      26.387  24.536  -3.663  0.00  0.00     0.256 C 
HETATM   24  O   UNK N   1      26.844  23.933  -2.704  0.00  0.00    -0.305 OA
ENDBRANCH  15  23
ENDBRANCH   3  15
TORSDOF 8
ENDMDL
MODEL 6
REMARK VINA RESULT:      -5.9      3.448      5.663
REMARK  8 active torsions:
REMARK  status: ('A' for Active; 'I' for Inactive)
REMARK       I    between atoms: C_1  and  N_4 
REMARK    1  A    between atoms: C_5  and  N_4 
REMARK    2  A    between atoms: C_5  and  C_6 
REMARK    3  A    between atoms: C_5  and  C_10 
REMARK    4  A    between atoms: C_6  and  C_7 
REMARK       I    between atoms: C_10  and  N_12 
REMARK    5  A    between atoms: C_13  and  N_12 
REMARK    6  A    between atoms: C_13  and  C_14 
REMARK    7  A    between atoms: C_13  and  C_21 
REMARK    8  A    between atoms: C_14  and  C_15 
ROOT
HETATM    1  C   UNK N   1      28.241  23.590  -2.693  0.00  0.00     0.241 C 
HETATM    2  O   UNK N   1      28.277  23.004  -1.623  0.00  0.00    -0.271 OA
HETATM    3  N   UNK N   1      27.124  24.340  -2.962  0.00  0.00    -0.348 N 
HETATM    4  H   UNK N   1      26.385  24.226  -2.321  0.00  0.00     0.163 HD
ENDROOT
BRANCH   1   5
HETATM    5  C   UNK N   1      29.480  23.452  -3.588  0.00  0.00     0.177 C 
BRANCH   5   6
HETATM    6  N   UNK N   1      30.605  23.066  -2.755  0.00  0.00    -0.348 N 
HETATM    7  C   UNK N   1      31.274  21.888  -2.872  0.00  0.00     0.214 C 
HETATM    8  O   UNK N   1      32.213  21.656  -2.129  0.00  0.00    -0.274 OA
HETATM    9  C   UNK N   1      30.876  20.853  -3.878  0.00  0.00     0.117 C 
HETATM   10  H   UNK N   1      30.902  23.697  -2.061  0.00  0.00     0.163 HD
ENDBRANCH   5   6
BRANCH   5  11
HETATM   11  C   UNK N   1      29.853  24.650  -4.476  0.00  0.00     0.038 C 
BRANCH  11  12
HETATM   12  C   UNK N   1      29.924  24.378  -5.982  0.00  0.00    -0.020 C 
HETATM   13  C   UNK N   1      29.230  23.077  -6.331  0.00  0.00     0.009 C 
HETATM   14  C   UNK N   1      29.379  25.511  -6.832  0.00  0.00     0.009 C 
ENDBRANCH  11  12
ENDBRANCH   5  11
ENDBRANCH   1   5
BRANCH   3  15
HETATM   15  C   UNK N   1      26.858  25.276  -4.044  0.00  0.00     0.150 C 
BRANCH  15  16
HETATM   16  C   UNK N   1      25.616  24.850  -4.846  0.00  0.00     0.070 C 
BRANCH  16  17
HETATM   17  C   UNK N   1      25.709  24.924  -6.346  0.00  0.00    -0.056 A 
HETATM   18  C   UNK N   1      25.832  23.746  -7.095  0.00  0.00     0.007 A 
HETATM   19  C   UNK N   1      25.994  23.809  -8.485  0.00  0.00     0.001 A 
HETATM   20  C   UNK N   1      26.041  25.049  -9.130  0.00  0.00     0.000 A 
HETATM   21  C   UNK N   1      25.927  26.226  -8.386  0.00  0.00     0.001 A 
HETATM   22  C   UNK N   1      25.771  26.164  -6.999  0.00  0.00     0.007 A 
ENDBRANCH  16  17
ENDBRANCH  15  16
BRANCH  15  23
HETATM   23  C   UNK N   1      26.706  26.672  -3.509  0.00  0.00     0.256 C 
HETATM   24  O   UNK N   1      25.978  26.914  -2.558  0.00  0.00    -0.305 OA
ENDBRANCH  15  23
ENDBRANCH   3  15
TORSDOF 8
ENDMDL
MODEL 7
REMARK VINA RESULT:      -5.9      2.836      4.860
REMARK  8 active torsions:
REMARK  status: ('A' for Active; 'I' for Inactive)
REMARK       I    between atoms: C_1  and  N_4 
REMARK    1  A    between atoms: C_5  and  N_4 
REMARK    2  A    between atoms: C_5  and  C_6 
REMARK    3  A    between atoms: C_5  and  C_10 
REMARK    4  A    between atoms: C_6  and  C_7 
REMARK       I    between atoms: C_10  and  N_12 
REMARK    5  A    between atoms: C_13  and  N_12 
REMARK    6  A    between atoms: C_13  and  C_14 
REMARK    7  A    between atoms: C_13  and  C_21 
REMARK    8  A    between atoms: C_14  and  C_15 
ROOT
HETATM    1  C   UNK N   1      29.207  23.813  -5.894  0.00  0.00     0.241 C 
HETATM    2  O   UNK N   1      30.181  24.525  -6.077  0.00  0.00    -0.271 OA
HETATM    3  N   UNK N   1      28.044  24.162  -6.535  0.00  0.00    -0.348 N 
HETATM    4  H   UNK N   1      28.063  25.041  -6.978  0.00  0.00     0.163 HD
ENDROOT
BRANCH   1   5
HETATM    5  C   UNK N   1      29.420  22.582  -5.003  0.00  0.00     0.177 C 
BRANCH   5   6
HETATM    6  N   UNK N   1      30.301  22.954  -3.911  0.00  0.00    -0.348 N 
HETATM    7  C   UNK N   1      29.896  23.117  -2.623  0.00  0.00     0.214 C 
HETATM    8  O   UNK N   1      30.714  23.425  -1.772  0.00  0.00    -0.274 OA
HETATM    9  C   UNK N   1      28.464  22.949  -2.221  0.00  0.00     0.117 C 
HETATM   10  H   UNK N   1      31.253  23.099  -4.117  0.00  0.00     0.163 HD
ENDBRANCH   5   6
BRANCH   5  11
HETATM   11  C   UNK N   1      29.914  21.292  -5.678  0.00  0.00     0.038 C 
BRANCH  11  12
HETATM   12  C   UNK N   1      31.422  21.032  -5.614  0.00  0.00    -0.020 C 
HETATM   13  C   UNK N   1      31.730  19.853  -4.712  0.00  0.00     0.009 C 
HETATM   14  C   UNK N   1      32.066  20.836  -6.975  0.00  0.00     0.009 C 
ENDBRANCH  11  12
ENDBRANCH   5  11
ENDBRANCH   1   5
BRANCH   3  15
HETATM   15  C   UNK N   1      26.788  23.439  -6.661  0.00  0.00     0.150 C 
BRANCH  15  16
HETATM   16  C   UNK N   1      25.841  23.776  -5.495  0.00  0.00     0.070 C 
BRANCH  16  17
HETATM   17  C   UNK N   1      25.823  25.203  -5.014  0.00  0.00    -0.056 A 
HETATM   18  C   UNK N   1      26.418  25.533  -3.789  0.00  0.00     0.007 A 
HETATM   19  C   UNK N   1      26.341  26.843  -3.300  0.00  0.00     0.001 A 
HETATM   20  C   UNK N   1      25.663  27.825  -4.029  0.00  0.00     0.000 A 
HETATM   21  C   UNK N   1      25.061  27.498  -5.247  0.00  0.00     0.001 A 
HETATM   22  C   UNK N   1      25.134  26.190  -5.733  0.00  0.00     0.007 A 
ENDBRANCH  16  17
ENDBRANCH  15  16
BRANCH  15  23
HETATM   23  C   UNK N   1      26.141  23.732  -7.985  0.00  0.00     0.256 C 
HETATM   24  O   UNK N   1      24.941  23.579  -8.156  0.00  0.00    -0.305 OA
ENDBRANCH  15  23
ENDBRANCH   3  15
TORSDOF 8
ENDMDL
MODEL 8
REMARK VINA RESULT:      -5.8     15.645     17.957
REMARK  8 active torsions:
REMARK  status: ('A' for Active; 'I' for Inactive)
REMARK       I    between atoms: C_1  and  N_4 
REMARK    1  A    between atoms: C_5  and  N_4 
REMARK    2  A    between atoms: C_5  and  C_6 
REMARK    3  A    between atoms: C_5  and  C_10 
REMARK    4  A    between atoms: C_6  and  C_7 
REMARK       I    between atoms: C_10  and  N_12 
REMARK    5  A    between atoms: C_13  and  N_12 
REMARK    6  A    between atoms: C_13  and  C_14 
REMARK    7  A    between atoms: C_13  and  C_21 
REMARK    8  A    between atoms: C_14  and  C_15 
ROOT
HETATM    1  C   UNK N   1      21.392  17.595   6.588  0.00  0.00     0.241 C 
HETATM    2  O   UNK N   1      21.097  18.774   6.704  0.00  0.00    -0.271 OA
HETATM    3  N   UNK N   1      20.896  16.727   7.528  0.00  0.00    -0.348 N 
HETATM    4  H   UNK N   1      20.457  17.156   8.297  0.00  0.00     0.163 HD
ENDROOT
BRANCH   1   5
HETATM    5  C   UNK N   1      22.247  17.224   5.368  0.00  0.00     0.177 C 
BRANCH   5   6
HETATM    6  N   UNK N   1      23.625  17.084   5.801  0.00  0.00    -0.348 N 
HETATM    7  C   UNK N   1      24.328  15.921   5.749  0.00  0.00     0.214 C 
HETATM    8  O   UNK N   1      25.487  15.904   6.130  0.00  0.00    -0.274 OA
HETATM    9  C   UNK N   1      23.712  14.650   5.255  0.00  0.00     0.117 C 
HETATM   10  H   UNK N   1      24.080  17.882   6.156  0.00  0.00     0.163 HD
ENDBRANCH   5   6
BRANCH   5  11
HETATM   11  C   UNK N   1      22.160  18.137   4.134  0.00  0.00     0.038 C 
BRANCH  11  12
HETATM   12  C   UNK N   1      21.188  17.696   3.036  0.00  0.00    -0.020 C 
HETATM   13  C   UNK N   1      20.963  16.197   3.080  0.00  0.00     0.009 C 
HETATM   14  C   UNK N   1      19.859  18.429   3.067  0.00  0.00     0.009 C 
ENDBRANCH  11  12
ENDBRANCH   5  11
ENDBRANCH   1   5
BRANCH   3  15
HETATM   15  C   UNK N   1      20.918  15.273   7.568  0.00  0.00     0.150 C 
BRANCH  15  16
HETATM   16  C   UNK N   1      20.369  14.752   8.908  0.00  0.00     0.070 C 
BRANCH  16  17
HETATM   17  C   UNK N   1      21.203  13.737   9.644  0.00  0.00    -0.056 A 
HETATM   18  C   UNK N   1      20.620  12.952  10.648  0.00  0.00     0.007 A 
HETATM   19  C   UNK N   1      21.405  12.059  11.387  0.00  0.00     0.001 A 
HETATM   20  C   UNK N   1      22.775  11.952  11.132  0.00  0.00     0.000 A 
HETATM   21  C   UNK N   1      23.363  12.739  10.138  0.00  0.00     0.001 A 
HETATM   22  C   UNK N   1      22.581  13.634   9.403  0.00  0.00     0.007 A 
ENDBRANCH  16  17
ENDBRANCH  15  16
BRANCH  15  23
HETATM   23  C   UNK N   1      20.151  14.701   6.409  0.00  0.00     0.256 C 
HETATM   24  O   UNK N   1      19.065  15.153   6.080  0.00  0.00    -0.305 OA
ENDBRANCH  15  23
ENDBRANCH   3  15
TORSDOF 8
ENDMDL
MODEL 9
REMARK VINA RESULT:      -5.8     13.698     16.203
REMARK  8 active torsions:
REMARK  status: ('A' for Active; 'I' for Inactive)
REMARK       I    between atoms: C_1  and  N_4 
REMARK    1  A    between atoms: C_5  and  N_4 
REMARK    2  A    between atoms: C_5  and  C_6 
REMARK    3  A    between atoms: C_5  and  C_10 
REMARK    4  A    between atoms: C_6  and  C_7 
REMARK       I    between atoms: C_10  and  N_12 
REMARK    5  A    between atoms: C_13  and  N_12 
REMARK    6  A    between atoms: C_13  and  C_14 
REMARK    7  A    between atoms: C_13  and  C_21 
REMARK    8  A    between atoms: C_14  and  C_15 
ROOT
HETATM    1  C   UNK N   1      19.187  16.009   4.893  0.00  0.00     0.241 C 
HETATM    2  O   UNK N   1      18.103  15.743   5.385  0.00  0.00    -0.271 OA
HETATM    3  N   UNK N   1      19.203  16.388   3.574  0.00  0.00    -0.348 N 
HETATM    4  H   UNK N   1      18.347  16.276   3.101  0.00  0.00     0.163 HD
ENDROOT
BRANCH   1   5
HETATM    5  C   UNK N   1      20.399  15.933   5.831  0.00  0.00     0.177 C 
BRANCH   5   6
HETATM    6  N   UNK N   1      20.739  17.281   6.248  0.00  0.00    -0.348 N 
HETATM    7  C   UNK N   1      20.421  17.809   7.461  0.00  0.00     0.214 C 
HETATM    8  O   UNK N   1      20.757  18.952   7.723  0.00  0.00    -0.274 OA
HETATM    9  C   UNK N   1      19.647  17.032   8.480  0.00  0.00     0.117 C 
HETATM   10  H   UNK N   1      21.232  17.849   5.613  0.00  0.00     0.163 HD
ENDBRANCH   5   6
BRANCH   5  11
HETATM   11  C   UNK N   1      21.648  15.196   5.322  0.00  0.00     0.038 C 
BRANCH  11  12
HETATM   12  C   UNK N   1      21.650  13.673   5.491  0.00  0.00    -0.020 C 
HETATM   13  C   UNK N   1      20.895  13.267   6.742  0.00  0.00     0.009 C 
HETATM   14  C   UNK N   1      21.113  12.925   4.285  0.00  0.00     0.009 C 
ENDBRANCH  11  12
ENDBRANCH   5  11
ENDBRANCH   1   5
BRANCH   3  15
HETATM   15  C   UNK N   1      20.285  16.926   2.764  0.00  0.00     0.150 C 
BRANCH  15  16
HETATM   16  C   UNK N   1      20.229  16.367   1.331  0.00  0.00     0.070 C 
BRANCH  16  17
HETATM   17  C   UNK N   1      20.712  14.956   1.124  0.00  0.00    -0.056 A 
HETATM   18  C   UNK N   1      22.087  14.690   1.087  0.00  0.00     0.007 A 
HETATM   19  C   UNK N   1      22.545  13.393   0.821  0.00  0.00     0.001 A 
HETATM   20  C   UNK N   1      21.632  12.361   0.585  0.00  0.00     0.000 A 
HETATM   21  C   UNK N   1      20.260  12.624   0.612  0.00  0.00     0.001 A 
HETATM   22  C   UNK N   1      19.803  13.919   0.872  0.00  0.00     0.007 A 
ENDBRANCH  16  17
ENDBRANCH  15  16
BRANCH  15  23
HETATM   23  C   UNK N   1      20.246  18.428   2.761  0.00  0.00     0.256 C 
HETATM   24  O   UNK N   1      20.517  19.074   3.762  0.00  0.00    -0.305 OA
ENDBRANCH  15  23
ENDBRANCH   3  15
TORSDOF 8
ENDMDL
