MODEL 1
REMARK VINA RESULT:      -7.3      0.000      0.000
REMARK  9 active torsions:
REMARK  status: ('A' for Active; 'I' for Inactive)
REMARK    1  A    between atoms: C_1  and  O_22 
REMARK    2  A    between atoms: C_1  and  C_27 
REMARK       I    between atoms: C_5  and  N_24 
REMARK    3  A    between atoms: C_6  and  N_23 
REMARK    4  A    between atoms: C_13  and  N_23 
REMARK    5  A    between atoms: C_18  and  N_24 
REMARK    6  A    between atoms: C_19  and  O_22 
REMARK    7  A    between atoms: C_27  and  C_28 
REMARK    8  A    between atoms: C_27  and  O_32 
REMARK    9  A    between atoms: C_28  and  N_29 
ROOT
HETATM    1  N   UNK N   1      24.537  19.840   3.224  0.00  0.00    -0.202 N 
ATOM      2  HN  UNK N   1      23.857  20.016   2.484  1.00  0.00     0.183 HD
HETATM    3  C   UNK N   1      25.794  20.354   3.124  0.00  0.00     0.110 A 
HETATM    4  C   UNK N   1      24.184  19.097   4.301  0.00  0.00     0.684 A 
HETATM    5  C   UNK N   1      26.343  19.357   5.242  0.00  0.00     0.122 A 
HETATM    6  C   UNK N   1      26.724  20.128   4.141  0.00  0.00     0.066 A 
HETATM    7  N   UNK N   1      25.092  18.849   5.283  0.00  0.00    -0.176 N 
ATOM      8  HN  UNK N   1      24.820  18.263   6.072  1.00  0.00     0.186 HD
HETATM    9  N   UNK N   1      22.897  18.498   4.371  0.00  0.00    -0.192 N 
HETATM   10  H   UNK N   1      22.235  18.674   3.663  0.00  0.00     0.184 HD
ENDROOT
BRANCH   9  11
HETATM   11  C   UNK N   1      22.563  17.650   5.455  0.00  0.00     0.049 A 
HETATM   12  C   UNK N   1      21.505  18.009   6.290  0.00  0.00     0.033 A 
HETATM   13  C   UNK N   1      21.000  17.093   7.215  0.00  0.00     0.039 A 
HETATM   14  C   UNK N   1      21.555  15.813   7.316  0.00  0.00     0.069 A 
HETATM   15  C   UNK N   1      22.654  15.470   6.510  0.00  0.00     0.039 A 
HETATM   16  C   UNK N   1      23.144  16.378   5.577  0.00  0.00     0.033 A 
BRANCH  14  17
HETATM   17  O   UNK N   1      21.009  14.922   8.174  0.00  0.00    -0.349 OA
BRANCH  17  18
HETATM   18  C   UNK N   1      21.090  13.560   7.979  0.00  0.00     0.209 C 
BRANCH  18  19
HETATM   19  C   UNK N   1      21.346  12.799   9.271  0.00  0.00     0.170 C 
BRANCH  19  20
HETATM   20  C   UNK N   1      22.646  13.355   9.835  0.00  0.00     0.305 C 
BRANCH  20  21
HETATM   21  N   UNK N   1      23.779  12.494   9.546  0.00  0.00     0.082 N 
HETATM   22  C   UNK N   1      24.771  13.300   8.860  0.00  0.00     0.309 C 
HETATM   23  C   UNK N   1      24.348  12.138  10.833  0.00  0.00     0.309 C 
ENDBRANCH  20  21
ENDBRANCH  19  20
BRANCH  19  24
HETATM   24  O   UNK N   1      20.295  13.013  10.165  0.00  0.00    -0.392 OA
HETATM   25  H   UNK N   1      19.841  13.480  10.884  0.00  0.00     0.210 HD
ENDBRANCH  19  24
ENDBRANCH  18  19
ENDBRANCH  17  18
ENDBRANCH  14  17
ENDBRANCH   9  11
BRANCH   5  26
HETATM   26  N   UNK N   1      27.195  19.129   6.358  0.00  0.00    -0.341 N 
HETATM   27  H   UNK N   1      26.971  19.593   7.197  0.00  0.00     0.167 HD
BRANCH  26  28
HETATM   28  C   UNK N   1      28.344  18.290   6.369  0.00  0.00     0.057 A 
HETATM   29  C   UNK N   1      28.867  17.845   7.595  0.00  0.00     0.060 A 
HETATM   30  C   UNK N   1      30.040  17.081   7.617  0.00  0.00     0.028 A 
HETATM   31 Cl   UNK N   1      28.094  18.263   9.117  0.00  0.00    -0.082 Cl
HETATM   32  C   UNK N   1      30.692  16.759   6.424  0.00  0.00     0.026 A 
HETATM   33  C   UNK N   1      30.173  17.200   5.205  0.00  0.00     0.036 A 
HETATM   34  C   UNK N   1      29.011  17.963   5.182  0.00  0.00     0.055 A 
HETATM   35 Cl   UNK N   1      30.982  16.815   3.703  0.00  0.00    -0.084 Cl
ENDBRANCH  26  28
ENDBRANCH   5  26
TORSDOF 9
ENDMDL
MODEL 2
REMARK VINA RESULT:      -7.2      7.603     11.329
REMARK  9 active torsions:
REMARK  status: ('A' for Active; 'I' for Inactive)
REMARK    1  A    between atoms: C_1  and  O_22 
REMARK    2  A    between atoms: C_1  and  C_27 
REMARK       I    between atoms: C_5  and  N_24 
REMARK    3  A    between atoms: C_6  and  N_23 
REMARK    4  A    between atoms: C_13  and  N_23 
REMARK    5  A    between atoms: C_18  and  N_24 
REMARK    6  A    between atoms: C_19  and  O_22 
REMARK    7  A    between atoms: C_27  and  C_28 
REMARK    8  A    between atoms: C_27  and  O_32 
REMARK    9  A    between atoms: C_28  and  N_29 
ROOT
HETATM    1  N   UNK N   1      36.996  13.570   8.560  0.00  0.00    -0.202 N 
ATOM      2  HN  UNK N   1      37.554  13.741   7.723  1.00  0.00     0.183 HD
HETATM    3  C   UNK N   1      37.439  12.695   9.504  0.00  0.00     0.110 A 
HETATM    4  C   UNK N   1      35.815  14.216   8.725  0.00  0.00     0.684 A 
HETATM    5  C   UNK N   1      35.469  13.142  10.808  0.00  0.00     0.122 A 
HETATM    6  C   UNK N   1      36.685  12.469  10.657  0.00  0.00     0.066 A 
HETATM    7  N   UNK N   1      35.061  13.982   9.832  0.00  0.00    -0.176 N 
ATOM      8  HN  UNK N   1      34.161  14.453   9.928  1.00  0.00     0.186 HD
HETATM    9  N   UNK N   1      35.316  15.072   7.707  0.00  0.00    -0.192 N 
HETATM   10  H   UNK N   1      35.857  15.247   6.903  0.00  0.00     0.184 HD
ENDROOT
BRANCH   9  11
HETATM   11  C   UNK N   1      34.042  15.676   7.845  0.00  0.00     0.049 A 
HETATM   12  C   UNK N   1      32.902  14.889   7.675  0.00  0.00     0.033 A 
HETATM   13  C   UNK N   1      31.647  15.387   8.032  0.00  0.00     0.039 A 
HETATM   14  C   UNK N   1      31.523  16.679   8.555  0.00  0.00     0.069 A 
HETATM   15  C   UNK N   1      32.665  17.488   8.679  0.00  0.00     0.039 A 
HETATM   16  C   UNK N   1      33.917  16.984   8.339  0.00  0.00     0.033 A 
BRANCH  14  17
HETATM   17  O   UNK N   1      30.307  17.117   8.953  0.00  0.00    -0.349 OA
BRANCH  17  18
HETATM   18  C   UNK N   1      29.894  18.419   8.777  0.00  0.00     0.209 C 
BRANCH  18  19
HETATM   19  C   UNK N   1      28.422  18.521   8.406  0.00  0.00     0.170 C 
BRANCH  19  20
HETATM   20  C   UNK N   1      28.217  17.570   7.235  0.00  0.00     0.305 C 
BRANCH  20  21
HETATM   21  N   UNK N   1      28.689  18.135   5.984  0.00  0.00     0.082 N 
HETATM   22  C   UNK N   1      29.522  17.133   5.345  0.00  0.00     0.309 C 
HETATM   23  C   UNK N   1      27.513  18.294   5.149  0.00  0.00     0.309 C 
ENDBRANCH  20  21
ENDBRANCH  19  20
BRANCH  19  24
HETATM   24  O   UNK N   1      27.632  18.136   9.491  0.00  0.00    -0.392 OA
HETATM   25  H   UNK N   1      26.853  18.187  10.067  0.00  0.00     0.210 HD
ENDBRANCH  19  24
ENDBRANCH  18  19
ENDBRANCH  17  18
ENDBRANCH  14  17
ENDBRANCH   9  11
BRANCH   5  26
HETATM   26  N   UNK N   1      34.665  13.031  11.976  0.00  0.00    -0.341 N 
HETATM   27  H   UNK N   1      33.690  12.987  11.848  0.00  0.00     0.167 HD
BRANCH  26  28
HETATM   28  C   UNK N   1      35.146  12.978  13.314  0.00  0.00     0.057 A 
HETATM   29  C   UNK N   1      34.737  11.931  14.159  0.00  0.00     0.060 A 
HETATM   30  C   UNK N   1      35.146  11.914  15.497  0.00  0.00     0.028 A 
HETATM   31 Cl   UNK N   1      33.682  10.653  13.573  0.00  0.00    -0.082 Cl
HETATM   32  C   UNK N   1      35.960  12.934  15.997  0.00  0.00     0.026 A 
HETATM   33  C   UNK N   1      36.368  13.974  15.159  0.00  0.00     0.036 A 
HETATM   34  C   UNK N   1      35.958  13.996  13.831  0.00  0.00     0.055 A 
HETATM   35 Cl   UNK N   1      37.377  15.264  15.771  0.00  0.00    -0.084 Cl
ENDBRANCH  26  28
ENDBRANCH   5  26
TORSDOF 9
ENDMDL
MODEL 3
REMARK VINA RESULT:      -7.1      7.492     11.199
REMARK  9 active torsions:
REMARK  status: ('A' for Active; 'I' for Inactive)
REMARK    1  A    between atoms: C_1  and  O_22 
REMARK    2  A    between atoms: C_1  and  C_27 
REMARK       I    between atoms: C_5  and  N_24 
REMARK    3  A    between atoms: C_6  and  N_23 
REMARK    4  A    between atoms: C_13  and  N_23 
REMARK    5  A    between atoms: C_18  and  N_24 
REMARK    6  A    between atoms: C_19  and  O_22 
REMARK    7  A    between atoms: C_27  and  C_28 
REMARK    8  A    between atoms: C_27  and  O_32 
REMARK    9  A    between atoms: C_28  and  N_29 
ROOT
HETATM    1  N   UNK N   1      36.677  13.261   8.042  0.00  0.00    -0.202 N 
ATOM      2  HN  UNK N   1      37.213  13.311   7.175  1.00  0.00     0.183 HD
HETATM    3  C   UNK N   1      36.973  12.307   8.968  0.00  0.00     0.110 A 
HETATM    4  C   UNK N   1      35.673  14.145   8.265  0.00  0.00     0.684 A 
HETATM    5  C   UNK N   1      35.218  13.162  10.372  0.00  0.00     0.122 A 
HETATM    6  C   UNK N   1      36.251  12.244  10.162  0.00  0.00     0.066 A 
HETATM    7  N   UNK N   1      34.947  14.073   9.413  0.00  0.00    -0.176 N 
ATOM      8  HN  UNK N   1      34.176  14.726   9.553  1.00  0.00     0.186 HD
HETATM    9  N   UNK N   1      35.314  15.092   7.268  0.00  0.00    -0.192 N 
HETATM   10  H   UNK N   1      35.836  15.149   6.435  0.00  0.00     0.184 HD
ENDROOT
BRANCH   9  11
HETATM   11  C   UNK N   1      34.209  15.954   7.470  0.00  0.00     0.049 A 
HETATM   12  C   UNK N   1      32.920  15.426   7.389  0.00  0.00     0.033 A 
HETATM   13  C   UNK N   1      31.825  16.184   7.811  0.00  0.00     0.039 A 
HETATM   14  C   UNK N   1      32.011  17.478   8.309  0.00  0.00     0.069 A 
HETATM   15  C   UNK N   1      33.304  18.026   8.342  0.00  0.00     0.039 A 
HETATM   16  C   UNK N   1      34.396  17.264   7.939  0.00  0.00     0.033 A 
BRANCH  14  17
HETATM   17  O   UNK N   1      30.944  18.168   8.770  0.00  0.00    -0.349 OA
BRANCH  17  18
HETATM   18  C   UNK N   1      29.718  17.578   8.987  0.00  0.00     0.209 C 
BRANCH  18  19
HETATM   19  C   UNK N   1      28.560  18.543   8.781  0.00  0.00     0.170 C 
BRANCH  19  20
HETATM   20  C   UNK N   1      28.349  18.630   7.275  0.00  0.00     0.305 C 
BRANCH  20  21
HETATM   21  N   UNK N   1      28.525  17.344   6.625  0.00  0.00     0.082 N 
HETATM   22  C   UNK N   1      27.214  16.896   6.192  0.00  0.00     0.309 C 
HETATM   23  C   UNK N   1      29.294  17.607   5.422  0.00  0.00     0.309 C 
ENDBRANCH  20  21
ENDBRANCH  19  20
BRANCH  19  24
HETATM   24  O   UNK N   1      27.413  18.049   9.406  0.00  0.00    -0.392 OA
HETATM   25  H   UNK N   1      26.934  17.565  10.097  0.00  0.00     0.210 HD
ENDBRANCH  19  24
ENDBRANCH  18  19
ENDBRANCH  17  18
ENDBRANCH  14  17
ENDBRANCH   9  11
BRANCH   5  26
HETATM   26  N   UNK N   1      34.473  13.222  11.583  0.00  0.00    -0.341 N 
HETATM   27  H   UNK N   1      33.536  13.515  11.520  0.00  0.00     0.167 HD
BRANCH  26  28
HETATM   28  C   UNK N   1      34.964  12.895  12.877  0.00  0.00     0.057 A 
HETATM   29  C   UNK N   1      35.814  13.794  13.546  0.00  0.00     0.060 A 
HETATM   30  C   UNK N   1      36.359  13.447  14.787  0.00  0.00     0.028 A 
HETATM   31 Cl   UNK N   1      36.238  15.343  12.831  0.00  0.00    -0.082 Cl
HETATM   32  C   UNK N   1      36.063  12.210  15.365  0.00  0.00     0.026 A 
HETATM   33  C   UNK N   1      35.219  11.316  14.703  0.00  0.00     0.036 A 
HETATM   34  C   UNK N   1      34.680  11.657  13.467  0.00  0.00     0.055 A 
HETATM   35 Cl   UNK N   1      34.846   9.759  15.406  0.00  0.00    -0.084 Cl
ENDBRANCH  26  28
ENDBRANCH   5  26
TORSDOF 9
ENDMDL
MODEL 4
REMARK VINA RESULT:      -7.0     14.014     15.557
REMARK  9 active torsions:
REMARK  status: ('A' for Active; 'I' for Inactive)
REMARK    1  A    between atoms: C_1  and  O_22 
REMARK    2  A    between atoms: C_1  and  C_27 
REMARK       I    between atoms: C_5  and  N_24 
REMARK    3  A    between atoms: C_6  and  N_23 
REMARK    4  A    between atoms: C_13  and  N_23 
REMARK    5  A    between atoms: C_18  and  N_24 
REMARK    6  A    between atoms: C_19  and  O_22 
REMARK    7  A    between atoms: C_27  and  C_28 
REMARK    8  A    between atoms: C_27  and  O_32 
REMARK    9  A    between atoms: C_28  and  N_29 
ROOT
HETATM    1  N   UNK N   1      26.228  21.920  -7.662  0.00  0.00    -0.202 N 
ATOM      2  HN  UNK N   1      25.272  21.750  -7.973  1.00  0.00     0.183 HD
HETATM    3  C   UNK N   1      27.211  21.030  -7.972  0.00  0.00     0.110 A 
HETATM    4  C   UNK N   1      26.514  23.033  -6.942  0.00  0.00     0.684 A 
HETATM    5  C   UNK N   1      28.799  22.416  -6.816  0.00  0.00     0.122 A 
HETATM    6  C   UNK N   1      28.524  21.266  -7.560  0.00  0.00     0.066 A 
HETATM    7  N   UNK N   1      27.785  23.257  -6.513  0.00  0.00    -0.176 N 
ATOM      8  HN  UNK N   1      27.978  24.083  -5.947  1.00  0.00     0.186 HD
HETATM    9  N   UNK N   1      25.478  23.924  -6.554  0.00  0.00    -0.192 N 
HETATM   10  H   UNK N   1      24.555  23.768  -6.862  0.00  0.00     0.184 HD
ENDROOT
BRANCH   9  11
HETATM   11  C   UNK N   1      25.767  25.037  -5.728  0.00  0.00     0.049 A 
HETATM   12  C   UNK N   1      25.433  26.315  -6.178  0.00  0.00     0.033 A 
HETATM   13  C   UNK N   1      25.486  27.402  -5.303  0.00  0.00     0.039 A 
HETATM   14  C   UNK N   1      25.880  27.220  -3.972  0.00  0.00     0.069 A 
HETATM   15  C   UNK N   1      26.263  25.941  -3.534  0.00  0.00     0.039 A 
HETATM   16  C   UNK N   1      26.194  24.856  -4.402  0.00  0.00     0.033 A 
BRANCH  14  17
HETATM   17  O   UNK N   1      25.861  28.275  -3.128  0.00  0.00    -0.349 OA
BRANCH  17  18
HETATM   18  C   UNK N   1      26.533  29.449  -3.394  0.00  0.00     0.209 C 
BRANCH  18  19
HETATM   19  C   UNK N   1      27.763  29.630  -2.517  0.00  0.00     0.170 C 
BRANCH  19  20
HETATM   20  C   UNK N   1      28.964  29.469  -3.439  0.00  0.00     0.305 C 
BRANCH  20  21
HETATM   21  N   UNK N   1      29.322  28.075  -3.630  0.00  0.00     0.082 N 
HETATM   22  C   UNK N   1      29.438  27.850  -5.058  0.00  0.00     0.309 C 
HETATM   23  C   UNK N   1      30.655  27.926  -3.074  0.00  0.00     0.309 C 
ENDBRANCH  20  21
ENDBRANCH  19  20
BRANCH  19  24
HETATM   24  O   UNK N   1      27.755  30.904  -1.946  0.00  0.00    -0.392 OA
HETATM   25  H   UNK N   1      28.101  31.799  -1.799  0.00  0.00     0.210 HD
ENDBRANCH  19  24
ENDBRANCH  18  19
ENDBRANCH  17  18
ENDBRANCH  14  17
ENDBRANCH   9  11
BRANCH   5  26
HETATM   26  N   UNK N   1      30.113  22.779  -6.411  0.00  0.00    -0.341 N 
HETATM   27  H   UNK N   1      30.594  23.428  -6.973  0.00  0.00     0.167 HD
BRANCH  26  28
HETATM   28  C   UNK N   1      30.795  22.285  -5.264  0.00  0.00     0.057 A 
HETATM   29  C   UNK N   1      30.706  22.985  -4.048  0.00  0.00     0.060 A 
HETATM   30  C   UNK N   1      31.433  22.546  -2.935  0.00  0.00     0.028 A 
HETATM   31 Cl   UNK N   1      29.721  24.434  -3.906  0.00  0.00    -0.082 Cl
HETATM   32  C   UNK N   1      32.248  21.415  -3.028  0.00  0.00     0.026 A 
HETATM   33  C   UNK N   1      32.336  20.718  -4.235  0.00  0.00     0.036 A 
HETATM   34  C   UNK N   1      31.619  21.155  -5.343  0.00  0.00     0.055 A 
HETATM   35 Cl   UNK N   1      33.359  19.307  -4.373  0.00  0.00    -0.084 Cl
ENDBRANCH  26  28
ENDBRANCH   5  26
TORSDOF 9
ENDMDL
MODEL 5
REMARK VINA RESULT:      -7.0      3.889      7.518
REMARK  9 active torsions:
REMARK  status: ('A' for Active; 'I' for Inactive)
REMARK    1  A    between atoms: C_1  and  O_22 
REMARK    2  A    between atoms: C_1  and  C_27 
REMARK       I    between atoms: C_5  and  N_24 
REMARK    3  A    between atoms: C_6  and  N_23 
REMARK    4  A    between atoms: C_13  and  N_23 
REMARK    5  A    between atoms: C_18  and  N_24 
REMARK    6  A    between atoms: C_19  and  O_22 
REMARK    7  A    between atoms: C_27  and  C_28 
REMARK    8  A    between atoms: C_27  and  O_32 
REMARK    9  A    between atoms: C_28  and  N_29 
ROOT
HETATM    1  N   UNK N   1      22.441  20.193   2.850  0.00  0.00    -0.202 N 
ATOM      2  HN  UNK N   1      22.469  21.062   2.317  1.00  0.00     0.183 HD
HETATM    3  C   UNK N   1      21.288  19.470   2.909  0.00  0.00     0.110 A 
HETATM    4  C   UNK N   1      23.552  19.763   3.498  0.00  0.00     0.684 A 
HETATM    5  C   UNK N   1      22.403  17.848   4.289  0.00  0.00     0.122 A 
HETATM    6  C   UNK N   1      21.249  18.273   3.626  0.00  0.00     0.066 A 
HETATM    7  N   UNK N   1      23.515  18.613   4.221  0.00  0.00    -0.176 N 
ATOM      8  HN  UNK N   1      24.351  18.319   4.727  1.00  0.00     0.186 HD
HETATM    9  N   UNK N   1      24.733  20.554   3.500  0.00  0.00    -0.192 N 
HETATM   10  H   UNK N   1      24.766  21.388   2.977  0.00  0.00     0.184 HD
ENDROOT
BRANCH   9  11
HETATM   11  C   UNK N   1      25.863  20.144   4.250  0.00  0.00     0.049 A 
HETATM   12  C   UNK N   1      26.102  20.744   5.487  0.00  0.00     0.033 A 
HETATM   13  C   UNK N   1      27.059  20.207   6.352  0.00  0.00     0.039 A 
HETATM   14  C   UNK N   1      27.787  19.071   5.982  0.00  0.00     0.069 A 
HETATM   15  C   UNK N   1      27.580  18.499   4.716  0.00  0.00     0.039 A 
HETATM   16  C   UNK N   1      26.615  19.024   3.863  0.00  0.00     0.033 A 
BRANCH  14  17
HETATM   17  O   UNK N   1      28.662  18.533   6.861  0.00  0.00    -0.349 OA
BRANCH  17  18
HETATM   18  C   UNK N   1      28.562  18.731   8.221  0.00  0.00     0.209 C 
BRANCH  18  19
HETATM   19  C   UNK N   1      29.388  17.733   9.019  0.00  0.00     0.170 C 
BRANCH  19  20
HETATM   20  C   UNK N   1      30.445  17.201   8.062  0.00  0.00     0.305 C 
BRANCH  20  21
HETATM   21  N   UNK N   1      31.730  17.022   8.714  0.00  0.00     0.082 N 
HETATM   22  C   UNK N   1      32.131  15.643   8.506  0.00  0.00     0.309 C 
HETATM   23  C   UNK N   1      32.670  17.846   7.976  0.00  0.00     0.309 C 
ENDBRANCH  20  21
ENDBRANCH  19  20
BRANCH  19  24
HETATM   24  O   UNK N   1      29.990  18.375  10.104  0.00  0.00    -0.392 OA
HETATM   25  H   UNK N   1      30.524  18.408  10.913  0.00  0.00     0.210 HD
ENDBRANCH  19  24
ENDBRANCH  18  19
ENDBRANCH  17  18
ENDBRANCH  14  17
ENDBRANCH   9  11
BRANCH   5  26
HETATM   26  N   UNK N   1      22.482  16.611   4.987  0.00  0.00    -0.341 N 
HETATM   27  H   UNK N   1      22.974  15.879   4.550  0.00  0.00     0.167 HD
BRANCH  26  28
HETATM   28  C   UNK N   1      21.913  16.339   6.262  0.00  0.00     0.057 A 
HETATM   29  C   UNK N   1      22.104  15.077   6.853  0.00  0.00     0.060 A 
HETATM   30  C   UNK N   1      21.486  14.777   8.072  0.00  0.00     0.028 A 
HETATM   31 Cl   UNK N   1      23.082  13.846   6.066  0.00  0.00    -0.082 Cl
HETATM   32  C   UNK N   1      20.679  15.726   8.704  0.00  0.00     0.026 A 
HETATM   33  C   UNK N   1      20.489  16.980   8.119  0.00  0.00     0.036 A 
HETATM   34  C   UNK N   1      21.098  17.278   6.905  0.00  0.00     0.055 A 
HETATM   35 Cl   UNK N   1      19.474  18.176   8.891  0.00  0.00    -0.084 Cl
ENDBRANCH  26  28
ENDBRANCH   5  26
TORSDOF 9
ENDMDL
MODEL 6
REMARK VINA RESULT:      -6.9     14.456     15.964
REMARK  9 active torsions:
REMARK  status: ('A' for Active; 'I' for Inactive)
REMARK    1  A    between atoms: C_1  and  O_22 
REMARK    2  A    between atoms: C_1  and  C_27 
REMARK       I    between atoms: C_5  and  N_24 
REMARK    3  A    between atoms: C_6  and  N_23 
REMARK    4  A    between atoms: C_13  and  N_23 
REMARK    5  A    between atoms: C_18  and  N_24 
REMARK    6  A    between atoms: C_19  and  O_22 
REMARK    7  A    between atoms: C_27  and  C_28 
REMARK    8  A    between atoms: C_27  and  O_32 
REMARK    9  A    between atoms: C_28  and  N_29 
ROOT
HETATM    1  N   UNK N   1      28.060  29.927  -1.986  0.00  0.00    -0.202 N 
ATOM      2  HN  UNK N   1      27.360  30.495  -1.509  1.00  0.00     0.183 HD
HETATM    3  C   UNK N   1      29.380  30.244  -1.875  0.00  0.00     0.110 A 
HETATM    4  C   UNK N   1      27.671  28.861  -2.728  0.00  0.00     0.684 A 
HETATM    5  C   UNK N   1      29.923  28.368  -3.277  0.00  0.00     0.122 A 
HETATM    6  C   UNK N   1      30.343  29.462  -2.515  0.00  0.00     0.066 A 
HETATM    7  N   UNK N   1      28.600  28.109  -3.376  0.00  0.00    -0.176 N 
ATOM      8  HN  UNK N   1      28.290  27.328  -3.954  1.00  0.00     0.186 HD
HETATM    9  N   UNK N   1      26.291  28.574  -2.905  0.00  0.00    -0.192 N 
HETATM   10  H   UNK N   1      25.613  29.114  -2.437  0.00  0.00     0.184 HD
ENDROOT
BRANCH   9  11
HETATM   11  C   UNK N   1      25.887  27.512  -3.751  0.00  0.00     0.049 A 
HETATM   12  C   UNK N   1      25.234  27.815  -4.946  0.00  0.00     0.033 A 
HETATM   13  C   UNK N   1      25.034  26.822  -5.907  0.00  0.00     0.039 A 
HETATM   14  C   UNK N   1      25.481  25.516  -5.677  0.00  0.00     0.069 A 
HETATM   15  C   UNK N   1      26.094  25.201  -4.453  0.00  0.00     0.039 A 
HETATM   16  C   UNK N   1      26.308  26.196  -3.504  0.00  0.00     0.033 A 
BRANCH  14  17
HETATM   17  O   UNK N   1      25.333  24.587  -6.647  0.00  0.00    -0.349 OA
BRANCH  17  18
HETATM   18  C   UNK N   1      25.848  24.751  -7.915  0.00  0.00     0.209 C 
BRANCH  18  19
HETATM   19  C   UNK N   1      25.302  23.733  -8.904  0.00  0.00     0.170 C 
BRANCH  19  20
HETATM   20  C   UNK N   1      26.508  22.963  -9.424  0.00  0.00     0.305 C 
BRANCH  20  21
HETATM   21  N   UNK N   1      27.609  22.971  -8.478  0.00  0.00     0.082 N 
HETATM   22  C   UNK N   1      27.702  21.638  -7.913  0.00  0.00     0.309 C 
HETATM   23  C   UNK N   1      28.811  23.174  -9.267  0.00  0.00     0.309 C 
ENDBRANCH  20  21
ENDBRANCH  19  20
BRANCH  19  24
HETATM   24  O   UNK N   1      24.416  22.869  -8.256  0.00  0.00    -0.392 OA
HETATM   25  H   UNK N   1      23.928  22.038  -8.147  0.00  0.00     0.210 HD
ENDBRANCH  19  24
ENDBRANCH  18  19
ENDBRANCH  17  18
ENDBRANCH  14  17
ENDBRANCH   9  11
BRANCH   5  26
HETATM   26  N   UNK N   1      30.829  27.473  -3.909  0.00  0.00    -0.341 N 
HETATM   27  H   UNK N   1      31.731  27.813  -4.110  0.00  0.00     0.167 HD
BRANCH  26  28
HETATM   28  C   UNK N   1      30.549  26.127  -4.276  0.00  0.00     0.057 A 
HETATM   29  C   UNK N   1      29.967  25.855  -5.527  0.00  0.00     0.060 A 
HETATM   30  C   UNK N   1      29.621  24.542  -5.864  0.00  0.00     0.028 A 
HETATM   31 Cl   UNK N   1      29.631  27.147  -6.670  0.00  0.00    -0.082 Cl
HETATM   32  C   UNK N   1      29.849  23.499  -4.962  0.00  0.00     0.026 A 
HETATM   33  C   UNK N   1      30.427  23.768  -3.720  0.00  0.00     0.036 A 
HETATM   34  C   UNK N   1      30.768  25.073  -3.381  0.00  0.00     0.055 A 
HETATM   35 Cl   UNK N   1      30.711  22.478  -2.574  0.00  0.00    -0.084 Cl
ENDBRANCH  26  28
ENDBRANCH   5  26
TORSDOF 9
ENDMDL
MODEL 7
REMARK VINA RESULT:      -6.8      6.197      9.455
REMARK  9 active torsions:
REMARK  status: ('A' for Active; 'I' for Inactive)
REMARK    1  A    between atoms: C_1  and  O_22 
REMARK    2  A    between atoms: C_1  and  C_27 
REMARK       I    between atoms: C_5  and  N_24 
REMARK    3  A    between atoms: C_6  and  N_23 
REMARK    4  A    between atoms: C_13  and  N_23 
REMARK    5  A    between atoms: C_18  and  N_24 
REMARK    6  A    between atoms: C_19  and  O_22 
REMARK    7  A    between atoms: C_27  and  C_28 
REMARK    8  A    between atoms: C_27  and  O_32 
REMARK    9  A    between atoms: C_28  and  N_29 
ROOT
HETATM    1  N   UNK N   1      27.811  17.701   6.371  0.00  0.00    -0.202 N 
ATOM      2  HN  UNK N   1      27.136  17.918   7.104  1.00  0.00     0.183 HD
HETATM    3  C   UNK N   1      27.396  17.595   5.078  0.00  0.00     0.110 A 
HETATM    4  C   UNK N   1      29.116  17.520   6.689  0.00  0.00     0.684 A 
HETATM    5  C   UNK N   1      29.660  17.126   4.416  0.00  0.00     0.122 A 
HETATM    6  C   UNK N   1      28.319  17.313   4.069  0.00  0.00     0.066 A 
HETATM    7  N   UNK N   1      30.017  17.218   5.716  0.00  0.00    -0.176 N 
ATOM      8  HN  UNK N   1      30.990  17.056   5.975  1.00  0.00     0.186 HD
HETATM    9  N   UNK N   1      29.537  17.557   8.045  0.00  0.00    -0.192 N 
HETATM   10  H   UNK N   1      28.890  17.776   8.754  0.00  0.00     0.184 HD
ENDROOT
BRANCH   9  11
HETATM   11  C   UNK N   1      30.885  17.280   8.381  0.00  0.00     0.049 A 
HETATM   12  C   UNK N   1      31.267  15.956   8.598  0.00  0.00     0.033 A 
HETATM   13  C   UNK N   1      32.620  15.624   8.696  0.00  0.00     0.039 A 
HETATM   14  C   UNK N   1      33.600  16.616   8.585  0.00  0.00     0.069 A 
HETATM   15  C   UNK N   1      33.213  17.955   8.417  0.00  0.00     0.039 A 
HETATM   16  C   UNK N   1      31.865  18.282   8.301  0.00  0.00     0.033 A 
BRANCH  14  17
HETATM   17  O   UNK N   1      34.905  16.262   8.620  0.00  0.00    -0.349 OA
BRANCH  17  18
HETATM   18  C   UNK N   1      35.382  15.273   9.453  0.00  0.00     0.209 C 
BRANCH  18  19
HETATM   19  C   UNK N   1      35.718  15.793  10.843  0.00  0.00     0.170 C 
BRANCH  19  20
HETATM   20  C   UNK N   1      35.338  14.680  11.811  0.00  0.00     0.305 C 
BRANCH  20  21
HETATM   21  N   UNK N   1      36.494  14.142  12.504  0.00  0.00     0.082 N 
HETATM   22  C   UNK N   1      36.179  14.125  13.920  0.00  0.00     0.309 C 
HETATM   23  C   UNK N   1      36.602  12.757  12.084  0.00  0.00     0.309 C 
ENDBRANCH  20  21
ENDBRANCH  19  20
BRANCH  19  24
HETATM   24  O   UNK N   1      37.084  16.068  10.930  0.00  0.00    -0.392 OA
HETATM   25  H   UNK N   1      37.853  16.648  11.051  0.00  0.00     0.210 HD
ENDBRANCH  19  24
ENDBRANCH  18  19
ENDBRANCH  17  18
ENDBRANCH  14  17
ENDBRANCH   9  11
BRANCH   5  26
HETATM   26  N   UNK N   1      30.684  16.904   3.454  0.00  0.00    -0.341 N 
HETATM   27  H   UNK N   1      30.719  17.517   2.685  0.00  0.00     0.167 HD
BRANCH  26  28
HETATM   28  C   UNK N   1      31.662  15.873   3.506  0.00  0.00     0.057 A 
HETATM   29  C   UNK N   1      32.925  16.140   4.063  0.00  0.00     0.060 A 
HETATM   30  C   UNK N   1      33.917  15.152   4.050  0.00  0.00     0.028 A 
HETATM   31 Cl   UNK N   1      33.299  17.715   4.748  0.00  0.00    -0.082 Cl
HETATM   32  C   UNK N   1      33.657  13.901   3.485  0.00  0.00     0.026 A 
HETATM   33  C   UNK N   1      32.403  13.634   2.932  0.00  0.00     0.036 A 
HETATM   34  C   UNK N   1      31.418  14.615   2.939  0.00  0.00     0.055 A 
HETATM   35 Cl   UNK N   1      32.063  12.077   2.211  0.00  0.00    -0.084 Cl
ENDBRANCH  26  28
ENDBRANCH   5  26
TORSDOF 9
ENDMDL
MODEL 8
REMARK VINA RESULT:      -6.8     13.719     15.743
REMARK  9 active torsions:
REMARK  status: ('A' for Active; 'I' for Inactive)
REMARK    1  A    between atoms: C_1  and  O_22 
REMARK    2  A    between atoms: C_1  and  C_27 
REMARK       I    between atoms: C_5  and  N_24 
REMARK    3  A    between atoms: C_6  and  N_23 
REMARK    4  A    between atoms: C_13  and  N_23 
REMARK    5  A    between atoms: C_18  and  N_24 
REMARK    6  A    between atoms: C_19  and  O_22 
REMARK    7  A    between atoms: C_27  and  C_28 
REMARK    8  A    between atoms: C_27  and  O_32 
REMARK    9  A    between atoms: C_28  and  N_29 
ROOT
HETATM    1  N   UNK N   1      25.294  22.451  -7.749  0.00  0.00    -0.202 N 
ATOM      2  HN  UNK N   1      24.297  22.491  -7.958  1.00  0.00     0.183 HD
HETATM    3  C   UNK N   1      26.050  21.434  -8.247  0.00  0.00     0.110 A 
HETATM    4  C   UNK N   1      25.860  23.411  -6.977  0.00  0.00     0.684 A 
HETATM    5  C   UNK N   1      27.984  22.379  -7.175  0.00  0.00     0.122 A 
HETATM    6  C   UNK N   1      27.419  21.382  -7.975  0.00  0.00     0.066 A 
HETATM    7  N   UNK N   1      27.187  23.354  -6.684  0.00  0.00    -0.176 N 
ATOM      8  HN  UNK N   1      27.592  24.067  -6.078  1.00  0.00     0.186 HD
HETATM    9  N   UNK N   1      25.059  24.430  -6.395  0.00  0.00    -0.192 N 
HETATM   10  H   UNK N   1      24.098  24.478  -6.603  0.00  0.00     0.184 HD
ENDROOT
BRANCH   9  11
HETATM   11  C   UNK N   1      25.639  25.379  -5.518  0.00  0.00     0.049 A 
HETATM   12  C   UNK N   1      25.443  26.737  -5.770  0.00  0.00     0.033 A 
HETATM   13  C   UNK N   1      25.795  27.687  -4.808  0.00  0.00     0.039 A 
HETATM   14  C   UNK N   1      26.353  27.284  -3.590  0.00  0.00     0.069 A 
HETATM   15  C   UNK N   1      26.596  25.920  -3.358  0.00  0.00     0.039 A 
HETATM   16  C   UNK N   1      26.229  24.974  -4.310  0.00  0.00     0.033 A 
BRANCH  14  17
HETATM   17  O   UNK N   1      26.627  28.215  -2.649  0.00  0.00    -0.349 OA
BRANCH  17  18
HETATM   18  C   UNK N   1      27.377  29.340  -2.916  0.00  0.00     0.209 C 
BRANCH  18  19
HETATM   19  C   UNK N   1      28.873  29.074  -2.851  0.00  0.00     0.170 C 
BRANCH  19  20
HETATM   20  C   UNK N   1      29.398  29.277  -4.266  0.00  0.00     0.305 C 
BRANCH  20  21
HETATM   21  N   UNK N   1      30.145  28.126  -4.740  0.00  0.00     0.082 N 
HETATM   22  C   UNK N   1      30.148  27.143  -3.674  0.00  0.00     0.309 C 
HETATM   23  C   UNK N   1      29.363  27.563  -5.826  0.00  0.00     0.309 C 
ENDBRANCH  20  21
ENDBRANCH  19  20
BRANCH  19  24
HETATM   24  O   UNK N   1      29.478  29.976  -1.973  0.00  0.00    -0.392 OA
HETATM   25  H   UNK N   1      29.912  30.812  -1.740  0.00  0.00     0.210 HD
ENDBRANCH  19  24
ENDBRANCH  18  19
ENDBRANCH  17  18
ENDBRANCH  14  17
ENDBRANCH   9  11
BRANCH   5  26
HETATM   26  N   UNK N   1      29.377  22.451  -6.900  0.00  0.00    -0.341 N 
HETATM   27  H   UNK N   1      29.956  22.826  -7.602  0.00  0.00     0.167 HD
BRANCH  26  28
HETATM   28  C   UNK N   1      30.010  22.029  -5.697  0.00  0.00     0.057 A 
HETATM   29  C   UNK N   1      30.858  20.908  -5.715  0.00  0.00     0.060 A 
HETATM   30  C   UNK N   1      31.425  20.443  -4.523  0.00  0.00     0.028 A 
HETATM   31 Cl   UNK N   1      31.195  20.050  -7.212  0.00  0.00    -0.082 Cl
HETATM   32  C   UNK N   1      31.150  21.088  -3.314  0.00  0.00     0.026 A 
HETATM   33  C   UNK N   1      30.308  22.202  -3.295  0.00  0.00     0.036 A 
HETATM   34  C   UNK N   1      29.740  22.662  -4.478  0.00  0.00     0.055 A 
HETATM   35 Cl   UNK N   1      29.945  23.015  -1.790  0.00  0.00    -0.084 Cl
ENDBRANCH  26  28
ENDBRANCH   5  26
TORSDOF 9
ENDMDL
MODEL 9
REMARK VINA RESULT:      -6.8      5.574      9.321
REMARK  9 active torsions:
REMARK  status: ('A' for Active; 'I' for Inactive)
REMARK    1  A    between atoms: C_1  and  O_22 
REMARK    2  A    between atoms: C_1  and  C_27 
REMARK       I    between atoms: C_5  and  N_24 
REMARK    3  A    between atoms: C_6  and  N_23 
REMARK    4  A    between atoms: C_13  and  N_23 
REMARK    5  A    between atoms: C_18  and  N_24 
REMARK    6  A    between atoms: C_19  and  O_22 
REMARK    7  A    between atoms: C_27  and  C_28 
REMARK    8  A    between atoms: C_27  and  O_32 
REMARK    9  A    between atoms: C_28  and  N_29 
ROOT
HETATM    1  N   UNK N   1      30.026  18.185   9.744  0.00  0.00    -0.202 N 
ATOM      2  HN  UNK N   1      30.468  18.522  10.599  1.00  0.00     0.183 HD
HETATM    3  C   UNK N   1      28.674  18.275   9.599  0.00  0.00     0.110 A 
HETATM    4  C   UNK N   1      30.786  17.650   8.757  0.00  0.00     0.684 A 
HETATM    5  C   UNK N   1      28.866  17.276   7.420  0.00  0.00     0.122 A 
HETATM    6  C   UNK N   1      28.066  17.828   8.425  0.00  0.00     0.066 A 
HETATM    7  N   UNK N   1      30.199  17.187   7.622  0.00  0.00    -0.176 N 
ATOM      8  HN  UNK N   1      30.781  16.760   6.901  1.00  0.00     0.186 HD
HETATM    9  N   UNK N   1      32.186  17.487   8.937  0.00  0.00    -0.192 N 
HETATM   10  H   UNK N   1      32.618  17.821   9.757  0.00  0.00     0.184 HD
ENDROOT
BRANCH   9  11
HETATM   11  C   UNK N   1      32.963  16.847   7.941  0.00  0.00     0.049 A 
HETATM   12  C   UNK N   1      32.898  15.459   7.825  0.00  0.00     0.033 A 
HETATM   13  C   UNK N   1      33.458  14.821   6.716  0.00  0.00     0.039 A 
HETATM   14  C   UNK N   1      34.094  15.568   5.718  0.00  0.00     0.069 A 
HETATM   15  C   UNK N   1      34.203  16.961   5.861  0.00  0.00     0.039 A 
HETATM   16  C   UNK N   1      33.628  17.597   6.957  0.00  0.00     0.033 A 
BRANCH  14  17
HETATM   17  O   UNK N   1      34.573  14.936   4.623  0.00  0.00    -0.349 OA
BRANCH  17  18
HETATM   18  C   UNK N   1      33.841  13.995   3.932  0.00  0.00     0.209 C 
BRANCH  18  19
HETATM   19  C   UNK N   1      33.000  14.608   2.823  0.00  0.00     0.170 C 
BRANCH  19  20
HETATM   20  C   UNK N   1      31.659  14.954   3.455  0.00  0.00     0.305 C 
BRANCH  20  21
HETATM   21  N   UNK N   1      31.149  16.230   2.989  0.00  0.00     0.082 N 
HETATM   22  C   UNK N   1      29.756  16.035   2.633  0.00  0.00     0.309 C 
HETATM   23  C   UNK N   1      31.165  17.112   4.141  0.00  0.00     0.309 C 
ENDBRANCH  20  21
ENDBRANCH  19  20
BRANCH  19  24
HETATM   24  O   UNK N   1      33.622  15.760   2.338  0.00  0.00    -0.392 OA
HETATM   25  H   UNK N   1      34.345  16.404   2.278  0.00  0.00     0.210 HD
ENDBRANCH  19  24
ENDBRANCH  18  19
ENDBRANCH  17  18
ENDBRANCH  14  17
ENDBRANCH   9  11
BRANCH   5  26
HETATM   26  N   UNK N   1      28.348  16.857   6.164  0.00  0.00    -0.341 N 
HETATM   27  H   UNK N   1      28.814  16.119   5.709  0.00  0.00     0.167 HD
BRANCH  26  28
HETATM   28  C   UNK N   1      27.216  17.412   5.504  0.00  0.00     0.057 A 
HETATM   29  C   UNK N   1      25.986  16.732   5.544  0.00  0.00     0.060 A 
HETATM   30  C   UNK N   1      24.888  17.234   4.837  0.00  0.00     0.028 A 
HETATM   31 Cl   UNK N   1      25.809  15.231   6.441  0.00  0.00    -0.082 Cl
HETATM   32  C   UNK N   1      25.009  18.409   4.090  0.00  0.00     0.026 A 
HETATM   33  C   UNK N   1      26.230  19.086   4.051  0.00  0.00     0.036 A 
HETATM   34  C   UNK N   1      27.324  18.586   4.749  0.00  0.00     0.055 A 
HETATM   35 Cl   UNK N   1      26.402  20.552   3.113  0.00  0.00    -0.084 Cl
ENDBRANCH  26  28
ENDBRANCH   5  26
TORSDOF 9
ENDMDL
