MODEL 1
REMARK VINA RESULT:      -7.5      0.000      0.000
REMARK  10 active torsions:
REMARK  status: ('A' for Active; 'I' for Inactive)
REMARK    1  A    between atoms: C_3  and  N_15 
REMARK    2  A    between atoms: C_5  and  N_14 
REMARK    3  A    between atoms: C_6  and  N_15 
REMARK    4  A    between atoms: C_9  and  O_17 
REMARK    5  A    between atoms: N_14  and  C_22 
REMARK    6  A    between atoms: O_17  and  C_18 
REMARK    7  A    between atoms: C_18  and  C_27 
REMARK    8  A    between atoms: C_27  and  C_28 
REMARK    9  A    between atoms: C_27  and  O_32 
REMARK   10  A    between atoms: C_28  and  N_29 
ROOT
HETATM    1  C   UNK N   1      27.030  20.263   7.289  0.00  0.00     0.183 A 
HETATM    2  C   UNK N   1      27.620  19.421   5.153  0.00  0.00     0.110 A 
HETATM    3  C   UNK N   1      28.334  18.391   5.747  0.00  0.00     0.097 A 
HETATM    4  C   UNK N   1      28.360  18.316   7.141  0.00  0.00     0.110 A 
HETATM    5  N   UNK N   1      27.727  19.269   7.881  0.00  0.00    -0.338 N 
ATOM      6  HN  UNK N   1      27.780  19.231   8.898  1.00  0.00     0.168 HD
HETATM    7  N   UNK N   1      26.966  20.327   5.942  0.00  0.00    -0.338 N 
ATOM      8  HN  UNK N   1      26.417  21.066   5.503  1.00  0.00     0.168 HD
ENDROOT
BRANCH   2   9
HETATM    9  N   UNK N   1      27.445  19.471   3.748  0.00  0.00    -0.342 N 
HETATM   10  H   UNK N   1      28.204  19.530   3.125  0.00  0.00     0.167 HD
BRANCH   9  11
HETATM   11  C   UNK N   1      26.113  19.428   3.307  0.00  0.00     0.033 A 
HETATM   12  C   UNK N   1      25.270  18.485   3.908  0.00  0.00     0.032 A 
HETATM   13  C   UNK N   1      23.893  18.673   3.909  0.00  0.00     0.039 A 
HETATM   14  C   UNK N   1      23.357  19.840   3.360  0.00  0.00     0.069 A 
HETATM   15  C   UNK N   1      24.189  20.773   2.735  0.00  0.00     0.039 A 
HETATM   16  C   UNK N   1      25.566  20.574   2.718  0.00  0.00     0.032 A 
BRANCH  14  17
HETATM   17  O   UNK N   1      22.040  20.085   3.432  0.00  0.00    -0.349 OA
BRANCH  17  18
HETATM   18  C   UNK N   1      21.429  20.791   2.436  0.00  0.00     0.209 C 
BRANCH  18  19
HETATM   19  C   UNK N   1      21.026  19.785   1.382  0.00  0.00     0.170 C 
BRANCH  19  20
HETATM   20  C   UNK N   1      19.994  18.840   1.948  0.00  0.00     0.305 C 
BRANCH  20  21
HETATM   21  N   UNK N   1      20.528  17.491   1.949  0.00  0.00     0.082 N 
HETATM   22  C   UNK N   1      20.046  16.839   3.154  0.00  0.00     0.309 C 
HETATM   23  C   UNK N   1      19.944  16.802   0.817  0.00  0.00     0.309 C 
ENDBRANCH  20  21
ENDBRANCH  19  20
BRANCH  19  24
HETATM   24  O   UNK N   1      20.523  20.451   0.264  0.00  0.00    -0.392 OA
HETATM   25  H   UNK N   1      20.142  21.334   0.140  0.00  0.00     0.210 HD
ENDBRANCH  19  24
ENDBRANCH  18  19
ENDBRANCH  17  18
ENDBRANCH  14  17
ENDBRANCH   9  11
ENDBRANCH   2   9
BRANCH   4  26
HETATM   26  N   UNK N   1      29.084  17.273   7.761  0.00  0.00    -0.337 N 
HETATM   27  H   UNK N   1      28.558  16.647   8.310  0.00  0.00     0.167 HD
BRANCH  26  28
HETATM   28  C   UNK N   1      30.485  17.021   7.686  0.00  0.00     0.111 A 
HETATM   29  C   UNK N   1      31.327  17.864   8.422  0.00  0.00     0.146 A 
HETATM   30  C   UNK N   1      32.709  17.677   8.412  0.00  0.00     0.045 A 
HETATM   31  F   UNK N   1      30.796  18.869   9.162  0.00  0.00    -0.204 F 
HETATM   32  C   UNK N   1      33.271  16.649   7.657  0.00  0.00     0.006 A 
HETATM   33  C   UNK N   1      32.453  15.816   6.895  0.00  0.00     0.045 A 
HETATM   34  C   UNK N   1      31.066  15.991   6.897  0.00  0.00     0.146 A 
HETATM   35  F   UNK N   1      30.332  15.186   6.093  0.00  0.00    -0.204 F 
ENDBRANCH  26  28
ENDBRANCH   4  26
TORSDOF 10
ENDMDL
MODEL 2
REMARK VINA RESULT:      -7.3      5.916     11.531
REMARK  10 active torsions:
REMARK  status: ('A' for Active; 'I' for Inactive)
REMARK    1  A    between atoms: C_3  and  N_15 
REMARK    2  A    between atoms: C_5  and  N_14 
REMARK    3  A    between atoms: C_6  and  N_15 
REMARK    4  A    between atoms: C_9  and  O_17 
REMARK    5  A    between atoms: N_14  and  C_22 
REMARK    6  A    between atoms: O_17  and  C_18 
REMARK    7  A    between atoms: C_18  and  C_27 
REMARK    8  A    between atoms: C_27  and  C_28 
REMARK    9  A    between atoms: C_27  and  O_32 
REMARK   10  A    between atoms: C_28  and  N_29 
ROOT
HETATM    1  C   UNK N   1      30.436  14.293   5.103  0.00  0.00     0.183 A 
HETATM    2  C   UNK N   1      31.865  16.183   5.088  0.00  0.00     0.110 A 
HETATM    3  C   UNK N   1      30.850  16.966   5.617  0.00  0.00     0.097 A 
HETATM    4  C   UNK N   1      29.622  16.363   5.899  0.00  0.00     0.110 A 
HETATM    5  N   UNK N   1      29.436  15.044   5.612  0.00  0.00    -0.338 N 
ATOM      6  HN  UNK N   1      28.526  14.618   5.785  1.00  0.00     0.168 HD
HETATM    7  N   UNK N   1      31.639  14.854   4.859  0.00  0.00    -0.338 N 
ATOM      8  HN  UNK N   1      32.396  14.274   4.498  1.00  0.00     0.168 HD
ENDROOT
BRANCH   2   9
HETATM    9  N   UNK N   1      33.170  16.706   4.909  0.00  0.00    -0.342 N 
HETATM   10  H   UNK N   1      33.519  16.958   4.023  0.00  0.00     0.167 HD
BRANCH   9  11
HETATM   11  C   UNK N   1      33.929  16.842   6.081  0.00  0.00     0.033 A 
HETATM   12  C   UNK N   1      33.690  17.974   6.870  0.00  0.00     0.032 A 
HETATM   13  C   UNK N   1      34.005  17.967   8.224  0.00  0.00     0.039 A 
HETATM   14  C   UNK N   1      34.504  16.800   8.808  0.00  0.00     0.069 A 
HETATM   15  C   UNK N   1      34.770  15.676   8.023  0.00  0.00     0.039 A 
HETATM   16  C   UNK N   1      34.472  15.691   6.664  0.00  0.00     0.032 A 
BRANCH  14  17
HETATM   17  O   UNK N   1      34.728  16.741  10.130  0.00  0.00    -0.349 OA
BRANCH  17  18
HETATM   18  C   UNK N   1      34.747  15.530  10.758  0.00  0.00     0.209 C 
BRANCH  18  19
HETATM   19  C   UNK N   1      35.972  15.525  11.644  0.00  0.00     0.170 C 
BRANCH  19  20
HETATM   20  C   UNK N   1      36.244  14.120  12.128  0.00  0.00     0.305 C 
BRANCH  20  21
HETATM   21  N   UNK N   1      35.524  13.893  13.367  0.00  0.00     0.082 N 
HETATM   22  C   UNK N   1      35.019  12.532  13.326  0.00  0.00     0.309 C 
HETATM   23  C   UNK N   1      36.495  13.966  14.441  0.00  0.00     0.309 C 
ENDBRANCH  20  21
ENDBRANCH  19  20
BRANCH  19  24
HETATM   24  O   UNK N   1      37.067  16.021  10.936  0.00  0.00    -0.392 OA
HETATM   25  H   UNK N   1      37.889  16.456  11.214  0.00  0.00     0.210 HD
ENDBRANCH  19  24
ENDBRANCH  18  19
ENDBRANCH  17  18
ENDBRANCH  14  17
ENDBRANCH   9  11
ENDBRANCH   2   9
BRANCH   4  26
HETATM   26  N   UNK N   1      28.577  17.148   6.438  0.00  0.00    -0.337 N 
HETATM   27  H   UNK N   1      28.124  16.780   7.230  0.00  0.00     0.167 HD
BRANCH  26  28
HETATM   28  C   UNK N   1      28.103  18.407   5.968  0.00  0.00     0.111 A 
HETATM   29  C   UNK N   1      27.910  19.414   6.922  0.00  0.00     0.146 A 
HETATM   30  C   UNK N   1      27.460  20.679   6.542  0.00  0.00     0.045 A 
HETATM   31  F   UNK N   1      28.171  19.164   8.229  0.00  0.00    -0.204 F 
HETATM   32  C   UNK N   1      27.188  20.953   5.203  0.00  0.00     0.006 A 
HETATM   33  C   UNK N   1      27.346  19.956   4.242  0.00  0.00     0.045 A 
HETATM   34  C   UNK N   1      27.798  18.685   4.607  0.00  0.00     0.146 A 
HETATM   35  F   UNK N   1      27.878  17.745   3.636  0.00  0.00    -0.204 F 
ENDBRANCH  26  28
ENDBRANCH   4  26
TORSDOF 10
ENDMDL
MODEL 3
REMARK VINA RESULT:      -7.3      6.362     10.164
REMARK  10 active torsions:
REMARK  status: ('A' for Active; 'I' for Inactive)
REMARK    1  A    between atoms: C_3  and  N_15 
REMARK    2  A    between atoms: C_5  and  N_14 
REMARK    3  A    between atoms: C_6  and  N_15 
REMARK    4  A    between atoms: C_9  and  O_17 
REMARK    5  A    between atoms: N_14  and  C_22 
REMARK    6  A    between atoms: O_17  and  C_18 
REMARK    7  A    between atoms: C_18  and  C_27 
REMARK    8  A    between atoms: C_27  and  C_28 
REMARK    9  A    between atoms: C_27  and  O_32 
REMARK   10  A    between atoms: C_28  and  N_29 
ROOT
HETATM    1  C   UNK N   1      37.975  13.322   9.872  0.00  0.00     0.183 A 
HETATM    2  C   UNK N   1      36.059  14.570   9.244  0.00  0.00     0.110 A 
HETATM    3  C   UNK N   1      35.813  14.878  10.573  0.00  0.00     0.097 A 
HETATM    4  C   UNK N   1      36.696  14.397  11.543  0.00  0.00     0.110 A 
HETATM    5  N   UNK N   1      37.743  13.609  11.171  0.00  0.00    -0.338 N 
ATOM      6  HN  UNK N   1      38.363  13.230  11.887  1.00  0.00     0.168 HD
HETATM    7  N   UNK N   1      37.150  13.810   8.921  0.00  0.00    -0.338 N 
ATOM      8  HN  UNK N   1      37.346  13.610   7.940  1.00  0.00     0.168 HD
ENDROOT
BRANCH   2   9
HETATM    9  N   UNK N   1      35.280  15.140   8.207  0.00  0.00    -0.342 N 
HETATM   10  H   UNK N   1      35.478  14.989   7.255  0.00  0.00     0.167 HD
BRANCH   9  11
HETATM   11  C   UNK N   1      34.202  15.932   8.633  0.00  0.00     0.033 A 
HETATM   12  C   UNK N   1      34.286  17.309   8.390  0.00  0.00     0.032 A 
HETATM   13  C   UNK N   1      33.133  18.082   8.321  0.00  0.00     0.039 A 
HETATM   14  C   UNK N   1      31.884  17.467   8.433  0.00  0.00     0.069 A 
HETATM   15  C   UNK N   1      31.793  16.099   8.702  0.00  0.00     0.039 A 
HETATM   16  C   UNK N   1      32.949  15.330   8.790  0.00  0.00     0.032 A 
BRANCH  14  17
HETATM   17  O   UNK N   1      30.757  18.179   8.278  0.00  0.00    -0.349 OA
BRANCH  17  18
HETATM   18  C   UNK N   1      29.801  18.150   9.251  0.00  0.00     0.209 C 
BRANCH  18  19
HETATM   19  C   UNK N   1      28.487  18.461   8.571  0.00  0.00     0.170 C 
BRANCH  19  20
HETATM   20  C   UNK N   1      28.387  17.685   7.279  0.00  0.00     0.305 C 
BRANCH  20  21
HETATM   21  N   UNK N   1      28.089  18.599   6.192  0.00  0.00     0.082 N 
HETATM   22  C   UNK N   1      26.919  18.081   5.505  0.00  0.00     0.309 C 
HETATM   23  C   UNK N   1      27.717  19.864   6.792  0.00  0.00     0.309 C 
ENDBRANCH  20  21
ENDBRANCH  19  20
BRANCH  19  24
HETATM   24  O   UNK N   1      27.429  18.140   9.421  0.00  0.00    -0.392 OA
HETATM   25  H   UNK N   1      27.328  18.164  10.386  0.00  0.00     0.210 HD
ENDBRANCH  19  24
ENDBRANCH  18  19
ENDBRANCH  17  18
ENDBRANCH  14  17
ENDBRANCH   9  11
ENDBRANCH   2   9
BRANCH   4  26
HETATM   26  N   UNK N   1      36.459  14.702  12.902  0.00  0.00    -0.337 N 
HETATM   27  H   UNK N   1      36.652  15.626  13.180  0.00  0.00     0.167 HD
BRANCH  26  28
HETATM   28  C   UNK N   1      35.972  13.828  13.918  0.00  0.00     0.111 A 
HETATM   29  C   UNK N   1      36.492  13.995  15.208  0.00  0.00     0.146 A 
HETATM   30  C   UNK N   1      36.059  13.189  16.261  0.00  0.00     0.045 A 
HETATM   31  F   UNK N   1      37.419  14.956  15.443  0.00  0.00    -0.204 F 
HETATM   32  C   UNK N   1      35.106  12.197  16.037  0.00  0.00     0.006 A 
HETATM   33  C   UNK N   1      34.597  11.995  14.755  0.00  0.00     0.045 A 
HETATM   34  C   UNK N   1      35.020  12.797  13.691  0.00  0.00     0.146 A 
HETATM   35  F   UNK N   1      34.530  12.515  12.461  0.00  0.00    -0.204 F 
ENDBRANCH  26  28
ENDBRANCH   4  26
TORSDOF 10
ENDMDL
MODEL 4
REMARK VINA RESULT:      -7.1      7.293     11.105
REMARK  10 active torsions:
REMARK  status: ('A' for Active; 'I' for Inactive)
REMARK    1  A    between atoms: C_3  and  N_15 
REMARK    2  A    between atoms: C_5  and  N_14 
REMARK    3  A    between atoms: C_6  and  N_15 
REMARK    4  A    between atoms: C_9  and  O_17 
REMARK    5  A    between atoms: N_14  and  C_22 
REMARK    6  A    between atoms: O_17  and  C_18 
REMARK    7  A    between atoms: C_18  and  C_27 
REMARK    8  A    between atoms: C_27  and  C_28 
REMARK    9  A    between atoms: C_27  and  O_32 
REMARK   10  A    between atoms: C_28  and  N_29 
ROOT
HETATM    1  C   UNK N   1      36.494  12.472  10.924  0.00  0.00     0.183 A 
HETATM    2  C   UNK N   1      34.871  14.086  11.541  0.00  0.00     0.110 A 
HETATM    3  C   UNK N   1      35.459  14.212  12.790  0.00  0.00     0.097 A 
HETATM    4  C   UNK N   1      36.596  13.452  13.071  0.00  0.00     0.110 A 
HETATM    5  N   UNK N   1      37.073  12.580  12.139  0.00  0.00    -0.338 N 
ATOM      6  HN  UNK N   1      37.881  12.000  12.363  1.00  0.00     0.168 HD
HETATM    7  N   UNK N   1      35.416  13.228  10.625  0.00  0.00    -0.338 N 
ATOM      8  HN  UNK N   1      34.999  13.159   9.697  1.00  0.00     0.168 HD
ENDROOT
BRANCH   2   9
HETATM    9  N   UNK N   1      33.801  14.928  11.151  0.00  0.00    -0.342 N 
HETATM   10  H   UNK N   1      33.083  15.190  11.773  0.00  0.00     0.167 HD
BRANCH   9  11
HETATM   11  C   UNK N   1      33.835  15.366   9.818  0.00  0.00     0.033 A 
HETATM   12  C   UNK N   1      32.829  14.896   8.964  0.00  0.00     0.032 A 
HETATM   13  C   UNK N   1      32.489  15.607   7.820  0.00  0.00     0.039 A 
HETATM   14  C   UNK N   1      33.114  16.828   7.557  0.00  0.00     0.069 A 
HETATM   15  C   UNK N   1      34.138  17.290   8.389  0.00  0.00     0.039 A 
HETATM   16  C   UNK N   1      34.490  16.567   9.524  0.00  0.00     0.032 A 
BRANCH  14  17
HETATM   17  O   UNK N   1      32.738  17.576   6.509  0.00  0.00    -0.349 OA
BRANCH  17  18
HETATM   18  C   UNK N   1      33.345  17.398   5.299  0.00  0.00     0.209 C 
BRANCH  18  19
HETATM   19  C   UNK N   1      32.282  16.878   4.358  0.00  0.00     0.170 C 
BRANCH  19  20
HETATM   20  C   UNK N   1      30.949  17.499   4.704  0.00  0.00     0.305 C 
BRANCH  20  21
HETATM   21  N   UNK N   1      29.935  16.461   4.753  0.00  0.00     0.082 N 
HETATM   22  C   UNK N   1      29.289  16.555   6.050  0.00  0.00     0.309 C 
HETATM   23  C   UNK N   1      28.945  16.788   3.748  0.00  0.00     0.309 C 
ENDBRANCH  20  21
ENDBRANCH  19  20
BRANCH  19  24
HETATM   24  O   UNK N   1      32.634  17.173   3.041  0.00  0.00    -0.392 OA
HETATM   25  H   UNK N   1      32.372  17.880   2.431  0.00  0.00     0.210 HD
ENDBRANCH  19  24
ENDBRANCH  18  19
ENDBRANCH  17  18
ENDBRANCH  14  17
ENDBRANCH   9  11
ENDBRANCH   2   9
BRANCH   4  26
HETATM   26  N   UNK N   1      37.207  13.568  14.341  0.00  0.00    -0.337 N 
HETATM   27  H   UNK N   1      38.189  13.514  14.356  0.00  0.00     0.167 HD
BRANCH  26  28
HETATM   28  C   UNK N   1      36.567  13.754  15.601  0.00  0.00     0.111 A 
HETATM   29  C   UNK N   1      36.886  14.916  16.315  0.00  0.00     0.146 A 
HETATM   30  C   UNK N   1      36.293  15.179  17.550  0.00  0.00     0.045 A 
HETATM   31  F   UNK N   1      37.773  15.803  15.799  0.00  0.00    -0.204 F 
HETATM   32  C   UNK N   1      35.379  14.279  18.095  0.00  0.00     0.006 A 
HETATM   33  C   UNK N   1      35.070  13.103  17.413  0.00  0.00     0.045 A 
HETATM   34  C   UNK N   1      35.654  12.827  16.174  0.00  0.00     0.146 A 
HETATM   35  F   UNK N   1      35.354  11.643  15.589  0.00  0.00    -0.204 F 
ENDBRANCH  26  28
ENDBRANCH   4  26
TORSDOF 10
ENDMDL
MODEL 5
REMARK VINA RESULT:      -7.0      6.378      9.801
REMARK  10 active torsions:
REMARK  status: ('A' for Active; 'I' for Inactive)
REMARK    1  A    between atoms: C_3  and  N_15 
REMARK    2  A    between atoms: C_5  and  N_14 
REMARK    3  A    between atoms: C_6  and  N_15 
REMARK    4  A    between atoms: C_9  and  O_17 
REMARK    5  A    between atoms: N_14  and  C_22 
REMARK    6  A    between atoms: O_17  and  C_18 
REMARK    7  A    between atoms: C_18  and  C_27 
REMARK    8  A    between atoms: C_27  and  C_28 
REMARK    9  A    between atoms: C_27  and  O_32 
REMARK   10  A    between atoms: C_28  and  N_29 
ROOT
HETATM    1  C   UNK N   1      37.171  14.263  10.248  0.00  0.00     0.183 A 
HETATM    2  C   UNK N   1      35.379  15.771  10.614  0.00  0.00     0.110 A 
HETATM    3  C   UNK N   1      35.284  15.352  11.932  0.00  0.00     0.097 A 
HETATM    4  C   UNK N   1      36.178  14.382  12.389  0.00  0.00     0.110 A 
HETATM    5  N   UNK N   1      37.086  13.841  11.528  0.00  0.00    -0.338 N 
ATOM      6  HN  UNK N   1      37.712  13.107  11.857  1.00  0.00     0.168 HD
HETATM    7  N   UNK N   1      36.337  15.227   9.803  0.00  0.00    -0.338 N 
ATOM      8  HN  UNK N   1      36.424  15.558   8.843  1.00  0.00     0.168 HD
ENDROOT
BRANCH   2   9
HETATM    9  N   UNK N   1      34.592  16.846  10.132  0.00  0.00    -0.342 N 
HETATM   10  H   UNK N   1      34.520  17.703  10.613  0.00  0.00     0.167 HD
BRANCH   9  11
HETATM   11  C   UNK N   1      33.923  16.606   8.922  0.00  0.00     0.033 A 
HETATM   12  C   UNK N   1      32.739  15.860   8.982  0.00  0.00     0.032 A 
HETATM   13  C   UNK N   1      31.784  15.975   7.979  0.00  0.00     0.039 A 
HETATM   14  C   UNK N   1      31.983  16.886   6.940  0.00  0.00     0.069 A 
HETATM   15  C   UNK N   1      33.173  17.614   6.858  0.00  0.00     0.039 A 
HETATM   16  C   UNK N   1      34.137  17.484   7.853  0.00  0.00     0.032 A 
BRANCH  14  17
HETATM   17  O   UNK N   1      31.034  17.080   6.011  0.00  0.00    -0.349 OA
BRANCH  17  18
HETATM   18  C   UNK N   1      29.719  17.061   6.375  0.00  0.00     0.209 C 
BRANCH  18  19
HETATM   19  C   UNK N   1      28.954  17.728   5.256  0.00  0.00     0.170 C 
BRANCH  19  20
HETATM   20  C   UNK N   1      27.968  18.716   5.832  0.00  0.00     0.305 C 
BRANCH  20  21
HETATM   21  N   UNK N   1      27.784  19.811   4.897  0.00  0.00     0.082 N 
HETATM   22  C   UNK N   1      26.588  19.521   4.127  0.00  0.00     0.309 C 
HETATM   23  C   UNK N   1      27.520  20.999   5.682  0.00  0.00     0.309 C 
ENDBRANCH  20  21
ENDBRANCH  19  20
BRANCH  19  24
HETATM   24  O   UNK N   1      29.844  18.368   4.393  0.00  0.00    -0.392 OA
HETATM   25  H   UNK N   1      30.812  18.382   4.338  0.00  0.00     0.210 HD
ENDBRANCH  19  24
ENDBRANCH  18  19
ENDBRANCH  17  18
ENDBRANCH  14  17
ENDBRANCH   9  11
ENDBRANCH   2   9
BRANCH   4  26
HETATM   26  N   UNK N   1      36.095  13.944  13.730  0.00  0.00    -0.337 N 
HETATM   27  H   UNK N   1      36.568  14.493  14.396  0.00  0.00     0.167 HD
BRANCH  26  28
HETATM   28  C   UNK N   1      35.406  12.801  14.231  0.00  0.00     0.111 A 
HETATM   29  C   UNK N   1      35.508  12.544  15.605  0.00  0.00     0.146 A 
HETATM   30  C   UNK N   1      34.853  11.452  16.176  0.00  0.00     0.045 A 
HETATM   31  F   UNK N   1      36.242  13.368  16.393  0.00  0.00    -0.204 F 
HETATM   32  C   UNK N   1      34.094  10.596  15.381  0.00  0.00     0.006 A 
HETATM   33  C   UNK N   1      34.003  10.818  14.007  0.00  0.00     0.045 A 
HETATM   34  C   UNK N   1      34.652  11.909  13.421  0.00  0.00     0.146 A 
HETATM   35  F   UNK N   1      34.570  12.038  12.076  0.00  0.00    -0.204 F 
ENDBRANCH  26  28
ENDBRANCH   4  26
TORSDOF 10
ENDMDL
MODEL 6
REMARK VINA RESULT:      -7.0      7.839     11.158
REMARK  10 active torsions:
REMARK  status: ('A' for Active; 'I' for Inactive)
REMARK    1  A    between atoms: C_3  and  N_15 
REMARK    2  A    between atoms: C_5  and  N_14 
REMARK    3  A    between atoms: C_6  and  N_15 
REMARK    4  A    between atoms: C_9  and  O_17 
REMARK    5  A    between atoms: N_14  and  C_22 
REMARK    6  A    between atoms: O_17  and  C_18 
REMARK    7  A    between atoms: C_18  and  C_27 
REMARK    8  A    between atoms: C_27  and  C_28 
REMARK    9  A    between atoms: C_27  and  O_32 
REMARK   10  A    between atoms: C_28  and  N_29 
ROOT
HETATM    1  C   UNK N   1      37.596  14.218  10.015  0.00  0.00     0.183 A 
HETATM    2  C   UNK N   1      35.599  15.115  10.925  0.00  0.00     0.110 A 
HETATM    3  C   UNK N   1      35.805  14.405  12.098  0.00  0.00     0.097 A 
HETATM    4  C   UNK N   1      36.948  13.610  12.204  0.00  0.00     0.110 A 
HETATM    5  N   UNK N   1      37.805  13.516  11.149  0.00  0.00    -0.338 N 
ATOM      6  HN  UNK N   1      38.619  12.905  11.217  1.00  0.00     0.168 HD
HETATM    7  N   UNK N   1      36.514  15.019   9.912  0.00  0.00    -0.338 N 
ATOM      8  HN  UNK N   1      36.376  15.565   9.062  1.00  0.00     0.168 HD
ENDROOT
BRANCH   2   9
HETATM    9  N   UNK N   1      34.533  16.041  10.811  0.00  0.00    -0.342 N 
HETATM   10  H   UNK N   1      34.175  16.531  11.587  0.00  0.00     0.167 HD
BRANCH   9  11
HETATM   11  C   UNK N   1      34.021  16.212   9.515  0.00  0.00     0.033 A 
HETATM   12  C   UNK N   1      32.938  15.406   9.143  0.00  0.00     0.032 A 
HETATM   13  C   UNK N   1      32.080  15.806   8.126  0.00  0.00     0.039 A 
HETATM   14  C   UNK N   1      32.268  17.049   7.517  0.00  0.00     0.069 A 
HETATM   15  C   UNK N   1      33.362  17.847   7.863  0.00  0.00     0.039 A 
HETATM   16  C   UNK N   1      34.231  17.435   8.869  0.00  0.00     0.032 A 
BRANCH  14  17
HETATM   17  O   UNK N   1      31.399  17.497   6.598  0.00  0.00    -0.349 OA
BRANCH  17  18
HETATM   18  C   UNK N   1      30.778  16.610   5.767  0.00  0.00     0.209 C 
BRANCH  18  19
HETATM   19  C   UNK N   1      31.462  16.728   4.424  0.00  0.00     0.170 C 
BRANCH  19  20
HETATM   20  C   UNK N   1      32.144  15.423   4.084  0.00  0.00     0.305 C 
BRANCH  20  21
HETATM   21  N   UNK N   1      33.547  15.672   3.810  0.00  0.00     0.082 N 
HETATM   22  C   UNK N   1      34.298  15.212   4.965  0.00  0.00     0.309 C 
HETATM   23  C   UNK N   1      33.915  14.833   2.688  0.00  0.00     0.309 C 
ENDBRANCH  20  21
ENDBRANCH  19  20
BRANCH  19  24
HETATM   24  O   UNK N   1      30.526  17.063   3.446  0.00  0.00    -0.392 OA
HETATM   25  H   UNK N   1      29.595  16.823   3.316  0.00  0.00     0.210 HD
ENDBRANCH  19  24
ENDBRANCH  18  19
ENDBRANCH  17  18
ENDBRANCH  14  17
ENDBRANCH   9  11
ENDBRANCH   2   9
BRANCH   4  26
HETATM   26  N   UNK N   1      37.172  12.880  13.393  0.00  0.00    -0.337 N 
HETATM   27  H   UNK N   1      37.931  12.253  13.381  0.00  0.00     0.167 HD
BRANCH  26  28
HETATM   28  C   UNK N   1      36.428  12.945  14.607  0.00  0.00     0.111 A 
HETATM   29  C   UNK N   1      35.421  11.988  14.792  0.00  0.00     0.146 A 
HETATM   30  C   UNK N   1      34.656  11.975  15.959  0.00  0.00     0.045 A 
HETATM   31  F   UNK N   1      35.191  11.058  13.833  0.00  0.00    -0.204 F 
HETATM   32  C   UNK N   1      34.880  12.924  16.954  0.00  0.00     0.006 A 
HETATM   33  C   UNK N   1      35.858  13.902  16.777  0.00  0.00     0.045 A 
HETATM   34  C   UNK N   1      36.634  13.927  15.615  0.00  0.00     0.146 A 
HETATM   35  F   UNK N   1      37.529  14.933  15.479  0.00  0.00    -0.204 F 
ENDBRANCH  26  28
ENDBRANCH   4  26
TORSDOF 10
ENDMDL
MODEL 7
REMARK VINA RESULT:      -6.9      6.946     10.689
REMARK  10 active torsions:
REMARK  status: ('A' for Active; 'I' for Inactive)
REMARK    1  A    between atoms: C_3  and  N_15 
REMARK    2  A    between atoms: C_5  and  N_14 
REMARK    3  A    between atoms: C_6  and  N_15 
REMARK    4  A    between atoms: C_9  and  O_17 
REMARK    5  A    between atoms: N_14  and  C_22 
REMARK    6  A    between atoms: O_17  and  C_18 
REMARK    7  A    between atoms: C_18  and  C_27 
REMARK    8  A    between atoms: C_27  and  C_28 
REMARK    9  A    between atoms: C_27  and  O_32 
REMARK   10  A    between atoms: C_28  and  N_29 
ROOT
HETATM    1  C   UNK N   1      37.652  14.149  10.801  0.00  0.00     0.183 A 
HETATM    2  C   UNK N   1      35.715  15.475  11.134  0.00  0.00     0.110 A 
HETATM    3  C   UNK N   1      35.417  14.765  12.287  0.00  0.00     0.097 A 
HETATM    4  C   UNK N   1      36.284  13.747  12.686  0.00  0.00     0.110 A 
HETATM    5  N   UNK N   1      37.370  13.445  11.919  0.00  0.00    -0.338 N 
ATOM      6  HN  UNK N   1      37.980  12.676  12.194  1.00  0.00     0.168 HD
HETATM    7  N   UNK N   1      36.841  15.161  10.424  0.00  0.00    -0.338 N 
ATOM      8  HN  UNK N   1      37.074  15.703   9.593  1.00  0.00     0.168 HD
ENDROOT
BRANCH   2   9
HETATM    9  N   UNK N   1      34.949  16.605  10.755  0.00  0.00    -0.342 N 
HETATM   10  H   UNK N   1      34.704  17.314  11.393  0.00  0.00     0.167 HD
BRANCH   9  11
HETATM   11  C   UNK N   1      34.564  16.645   9.406  0.00  0.00     0.033 A 
HETATM   12  C   UNK N   1      33.668  15.663   8.967  0.00  0.00     0.032 A 
HETATM   13  C   UNK N   1      32.876  15.884   7.846  0.00  0.00     0.039 A 
HETATM   14  C   UNK N   1      32.934  17.118   7.195  0.00  0.00     0.069 A 
HETATM   15  C   UNK N   1      33.845  18.093   7.610  0.00  0.00     0.039 A 
HETATM   16  C   UNK N   1      34.651  17.862   8.721  0.00  0.00     0.032 A 
BRANCH  14  17
HETATM   17  O   UNK N   1      32.114  17.387   6.168  0.00  0.00    -0.349 OA
BRANCH  17  18
HETATM   18  C   UNK N   1      32.488  17.053   4.898  0.00  0.00     0.209 C 
BRANCH  18  19
HETATM   19  C   UNK N   1      31.212  16.868   4.109  0.00  0.00     0.170 C 
BRANCH  19  20
HETATM   20  C   UNK N   1      30.088  17.626   4.774  0.00  0.00     0.305 C 
BRANCH  20  21
HETATM   21  N   UNK N   1      28.891  16.807   4.774  0.00  0.00     0.082 N 
HETATM   22  C   UNK N   1      28.627  16.432   6.152  0.00  0.00     0.309 C 
HETATM   23  C   UNK N   1      27.799  17.652   4.335  0.00  0.00     0.309 C 
ENDBRANCH  20  21
ENDBRANCH  19  20
BRANCH  19  24
HETATM   24  O   UNK N   1      31.399  17.313   2.800  0.00  0.00    -0.392 OA
HETATM   25  H   UNK N   1      31.748  16.885   2.003  0.00  0.00     0.210 HD
ENDBRANCH  19  24
ENDBRANCH  18  19
ENDBRANCH  17  18
ENDBRANCH  14  17
ENDBRANCH   9  11
ENDBRANCH   2   9
BRANCH   4  26
HETATM   26  N   UNK N   1      35.994  13.013  13.859  0.00  0.00    -0.337 N 
HETATM   27  H   UNK N   1      35.836  12.049  13.739  0.00  0.00     0.167 HD
BRANCH  26  28
HETATM   28  C   UNK N   1      35.903  13.506  15.193  0.00  0.00     0.111 A 
HETATM   29  C   UNK N   1      34.953  12.909  16.032  0.00  0.00     0.146 A 
HETATM   30  C   UNK N   1      34.810  13.326  17.356  0.00  0.00     0.045 A 
HETATM   31  F   UNK N   1      34.170  11.909  15.560  0.00  0.00    -0.204 F 
HETATM   32  C   UNK N   1      35.608  14.352  17.858  0.00  0.00     0.006 A 
HETATM   33  C   UNK N   1      36.539  14.979  17.031  0.00  0.00     0.045 A 
HETATM   34  C   UNK N   1      36.695  14.571  15.703  0.00  0.00     0.146 A 
HETATM   35  F   UNK N   1      37.577  15.256  14.936  0.00  0.00    -0.204 F 
ENDBRANCH  26  28
ENDBRANCH   4  26
TORSDOF 10
ENDMDL
MODEL 8
REMARK VINA RESULT:      -6.9      5.973      8.855
REMARK  10 active torsions:
REMARK  status: ('A' for Active; 'I' for Inactive)
REMARK    1  A    between atoms: C_3  and  N_15 
REMARK    2  A    between atoms: C_5  and  N_14 
REMARK    3  A    between atoms: C_6  and  N_15 
REMARK    4  A    between atoms: C_9  and  O_17 
REMARK    5  A    between atoms: N_14  and  C_22 
REMARK    6  A    between atoms: O_17  and  C_18 
REMARK    7  A    between atoms: C_18  and  C_27 
REMARK    8  A    between atoms: C_27  and  C_28 
REMARK    9  A    between atoms: C_27  and  O_32 
REMARK   10  A    between atoms: C_28  and  N_29 
ROOT
HETATM    1  C   UNK N   1      35.639  16.694  10.598  0.00  0.00     0.183 A 
HETATM    2  C   UNK N   1      33.751  15.270  10.440  0.00  0.00     0.110 A 
HETATM    3  C   UNK N   1      34.361  14.353  11.283  0.00  0.00     0.097 A 
HETATM    4  C   UNK N   1      35.627  14.654  11.789  0.00  0.00     0.110 A 
HETATM    5  N   UNK N   1      36.248  15.808  11.414  0.00  0.00    -0.338 N 
ATOM      6  HN  UNK N   1      37.188  16.006  11.757  1.00  0.00     0.168 HD
HETATM    7  N   UNK N   1      34.399  16.433  10.130  0.00  0.00    -0.338 N 
ATOM      8  HN  UNK N   1      33.936  17.119   9.534  1.00  0.00     0.168 HD
ENDROOT
BRANCH   2   9
HETATM    9  N   UNK N   1      32.415  15.083  10.006  0.00  0.00    -0.342 N 
HETATM   10  H   UNK N   1      31.742  14.623  10.557  0.00  0.00     0.167 HD
BRANCH   9  11
HETATM   11  C   UNK N   1      32.119  15.601   8.735  0.00  0.00     0.033 A 
HETATM   12  C   UNK N   1      32.240  14.730   7.645  0.00  0.00     0.032 A 
HETATM   13  C   UNK N   1      31.537  14.971   6.471  0.00  0.00     0.039 A 
HETATM   14  C   UNK N   1      30.659  16.055   6.405  0.00  0.00     0.069 A 
HETATM   15  C   UNK N   1      30.552  16.943   7.478  0.00  0.00     0.039 A 
HETATM   16  C   UNK N   1      31.272  16.711   8.646  0.00  0.00     0.032 A 
BRANCH  14  17
HETATM   17  O   UNK N   1      29.902  16.254   5.315  0.00  0.00    -0.349 OA
BRANCH  17  18
HETATM   18  C   UNK N   1      28.567  16.501   5.456  0.00  0.00     0.209 C 
BRANCH  18  19
HETATM   19  C   UNK N   1      28.219  17.567   4.442  0.00  0.00     0.170 C 
BRANCH  19  20
HETATM   20  C   UNK N   1      26.903  18.209   4.811  0.00  0.00     0.305 C 
BRANCH  20  21
HETATM   21  N   UNK N   1      25.964  18.044   3.716  0.00  0.00     0.082 N 
HETATM   22  C   UNK N   1      24.803  17.353   4.247  0.00  0.00     0.309 C 
HETATM   23  C   UNK N   1      25.539  19.370   3.318  0.00  0.00     0.309 C 
ENDBRANCH  20  21
ENDBRANCH  19  20
BRANCH  19  24
HETATM   24  O   UNK N   1      29.235  18.521   4.394  0.00  0.00    -0.392 OA
HETATM   25  H   UNK N   1      29.604  19.054   3.672  0.00  0.00     0.210 HD
ENDBRANCH  19  24
ENDBRANCH  18  19
ENDBRANCH  17  18
ENDBRANCH  14  17
ENDBRANCH   9  11
ENDBRANCH   2   9
BRANCH   4  26
HETATM   26  N   UNK N   1      36.264  13.730  12.649  0.00  0.00    -0.337 N 
HETATM   27  H   UNK N   1      37.142  13.398  12.355  0.00  0.00     0.167 HD
BRANCH  26  28
HETATM   28  C   UNK N   1      35.782  13.223  13.891  0.00  0.00     0.111 A 
HETATM   29  C   UNK N   1      36.272  13.822  15.059  0.00  0.00     0.146 A 
HETATM   30  C   UNK N   1      35.840  13.392  16.315  0.00  0.00     0.045 A 
HETATM   31  F   UNK N   1      37.167  14.836  14.973  0.00  0.00    -0.204 F 
HETATM   32  C   UNK N   1      34.920  12.351  16.421  0.00  0.00     0.006 A 
HETATM   33  C   UNK N   1      34.442  11.723  15.272  0.00  0.00     0.045 A 
HETATM   34  C   UNK N   1      34.863  12.144  14.007  0.00  0.00     0.146 A 
HETATM   35  F   UNK N   1      34.405  11.458  12.933  0.00  0.00    -0.204 F 
ENDBRANCH  26  28
ENDBRANCH   4  26
TORSDOF 10
ENDMDL
MODEL 9
REMARK VINA RESULT:      -6.9      8.480     12.633
REMARK  10 active torsions:
REMARK  status: ('A' for Active; 'I' for Inactive)
REMARK    1  A    between atoms: C_3  and  N_15 
REMARK    2  A    between atoms: C_5  and  N_14 
REMARK    3  A    between atoms: C_6  and  N_15 
REMARK    4  A    between atoms: C_9  and  O_17 
REMARK    5  A    between atoms: N_14  and  C_22 
REMARK    6  A    between atoms: O_17  and  C_18 
REMARK    7  A    between atoms: C_18  and  C_27 
REMARK    8  A    between atoms: C_27  and  C_28 
REMARK    9  A    between atoms: C_27  and  O_32 
REMARK   10  A    between atoms: C_28  and  N_29 
ROOT
HETATM    1  C   UNK N   1      37.556  11.480  13.386  0.00  0.00     0.183 A 
HETATM    2  C   UNK N   1      36.706  13.542  12.583  0.00  0.00     0.110 A 
HETATM    3  C   UNK N   1      35.750  13.549  13.588  0.00  0.00     0.097 A 
HETATM    4  C   UNK N   1      35.738  12.495  14.503  0.00  0.00     0.110 A 
HETATM    5  N   UNK N   1      36.626  11.471  14.366  0.00  0.00    -0.338 N 
ATOM      6  HN  UNK N   1      36.589  10.685  15.014  1.00  0.00     0.168 HD
HETATM    7  N   UNK N   1      37.603  12.511  12.516  0.00  0.00    -0.338 N 
ATOM      8  HN  UNK N   1      38.323  12.523  11.795  1.00  0.00     0.168 HD
ENDROOT
BRANCH   2   9
HETATM    9  N   UNK N   1      36.855  14.648  11.710  0.00  0.00    -0.342 N 
HETATM   10  H   UNK N   1      37.719  15.100  11.575  0.00  0.00     0.167 HD
BRANCH   9  11
HETATM   11  C   UNK N   1      35.684  15.054  11.051  0.00  0.00     0.033 A 
HETATM   12  C   UNK N   1      35.475  16.431  10.908  0.00  0.00     0.032 A 
HETATM   13  C   UNK N   1      34.654  16.917   9.897  0.00  0.00     0.039 A 
HETATM   14  C   UNK N   1      34.085  16.026   8.985  0.00  0.00     0.069 A 
HETATM   15  C   UNK N   1      34.266  14.649   9.137  0.00  0.00     0.039 A 
HETATM   16  C   UNK N   1      35.074  14.163  10.161  0.00  0.00     0.032 A 
BRANCH  14  17
HETATM   17  O   UNK N   1      33.364  16.479   7.948  0.00  0.00    -0.349 OA
BRANCH  17  18
HETATM   18  C   UNK N   1      32.915  17.768   7.949  0.00  0.00     0.209 C 
BRANCH  18  19
HETATM   19  C   UNK N   1      31.409  17.697   8.046  0.00  0.00     0.170 C 
BRANCH  19  20
HETATM   20  C   UNK N   1      30.891  16.605   7.141  0.00  0.00     0.305 C 
BRANCH  20  21
HETATM   21  N   UNK N   1      30.057  17.192   6.108  0.00  0.00     0.082 N 
HETATM   22  C   UNK N   1      30.838  17.208   4.884  0.00  0.00     0.309 C 
HETATM   23  C   UNK N   1      28.941  16.291   5.902  0.00  0.00     0.309 C 
ENDBRANCH  20  21
ENDBRANCH  19  20
BRANCH  19  24
HETATM   24  O   UNK N   1      31.032  17.460   9.368  0.00  0.00    -0.392 OA
HETATM   25  H   UNK N   1      30.438  17.926   9.977  0.00  0.00     0.210 HD
ENDBRANCH  19  24
ENDBRANCH  18  19
ENDBRANCH  17  18
ENDBRANCH  14  17
ENDBRANCH   9  11
ENDBRANCH   2   9
BRANCH   4  26
HETATM   26  N   UNK N   1      34.769  12.488  15.533  0.00  0.00    -0.337 N 
HETATM   27  H   UNK N   1      33.855  12.739  15.270  0.00  0.00     0.167 HD
BRANCH  26  28
HETATM   28  C   UNK N   1      34.962  12.159  16.906  0.00  0.00     0.111 A 
HETATM   29  C   UNK N   1      34.906  10.803  17.253  0.00  0.00     0.146 A 
HETATM   30  C   UNK N   1      35.097  10.397  18.574  0.00  0.00     0.045 A 
HETATM   31  F   UNK N   1      34.674   9.871  16.297  0.00  0.00    -0.204 F 
HETATM   32  C   UNK N   1      35.337  11.342  19.570  0.00  0.00     0.006 A 
HETATM   33  C   UNK N   1      35.368  12.699  19.250  0.00  0.00     0.045 A 
HETATM   34  C   UNK N   1      35.181  13.120  17.931  0.00  0.00     0.146 A 
HETATM   35  F   UNK N   1      35.168  14.453  17.694  0.00  0.00    -0.204 F 
ENDBRANCH  26  28
ENDBRANCH   4  26
TORSDOF 10
ENDMDL
