REMARK  10 active torsions:
REMARK  status: ('A' for Active; 'I' for Inactive)
REMARK    1  A    between atoms: C_3  and  N_15 
REMARK    2  A    between atoms: C_5  and  N_14 
REMARK    3  A    between atoms: C_6  and  N_15 
REMARK    4  A    between atoms: C_9  and  O_17 
REMARK    5  A    between atoms: N_14  and  C_22 
REMARK    6  A    between atoms: O_17  and  C_18 
REMARK    7  A    between atoms: C_18  and  C_27 
REMARK    8  A    between atoms: C_27  and  C_28 
REMARK    9  A    between atoms: C_27  and  O_32 
REMARK   10  A    between atoms: C_28  and  N_29 
ROOT
HETATM    1  C   UNK N   1      -2.525  -0.282  -1.155  0.00  0.00     0.183 A 
HETATM    2  C   UNK N   1      -1.609   1.667  -0.164  0.00  0.00     0.110 A 
HETATM    3  C   UNK N   1      -2.877   2.079   0.218  0.00  0.00     0.097 A 
HETATM    4  C   UNK N   1      -3.965   1.261  -0.093  0.00  0.00     0.110 A 
HETATM    5  N   UNK N   1      -3.766   0.110  -0.795  0.00  0.00    -0.338 N 
ATOM      6  HN  UNK N   1      -4.568  -0.465  -1.052  1.00  0.00     0.168 HD
HETATM    7  N   UNK N   1      -1.460   0.481  -0.829  0.00  0.00    -0.338 N 
ATOM      8  HN  UNK N   1      -0.524   0.166  -1.083  1.00  0.00     0.168 HD
ENDROOT
BRANCH   2   9
HETATM    9  N   UNK N   1      -0.457   2.385   0.241  0.00  0.00    -0.342 N 
HETATM   10  H   UNK N   1      -0.485   3.344   0.463  0.00  0.00     0.167 HD
BRANCH   9  11
HETATM   11  C   UNK N   1       0.727   1.634   0.306  0.00  0.00     0.033 A 
HETATM   12  C   UNK N   1       0.897   0.803   1.420  0.00  0.00     0.032 A 
HETATM   13  C   UNK N   1       1.745  -0.296   1.355  0.00  0.00     0.039 A 
HETATM   14  C   UNK N   1       2.381  -0.604   0.150  0.00  0.00     0.069 A 
HETATM   15  C   UNK N   1       2.238   0.235  -0.958  0.00  0.00     0.039 A 
HETATM   16  C   UNK N   1       1.403   1.346  -0.885  0.00  0.00     0.032 A 
BRANCH  14  17
HETATM   17  O   UNK N   1       3.131  -1.711   0.038  0.00  0.00    -0.349 OA
BRANCH  17  18
HETATM   18  C   UNK N   1       4.259  -1.842   0.795  0.00  0.00     0.209 C 
BRANCH  18  19
HETATM   19  C   UNK N   1       5.420  -1.464  -0.096  0.00  0.00     0.170 C 
BRANCH  19  20
HETATM   20  C   UNK N   1       6.607  -1.075   0.753  0.00  0.00     0.305 C 
BRANCH  20  21
HETATM   21  N   UNK N   1       7.633  -0.495  -0.094  0.00  0.00     0.082 N 
HETATM   22  C   UNK N   1       7.853   0.864   0.368  0.00  0.00     0.309 C 
HETATM   23  C   UNK N   1       8.852  -1.240   0.146  0.00  0.00     0.309 C 
ENDBRANCH  20  21
ENDBRANCH  19  20
BRANCH  19  24
HETATM   24  O   UNK N   1       5.742  -2.535  -0.930  0.00  0.00    -0.392 OA
HETATM   25  H   UNK N   1       5.209  -3.102  -1.509  0.00  0.00     0.210 HD
ENDBRANCH  19  24
ENDBRANCH  18  19
ENDBRANCH  17  18
ENDBRANCH  14  17
ENDBRANCH   9  11
ENDBRANCH   2   9
BRANCH   4  26
HETATM   26  N   UNK N   1      -5.264   1.667   0.289  0.00  0.00    -0.337 N 
HETATM   27  H   UNK N   1      -5.338   2.563   0.689  0.00  0.00     0.167 HD
BRANCH  26  28
HETATM   28  C   UNK N   1      -6.478   0.931   0.163  0.00  0.00     0.111 A 
HETATM   29  C   UNK N   1      -7.664   1.668   0.048  0.00  0.00     0.146 A 
HETATM   30  C   UNK N   1      -8.893   1.023  -0.092  0.00  0.00     0.045 A 
HETATM   31  F   UNK N   1      -7.620   3.023   0.062  0.00  0.00    -0.204 F 
HETATM   32  C   UNK N   1      -8.956  -0.369  -0.109  0.00  0.00     0.006 A 
HETATM   33  C   UNK N   1      -7.791  -1.121   0.033  0.00  0.00     0.045 A 
HETATM   34  C   UNK N   1      -6.552  -0.489   0.172  0.00  0.00     0.146 A 
HETATM   35  F   UNK N   1      -5.465  -1.274   0.361  0.00  0.00    -0.204 F 
ENDBRANCH  26  28
ENDBRANCH   4  26
TORSDOF 10
