REMARK  3 active torsions:
REMARK  status: ('A' for Active; 'I' for Inactive)
REMARK    1  A    between atoms: C_8  and  C_9 
REMARK    2  A    between atoms: C_14  and  C_15 
REMARK    3  A    between atoms: C_15  and  O_17 
ROOT
HETATM    1  C   UNK N   1       0.091  -0.127  -0.000  0.00  0.00    -0.026 A 
HETATM    2  C   UNK N   1       0.119  -1.530   0.000  0.00  0.00     0.013 A 
HETATM    3  C   UNK N   1      -1.061  -2.266   0.000  0.00  0.00     0.019 A 
HETATM    4  C   UNK N   1      -1.152   0.530  -0.000  0.00  0.00     0.013 A 
HETATM    5  C   UNK N   1      -2.341  -0.213  -0.000  0.00  0.00     0.019 A 
HETATM    6  C   UNK N   1      -2.299  -1.616   0.000  0.00  0.00     0.037 A 
ENDROOT
BRANCH   1   7
HETATM    7  C   UNK N   1       1.369   0.622  -0.000  0.00  0.00    -0.020 A 
HETATM    8  C   UNK N   1       2.581  -0.086  -0.000  0.00  0.00     0.054 A 
HETATM    9  C   UNK N   1       3.801   0.586  -0.000  0.00  0.00     0.120 A 
HETATM   10  C   UNK N   1       3.827   1.981  -0.000  0.00  0.00     0.084 A 
HETATM   11  F   UNK N   1       4.956  -0.120  -0.000  0.00  0.00    -0.206 F 
HETATM   12  C   UNK N   1       2.629   2.703   0.000  0.00  0.00     0.120 A 
HETATM   13  F   UNK N   1       2.661   4.057   0.000  0.00  0.00    -0.206 F 
HETATM   14  C   UNK N   1       1.401   2.027   0.000  0.00  0.00     0.054 A 
ENDBRANCH   1   7
BRANCH   6  15
HETATM   15  C   UNK N   1      -3.540  -2.414   0.000  0.00  0.00     0.176 C 
HETATM   16  O   UNK N   1      -3.488  -3.633   0.000  0.00  0.00    -0.646 OA
BRANCH  15  17
HETATM   17  O   UNK N   1      -4.741  -1.802  -0.000  0.00  0.00    -0.773 OA
HETATM   18  H   UNK N   1      -4.790  -0.866  -0.000  0.00  0.00     0.167 HD
ENDBRANCH  15  17
ENDBRANCH   6  15
TORSDOF 3
