MODEL 1
REMARK VINA RESULT:      -6.4      0.000      0.000
REMARK  3 active torsions:
REMARK  status: ('A' for Active; 'I' for Inactive)
REMARK    1  A    between atoms: C_8  and  C_9 
REMARK    2  A    between atoms: C_14  and  C_15 
REMARK    3  A    between atoms: C_15  and  O_17 
ROOT
HETATM    1  C   UNK N   1      27.637  18.948   5.876  0.00  0.00    -0.026 A 
HETATM    2  C   UNK N   1      27.257  18.185   4.761  0.00  0.00     0.013 A 
HETATM    3  C   UNK N   1      26.341  18.679   3.839  0.00  0.00     0.019 A 
HETATM    4  C   UNK N   1      27.075  20.225   6.051  0.00  0.00     0.013 A 
HETATM    5  C   UNK N   1      26.151  20.721   5.121  0.00  0.00     0.019 A 
HETATM    6  C   UNK N   1      25.780  19.948   4.010  0.00  0.00     0.037 A 
ENDROOT
BRANCH   1   7
HETATM    7  C   UNK N   1      28.616  18.388   6.836  0.00  0.00    -0.020 A 
HETATM    8  C   UNK N   1      28.700  18.931   8.128  0.00  0.00     0.054 A 
HETATM    9  C   UNK N   1      29.609  18.429   9.056  0.00  0.00     0.120 A 
HETATM   10  C   UNK N   1      30.451  17.373   8.705  0.00  0.00     0.084 A 
HETATM   11  F   UNK N   1      29.671  18.970  10.295  0.00  0.00    -0.206 F 
HETATM   12  C   UNK N   1      30.381  16.819   7.422  0.00  0.00     0.120 A 
HETATM   13  F   UNK N   1      31.200  15.794   7.088  0.00  0.00    -0.206 F 
HETATM   14  C   UNK N   1      29.466  17.324   6.488  0.00  0.00     0.054 A 
ENDBRANCH   1   7
BRANCH   6  15
HETATM   15  C   UNK N   1      24.810  20.454   3.021  0.00  0.00     0.176 C 
HETATM   16  O   UNK N   1      25.185  20.809   1.915  0.00  0.00    -0.646 OA
BRANCH  15  17
HETATM   17  O   UNK N   1      23.500  20.530   3.332  0.00  0.00    -0.773 OA
HETATM   18  H   UNK N   1      23.226  20.458   4.225  0.00  0.00     0.167 HD
ENDBRANCH  15  17
ENDBRANCH   6  15
TORSDOF 3
ENDMDL
MODEL 2
REMARK VINA RESULT:      -6.4      0.140      2.328
REMARK  3 active torsions:
REMARK  status: ('A' for Active; 'I' for Inactive)
REMARK    1  A    between atoms: C_8  and  C_9 
REMARK    2  A    between atoms: C_14  and  C_15 
REMARK    3  A    between atoms: C_15  and  O_17 
ROOT
HETATM    1  C   UNK N   1      27.580  18.887   5.818  0.00  0.00    -0.026 A 
HETATM    2  C   UNK N   1      27.191  20.235   5.847  0.00  0.00     0.013 A 
HETATM    3  C   UNK N   1      26.276  20.732   4.927  0.00  0.00     0.019 A 
HETATM    4  C   UNK N   1      27.030  18.040   4.840  0.00  0.00     0.013 A 
HETATM    5  C   UNK N   1      26.107  18.543   3.912  0.00  0.00     0.019 A 
HETATM    6  C   UNK N   1      25.726  19.893   3.952  0.00  0.00     0.037 A 
ENDROOT
BRANCH   1   7
HETATM    7  C   UNK N   1      28.558  18.394   6.816  0.00  0.00    -0.020 A 
HETATM    8  C   UNK N   1      29.437  17.357   6.463  0.00  0.00     0.054 A 
HETATM    9  C   UNK N   1      30.368  16.870   7.377  0.00  0.00     0.120 A 
HETATM   10  C   UNK N   1      30.436  17.413   8.660  0.00  0.00     0.084 A 
HETATM   11  F   UNK N   1      31.205  15.869   7.012  0.00  0.00    -0.206 F 
HETATM   12  C   UNK N   1      29.568  18.447   9.028  0.00  0.00     0.120 A 
HETATM   13  F   UNK N   1      29.638  18.970  10.275  0.00  0.00    -0.206 F 
HETATM   14  C   UNK N   1      28.630  18.938   8.109  0.00  0.00     0.054 A 
ENDBRANCH   1   7
BRANCH   6  15
HETATM   15  C   UNK N   1      24.757  20.439   2.984  0.00  0.00     0.176 C 
HETATM   16  O   UNK N   1      25.128  20.805   1.881  0.00  0.00    -0.646 OA
BRANCH  15  17
HETATM   17  O   UNK N   1      23.453  20.538   3.311  0.00  0.00    -0.773 OA
HETATM   18  H   UNK N   1      22.945  19.763   3.455  0.00  0.00     0.167 HD
ENDBRANCH  15  17
ENDBRANCH   6  15
TORSDOF 3
ENDMDL
MODEL 3
REMARK VINA RESULT:      -6.3      8.126      8.381
REMARK  3 active torsions:
REMARK  status: ('A' for Active; 'I' for Inactive)
REMARK    1  A    between atoms: C_8  and  C_9 
REMARK    2  A    between atoms: C_14  and  C_15 
REMARK    3  A    between atoms: C_15  and  O_17 
ROOT
HETATM    1  C   UNK N   1      21.586  14.756   8.622  0.00  0.00    -0.026 A 
HETATM    2  C   UNK N   1      22.384  14.711   7.469  0.00  0.00     0.013 A 
HETATM    3  C   UNK N   1      22.244  15.666   6.467  0.00  0.00     0.019 A 
HETATM    4  C   UNK N   1      20.636  15.784   8.753  0.00  0.00     0.013 A 
HETATM    5  C   UNK N   1      20.495  16.746   7.743  0.00  0.00     0.019 A 
HETATM    6  C   UNK N   1      21.300  16.690   6.595  0.00  0.00     0.037 A 
ENDROOT
BRANCH   1   7
HETATM    7  C   UNK N   1      21.765  13.722   9.667  0.00  0.00    -0.020 A 
HETATM    8  C   UNK N   1      23.055  13.245   9.948  0.00  0.00     0.054 A 
HETATM    9  C   UNK N   1      23.260  12.272  10.924  0.00  0.00     0.120 A 
HETATM   10  C   UNK N   1      22.174  11.761  11.635  0.00  0.00     0.084 A 
HETATM   11  F   UNK N   1      24.514  11.829  11.176  0.00  0.00    -0.206 F 
HETATM   12  C   UNK N   1      20.882  12.224  11.368  0.00  0.00     0.120 A 
HETATM   13  F   UNK N   1      19.832  11.724  12.063  0.00  0.00    -0.206 F 
HETATM   14  C   UNK N   1      20.675  13.203  10.386  0.00  0.00     0.054 A 
ENDBRANCH   1   7
BRANCH   6  15
HETATM   15  C   UNK N   1      21.165  17.693   5.521  0.00  0.00     0.176 C 
HETATM   16  O   UNK N   1      21.118  17.343   4.354  0.00  0.00    -0.646 OA
BRANCH  15  17
HETATM   17  O   UNK N   1      21.093  19.005   5.823  0.00  0.00    -0.773 OA
HETATM   18  H   UNK N   1      21.106  19.645   5.139  0.00  0.00     0.167 HD
ENDBRANCH  15  17
ENDBRANCH   6  15
TORSDOF 3
ENDMDL
MODEL 4
REMARK VINA RESULT:      -6.3      8.080      8.233
REMARK  3 active torsions:
REMARK  status: ('A' for Active; 'I' for Inactive)
REMARK    1  A    between atoms: C_8  and  C_9 
REMARK    2  A    between atoms: C_14  and  C_15 
REMARK    3  A    between atoms: C_15  and  O_17 
ROOT
HETATM    1  C   UNK N   1      21.630  14.780   8.587  0.00  0.00    -0.026 A 
HETATM    2  C   UNK N   1      22.397  14.760   7.412  0.00  0.00     0.013 A 
HETATM    3  C   UNK N   1      22.205  15.716   6.420  0.00  0.00     0.019 A 
HETATM    4  C   UNK N   1      20.659  15.783   8.750  0.00  0.00     0.013 A 
HETATM    5  C   UNK N   1      20.466  16.746   7.749  0.00  0.00     0.019 A 
HETATM    6  C   UNK N   1      21.240  16.715   6.579  0.00  0.00     0.037 A 
ENDROOT
BRANCH   1   7
HETATM    7  C   UNK N   1      21.864  13.745   9.621  0.00  0.00    -0.020 A 
HETATM    8  C   UNK N   1      20.773  13.234  10.341  0.00  0.00     0.054 A 
HETATM    9  C   UNK N   1      20.956  12.260  11.320  0.00  0.00     0.120 A 
HETATM   10  C   UNK N   1      22.238  11.783  11.595  0.00  0.00     0.084 A 
HETATM   11  F   UNK N   1      19.888  11.783  12.000  0.00  0.00    -0.206 F 
HETATM   12  C   UNK N   1      23.337  12.281  10.888  0.00  0.00     0.120 A 
HETATM   13  F   UNK N   1      24.579  11.813  11.159  0.00  0.00    -0.206 F 
HETATM   14  C   UNK N   1      23.153  13.261   9.902  0.00  0.00     0.054 A 
ENDBRANCH   1   7
BRANCH   6  15
HETATM   15  C   UNK N   1      21.051  17.719   5.515  0.00  0.00     0.176 C 
HETATM   16  O   UNK N   1      20.826  17.367   4.368  0.00  0.00    -0.646 OA
BRANCH  15  17
HETATM   17  O   UNK N   1      21.125  19.034   5.802  0.00  0.00    -0.773 OA
HETATM   18  H   UNK N   1      20.345  19.517   5.991  0.00  0.00     0.167 HD
ENDBRANCH  15  17
ENDBRANCH   6  15
TORSDOF 3
ENDMDL
MODEL 5
REMARK VINA RESULT:      -6.2     11.418     13.924
REMARK  3 active torsions:
REMARK  status: ('A' for Active; 'I' for Inactive)
REMARK    1  A    between atoms: C_8  and  C_9 
REMARK    2  A    between atoms: C_14  and  C_15 
REMARK    3  A    between atoms: C_15  and  O_17 
ROOT
HETATM    1  C   UNK N   1      35.801  13.132  15.072  0.00  0.00    -0.026 A 
HETATM    2  C   UNK N   1      35.092  12.623  13.973  0.00  0.00     0.013 A 
HETATM    3  C   UNK N   1      35.119  13.274  12.744  0.00  0.00     0.019 A 
HETATM    4  C   UNK N   1      36.544  14.315  14.915  0.00  0.00     0.013 A 
HETATM    5  C   UNK N   1      36.571  14.971  13.676  0.00  0.00     0.019 A 
HETATM    6  C   UNK N   1      35.857  14.451  12.585  0.00  0.00     0.037 A 
ENDROOT
BRANCH   1   7
HETATM    7  C   UNK N   1      35.748  12.411  16.365  0.00  0.00    -0.020 A 
HETATM    8  C   UNK N   1      36.197  11.082  16.430  0.00  0.00     0.054 A 
HETATM    9  C   UNK N   1      36.161  10.374  17.628  0.00  0.00     0.120 A 
HETATM   10  C   UNK N   1      35.674  10.986  18.784  0.00  0.00     0.084 A 
HETATM   11  F   UNK N   1      36.601   9.094  17.665  0.00  0.00    -0.206 F 
HETATM   12  C   UNK N   1      35.222  12.309  18.738  0.00  0.00     0.120 A 
HETATM   13  F   UNK N   1      34.750  12.897  19.863  0.00  0.00    -0.206 F 
HETATM   14  C   UNK N   1      35.258  13.022  17.531  0.00  0.00     0.054 A 
ENDBRANCH   1   7
BRANCH   6  15
HETATM   15  C   UNK N   1      35.873  15.127  11.273  0.00  0.00     0.176 C 
HETATM   16  O   UNK N   1      35.003  14.895  10.450  0.00  0.00    -0.646 OA
BRANCH  15  17
HETATM   17  O   UNK N   1      36.850  16.007  10.975  0.00  0.00    -0.773 OA
HETATM   18  H   UNK N   1      37.079  16.678  11.587  0.00  0.00     0.167 HD
ENDBRANCH  15  17
ENDBRANCH   6  15
TORSDOF 3
ENDMDL
MODEL 6
REMARK VINA RESULT:      -6.2      5.456      7.430
REMARK  3 active torsions:
REMARK  status: ('A' for Active; 'I' for Inactive)
REMARK    1  A    between atoms: C_8  and  C_9 
REMARK    2  A    between atoms: C_14  and  C_15 
REMARK    3  A    between atoms: C_15  and  O_17 
ROOT
HETATM    1  C   UNK N   1      31.486  17.093   5.716  0.00  0.00    -0.026 A 
HETATM    2  C   UNK N   1      31.156  17.250   7.071  0.00  0.00     0.013 A 
HETATM    3  C   UNK N   1      32.130  17.583   8.007  0.00  0.00     0.019 A 
HETATM    4  C   UNK N   1      32.820  17.277   5.313  0.00  0.00     0.013 A 
HETATM    5  C   UNK N   1      33.801  17.613   6.257  0.00  0.00     0.019 A 
HETATM    6  C   UNK N   1      33.458  17.767   7.610  0.00  0.00     0.037 A 
ENDROOT
BRANCH   1   7
HETATM    7  C   UNK N   1      30.421  16.738   4.749  0.00  0.00    -0.020 A 
HETATM    8  C   UNK N   1      29.280  17.550   4.654  0.00  0.00     0.054 A 
HETATM    9  C   UNK N   1      28.260  17.246   3.756  0.00  0.00     0.120 A 
HETATM   10  C   UNK N   1      28.366  16.120   2.937  0.00  0.00     0.084 A 
HETATM   11  F   UNK N   1      27.170  18.045   3.682  0.00  0.00    -0.206 F 
HETATM   12  C   UNK N   1      29.495  15.300   3.019  0.00  0.00     0.120 A 
HETATM   13  F   UNK N   1      29.592  14.209   2.222  0.00  0.00    -0.206 F 
HETATM   14  C   UNK N   1      30.522  15.605   3.923  0.00  0.00     0.054 A 
ENDBRANCH   1   7
BRANCH   6  15
HETATM   15  C   UNK N   1      34.476  18.120   8.617  0.00  0.00     0.176 C 
HETATM   16  O   UNK N   1      35.231  19.060   8.426  0.00  0.00    -0.646 OA
BRANCH  15  17
HETATM   17  O   UNK N   1      34.581  17.407   9.756  0.00  0.00    -0.773 OA
HETATM   18  H   UNK N   1      34.336  16.503   9.767  0.00  0.00     0.167 HD
ENDBRANCH  15  17
ENDBRANCH   6  15
TORSDOF 3
ENDMDL
MODEL 7
REMARK VINA RESULT:      -6.2      5.451      7.626
REMARK  3 active torsions:
REMARK  status: ('A' for Active; 'I' for Inactive)
REMARK    1  A    between atoms: C_8  and  C_9 
REMARK    2  A    between atoms: C_14  and  C_15 
REMARK    3  A    between atoms: C_15  and  O_17 
ROOT
HETATM    1  C   UNK N   1      31.412  17.129   5.839  0.00  0.00    -0.026 A 
HETATM    2  C   UNK N   1      32.747  17.268   5.428  0.00  0.00     0.013 A 
HETATM    3  C   UNK N   1      33.743  17.594   6.342  0.00  0.00     0.019 A 
HETATM    4  C   UNK N   1      31.092  17.323   7.194  0.00  0.00     0.013 A 
HETATM    5  C   UNK N   1      32.098  17.652   8.115  0.00  0.00     0.019 A 
HETATM    6  C   UNK N   1      33.429  17.788   7.690  0.00  0.00     0.037 A 
ENDROOT
BRANCH   1   7
HETATM    7  C   UNK N   1      30.379  16.781   4.836  0.00  0.00    -0.020 A 
HETATM    8  C   UNK N   1      30.575  15.668   4.004  0.00  0.00     0.054 A 
HETATM    9  C   UNK N   1      29.625  15.312   3.050  0.00  0.00     0.120 A 
HETATM   10  C   UNK N   1      28.459  16.067   2.914  0.00  0.00     0.084 A 
HETATM   11  F   UNK N   1      29.838  14.234   2.260  0.00  0.00    -0.206 F 
HETATM   12  C   UNK N   1      28.247  17.180   3.735  0.00  0.00     0.120 A 
HETATM   13  F   UNK N   1      27.114  17.908   3.598  0.00  0.00    -0.206 F 
HETATM   14  C   UNK N   1      29.203  17.538   4.695  0.00  0.00     0.054 A 
ENDBRANCH   1   7
BRANCH   6  15
HETATM   15  C   UNK N   1      34.500  18.133   8.645  0.00  0.00     0.176 C 
HETATM   16  O   UNK N   1      35.243  19.074   8.422  0.00  0.00    -0.646 OA
BRANCH  15  17
HETATM   17  O   UNK N   1      34.664  17.411   9.771  0.00  0.00    -0.773 OA
HETATM   18  H   UNK N   1      33.994  17.404  10.426  0.00  0.00     0.167 HD
ENDBRANCH  15  17
ENDBRANCH   6  15
TORSDOF 3
ENDMDL
MODEL 8
REMARK VINA RESULT:      -6.1     11.721     14.174
REMARK  3 active torsions:
REMARK  status: ('A' for Active; 'I' for Inactive)
REMARK    1  A    between atoms: C_8  and  C_9 
REMARK    2  A    between atoms: C_14  and  C_15 
REMARK    3  A    between atoms: C_15  and  O_17 
ROOT
HETATM    1  C   UNK N   1      35.610  12.791  15.503  0.00  0.00    -0.026 A 
HETATM    2  C   UNK N   1      36.403  13.914  15.218  0.00  0.00     0.013 A 
HETATM    3  C   UNK N   1      36.460  14.437  13.931  0.00  0.00     0.019 A 
HETATM    4  C   UNK N   1      34.871  12.198  14.465  0.00  0.00     0.013 A 
HETATM    5  C   UNK N   1      34.930  12.726  13.167  0.00  0.00     0.019 A 
HETATM    6  C   UNK N   1      35.727  13.849  12.896  0.00  0.00     0.037 A 
ENDROOT
BRANCH   1   7
HETATM    7  C   UNK N   1      35.575  12.263  16.887  0.00  0.00    -0.020 A 
HETATM    8  C   UNK N   1      35.104  13.084  17.924  0.00  0.00     0.054 A 
HETATM    9  C   UNK N   1      35.056  12.619  19.236  0.00  0.00     0.120 A 
HETATM   10  C   UNK N   1      35.481  11.324  19.532  0.00  0.00     0.084 A 
HETATM   11  F   UNK N   1      34.598  13.430  20.219  0.00  0.00    -0.206 F 
HETATM   12  C   UNK N   1      35.953  10.492  18.511  0.00  0.00     0.120 A 
HETATM   13  F   UNK N   1      36.363   9.235  18.804  0.00  0.00    -0.206 F 
HETATM   14  C   UNK N   1      36.001  10.959  17.190  0.00  0.00     0.054 A 
ENDBRANCH   1   7
BRANCH   6  15
HETATM   15  C   UNK N   1      35.801  14.419  11.537  0.00  0.00     0.176 C 
HETATM   16  O   UNK N   1      34.869  14.284  10.761  0.00  0.00    -0.646 OA
BRANCH  15  17
HETATM   17  O   UNK N   1      36.900  15.092  11.142  0.00  0.00    -0.773 OA
HETATM   18  H   UNK N   1      37.688  14.626  10.942  0.00  0.00     0.167 HD
ENDBRANCH  15  17
ENDBRANCH   6  15
TORSDOF 3
ENDMDL
MODEL 9
REMARK VINA RESULT:      -6.0      4.737      6.706
REMARK  3 active torsions:
REMARK  status: ('A' for Active; 'I' for Inactive)
REMARK    1  A    between atoms: C_8  and  C_9 
REMARK    2  A    between atoms: C_14  and  C_15 
REMARK    3  A    between atoms: C_15  and  O_17 
ROOT
HETATM    1  C   UNK N   1      29.269  18.179   7.041  0.00  0.00    -0.026 A 
HETATM    2  C   UNK N   1      29.507  18.251   8.422  0.00  0.00     0.013 A 
HETATM    3  C   UNK N   1      30.406  17.385   9.036  0.00  0.00     0.019 A 
HETATM    4  C   UNK N   1      29.953  17.215   6.280  0.00  0.00     0.013 A 
HETATM    5  C   UNK N   1      30.859  16.343   6.900  0.00  0.00     0.019 A 
HETATM    6  C   UNK N   1      31.089  16.425   8.282  0.00  0.00     0.037 A 
ENDROOT
BRANCH   1   7
HETATM    7  C   UNK N   1      28.304  19.119   6.424  0.00  0.00    -0.020 A 
HETATM    8  C   UNK N   1      27.558  19.978   7.247  0.00  0.00     0.054 A 
HETATM    9  C   UNK N   1      26.643  20.874   6.700  0.00  0.00     0.120 A 
HETATM   10  C   UNK N   1      26.458  20.924   5.318  0.00  0.00     0.084 A 
HETATM   11  F   UNK N   1      25.936  21.691   7.515  0.00  0.00    -0.206 F 
HETATM   12  C   UNK N   1      27.193  20.076   4.483  0.00  0.00     0.120 A 
HETATM   13  F   UNK N   1      27.009  20.129   3.142  0.00  0.00    -0.206 F 
HETATM   14  C   UNK N   1      28.114  19.174   5.033  0.00  0.00     0.054 A 
ENDBRANCH   1   7
BRANCH   6  15
HETATM   15  C   UNK N   1      32.038  15.515   8.951  0.00  0.00     0.176 C 
HETATM   16  O   UNK N   1      32.983  15.049   8.334  0.00  0.00    -0.646 OA
BRANCH  15  17
HETATM   17  O   UNK N   1      31.870  15.191  10.248  0.00  0.00    -0.773 OA
HETATM   18  H   UNK N   1      31.533  14.348  10.481  0.00  0.00     0.167 HD
ENDBRANCH  15  17
ENDBRANCH   6  15
TORSDOF 3
ENDMDL
