REMARK  14 active torsions:
REMARK  status: ('A' for Active; 'I' for Inactive)
REMARK    1  A    between atoms: C_8  and  C_7 
REMARK    2  A    between atoms: C_8  and  S_9 
REMARK    3  A    between atoms: S_9  and  C_10 
REMARK    4  A    between atoms: C_10  and  C_11 
REMARK    5  A    between atoms: C_11  and  C_12 
REMARK    6  A    between atoms: C_11  and  N_15 
REMARK    7  A    between atoms: C_12  and  O_13 
REMARK       I    between atoms: C_16  and  N_15 
REMARK       I    between atoms: N_18  and  C_16 
REMARK    8  A    between atoms: C_19  and  N_18 
REMARK    9  A    between atoms: C_20  and  C_19 
REMARK   10  A    between atoms: C_23  and  C_19 
REMARK   11  A    between atoms: C_20  and  O_21 
REMARK   12  A    between atoms: C_24  and  C_23 
REMARK   13  A    between atoms: C_25  and  C_24 
REMARK   14  A    between atoms: C_25  and  O_26 
ROOT
HETATM    1  N   UNK N   1       0.759  -0.017   0.240  0.00  0.00    -0.328 N 
HETATM    2  C   UNK N   1       1.162  -0.320  -1.024  0.00  0.00     0.317 C 
HETATM    3  O   UNK N   1       0.349  -0.665  -1.867  0.00  0.00    -0.247 OA
HETATM    4  N   UNK N   1       2.468  -0.193  -1.381  0.00  0.00    -0.329 N 
HETATM    5  H   UNK N   1       1.458   0.161   0.910  0.00  0.00     0.165 HD
HETATM    6  H   UNK N   1       2.716  -0.453  -2.297  0.00  0.00     0.165 HD
ENDROOT
BRANCH   1   7
HETATM    7  C   UNK N   1      -0.623   0.064   0.675  0.00  0.00     0.193 C 
BRANCH   7   8
HETATM    8  C   UNK N   1      -1.328  -1.312   0.679  0.00  0.00     0.110 C 
BRANCH   8   9
HETATM    9  S   UNK N   1      -2.274  -1.824  -0.795  0.00  0.00    -0.162 SA
BRANCH   9  10
HETATM   10  C   UNK N   1      -3.784  -2.143   0.189  0.00  0.00     0.112 C 
BRANCH  10  11
HETATM   11  C   UNK N   1      -4.737  -0.991   0.162  0.00  0.00    -0.049 A 
HETATM   12  C   UNK N   1      -5.970  -1.128  -0.486  0.00  0.00     0.011 A 
HETATM   13  C   UNK N   1      -6.866  -0.054  -0.526  0.00  0.00     0.043 A 
HETATM   14  C   UNK N   1      -6.532   1.159   0.085  0.00  0.00     0.116 A 
HETATM   15  F   UNK N   1      -7.393   2.204   0.033  0.00  0.00    -0.206 F 
HETATM   16  C   UNK N   1      -5.310   1.293   0.750  0.00  0.00     0.043 A 
HETATM   17  C   UNK N   1      -4.419   0.217   0.795  0.00  0.00     0.011 A 
ENDBRANCH  10  11
ENDBRANCH   9  10
ENDBRANCH   8   9
ENDBRANCH   7   8
BRANCH   7  18
HETATM   18  C   UNK N   1      -1.294   1.224  -0.034  0.00  0.00     0.164 C 
HETATM   19  O   UNK N   1      -0.846   2.349   0.119  0.00  0.00    -0.648 OA
BRANCH  18  20
HETATM   20  O   UNK N   1      -2.331   1.046  -0.869  0.00  0.00    -0.775 OA
HETATM   21  H   UNK N   1      -2.801   1.610  -1.451  0.00  0.00     0.167 HD
ENDBRANCH  18  20
ENDBRANCH   7  18
ENDBRANCH   1   7
BRANCH   4  22
HETATM   22  C   UNK N   1       3.527   0.298  -0.510  0.00  0.00     0.184 C 
BRANCH  22  23
HETATM   23  C   UNK N   1       3.291   1.736  -0.081  0.00  0.00     0.163 C 
HETATM   24  O   UNK N   1       2.295   2.343  -0.444  0.00  0.00    -0.648 OA
BRANCH  23  25
HETATM   25  O   UNK N   1       4.203   2.367   0.683  0.00  0.00    -0.775 OA
HETATM   26  H   UNK N   1       4.901   2.037   1.215  0.00  0.00     0.167 HD
ENDBRANCH  23  25
ENDBRANCH  22  23
BRANCH  22  27
HETATM   27  C   UNK N   1       3.695  -0.643   0.691  0.00  0.00     0.046 C 
BRANCH  27  28
HETATM   28  C   UNK N   1       4.962  -0.364   1.497  0.00  0.00     0.112 C 
BRANCH  28  29
HETATM   29  C   UNK N   1       6.187  -0.790   0.750  0.00  0.00     0.139 C 
HETATM   30  O   UNK N   1       6.353  -1.964   0.461  0.00  0.00    -0.650 OA
BRANCH  29  31
HETATM   31  O   UNK N   1       7.109   0.124   0.397  0.00  0.00    -0.776 OA
HETATM   32  H   UNK N   1       7.981  -0.113   0.151  0.00  0.00     0.167 HD
ENDBRANCH  29  31
ENDBRANCH  28  29
ENDBRANCH  27  28
ENDBRANCH  22  27
ENDBRANCH   4  22
TORSDOF 14
