MODEL 1
REMARK VINA RESULT:      -8.2      0.000      0.000
REMARK  9 active torsions:
REMARK  status: ('A' for Active; 'I' for Inactive)
REMARK    1  A    between atoms: C_5  and  N_12 
REMARK    2  A    between atoms: C_6  and  C_13 
REMARK    3  A    between atoms: C_13  and  S_14 
REMARK    4  A    between atoms: S_14  and  C_15 
REMARK    5  A    between atoms: C_15  and  C_16 
REMARK    6  A    between atoms: C_18  and  C_22 
REMARK    7  A    between atoms: C_22  and  C_23 
REMARK    8  A    between atoms: C_22  and  O_27 
REMARK    9  A    between atoms: C_22  and  O_30 
ROOT
HETATM    1  C   UNK N   1      22.827  14.597   5.941  0.00  0.00     0.117 C 
ENDROOT
BRANCH   1   2
HETATM    2  C   UNK N   1      23.239  14.042   7.266  0.00  0.00     0.001 A 
HETATM    3  C   UNK N   1      22.262  13.787   8.238  0.00  0.00     0.050 A 
HETATM    4  C   UNK N   1      22.624  13.160   9.444  0.00  0.00     0.056 A 
HETATM    5  C   UNK N   1      23.988  12.850   9.659  0.00  0.00     0.048 A 
HETATM    6  C   UNK N   1      21.673  12.818  10.432  0.00  0.00     0.131 A 
HETATM    7  N   UNK N   1      24.918  13.146   8.716  0.00  0.00    -0.359 N 
HETATM    8  C   UNK N   1      24.383  12.221  10.841  0.00  0.00     0.030 A 
HETATM    9  C   UNK N   1      24.582  13.720   7.530  0.00  0.00     0.015 A 
ATOM     10  HN  UNK N   1      25.898  12.931   8.902  1.00  0.00     0.166 HD
HETATM   11  C   UNK N   1      25.653  13.988   6.527  0.00  0.00     0.069 C 
HETATM   12  C   UNK N   1      23.436  11.887  11.810  0.00  0.00     0.005 A 
HETATM   13  C   UNK N   1      22.088  12.181  11.603  0.00  0.00     0.043 A 
HETATM   14  F   UNK N   1      20.350  13.068  10.264  0.00  0.00    -0.205 F 
BRANCH   3  15
HETATM   15  N   UNK N   1      20.918  14.140   7.989  0.00  0.00    -0.398 N 
HETATM   16  H   UNK N   1      20.403  13.673   7.291  0.00  0.00     0.156 HD
HETATM   17  H   UNK N   1      20.493  14.855   8.516  0.00  0.00     0.156 HD
ENDBRANCH   3  15
ENDBRANCH   1   2
BRANCH   1  18
HETATM   18  S   UNK N   1      22.761  16.415   6.084  0.00  0.00    -0.160 SA
BRANCH  18  19
HETATM   19  C   UNK N   1      24.174  16.696   4.945  0.00  0.00     0.112 C 
BRANCH  19  20
HETATM   20  C   UNK N   1      24.076  18.009   4.233  0.00  0.00    -0.048 A 
HETATM   21  C   UNK N   1      22.826  18.535   3.921  0.00  0.00     0.021 A 
HETATM   22  C   UNK N   1      22.695  19.762   3.264  0.00  0.00     0.013 A 
HETATM   23  C   UNK N   1      23.864  20.490   2.963  0.00  0.00     0.013 A 
HETATM   24  C   UNK N   1      25.125  19.964   3.263  0.00  0.00     0.001 A 
HETATM   25  C   UNK N   1      25.231  18.727   3.904  0.00  0.00     0.008 A 
BRANCH  22  26
HETATM   26  C   UNK N   1      21.318  20.325   3.080  0.00  0.00     0.290 C 
BRANCH  26  27
HETATM   27  C   UNK N   1      20.539  19.637   1.934  0.00  0.00     0.449 C 
HETATM   28  F   UNK N   1      20.899  18.320   1.707  0.00  0.00    -0.165 F 
HETATM   29  F   UNK N   1      20.711  20.329   0.744  0.00  0.00    -0.165 F 
HETATM   30  F   UNK N   1      19.182  19.633   2.213  0.00  0.00    -0.165 F 
ENDBRANCH  26  27
BRANCH  26  31
HETATM   31  O   UNK N   1      21.477  21.626   2.762  0.00  0.00    -0.355 OA
HETATM   32  H   UNK N   1      21.203  22.517   2.858  0.00  0.00     0.213 HD
ENDBRANCH  26  31
BRANCH  26  33
HETATM   33  O   UNK N   1      20.624  20.206   4.237  0.00  0.00    -0.355 OA
HETATM   34  H   UNK N   1      21.077  20.086   5.048  0.00  0.00     0.213 HD
ENDBRANCH  26  33
ENDBRANCH  22  26
ENDBRANCH  19  20
ENDBRANCH  18  19
ENDBRANCH   1  18
TORSDOF 9
ENDMDL
MODEL 2
REMARK VINA RESULT:      -8.1      5.248      7.004
REMARK  9 active torsions:
REMARK  status: ('A' for Active; 'I' for Inactive)
REMARK    1  A    between atoms: C_5  and  N_12 
REMARK    2  A    between atoms: C_6  and  C_13 
REMARK    3  A    between atoms: C_13  and  S_14 
REMARK    4  A    between atoms: S_14  and  C_15 
REMARK    5  A    between atoms: C_15  and  C_16 
REMARK    6  A    between atoms: C_18  and  C_22 
REMARK    7  A    between atoms: C_22  and  C_23 
REMARK    8  A    between atoms: C_22  and  O_27 
REMARK    9  A    between atoms: C_22  and  O_30 
ROOT
HETATM    1  C   UNK N   1      27.678  17.023   6.683  0.00  0.00     0.117 C 
ENDROOT
BRANCH   1   2
HETATM    2  C   UNK N   1      29.095  17.169   7.133  0.00  0.00     0.001 A 
HETATM    3  C   UNK N   1      30.133  16.966   6.213  0.00  0.00     0.050 A 
HETATM    4  C   UNK N   1      31.464  17.210   6.597  0.00  0.00     0.056 A 
HETATM    5  C   UNK N   1      31.718  17.609   7.931  0.00  0.00     0.048 A 
HETATM    6  C   UNK N   1      32.544  17.087   5.694  0.00  0.00     0.131 A 
HETATM    7  N   UNK N   1      30.696  17.758   8.811  0.00  0.00    -0.359 N 
HETATM    8  C   UNK N   1      33.026  17.867   8.345  0.00  0.00     0.030 A 
HETATM    9  C   UNK N   1      29.401  17.559   8.449  0.00  0.00     0.015 A 
ATOM     10  HN  UNK N   1      30.905  18.026   9.773  1.00  0.00     0.166 HD
HETATM   11  C   UNK N   1      28.325  17.772   9.461  0.00  0.00     0.069 C 
HETATM   12  C   UNK N   1      34.085  17.743   7.445  0.00  0.00     0.005 A 
HETATM   13  C   UNK N   1      33.844  17.359   6.126  0.00  0.00     0.043 A 
HETATM   14  F   UNK N   1      32.352  16.735   4.398  0.00  0.00    -0.205 F 
BRANCH   3  15
HETATM   15  N   UNK N   1      29.832  16.540   4.901  0.00  0.00    -0.398 N 
HETATM   16  H   UNK N   1      30.145  17.062   4.126  0.00  0.00     0.156 HD
HETATM   17  H   UNK N   1      29.308  15.718   4.760  0.00  0.00     0.156 HD
ENDBRANCH   3  15
ENDBRANCH   1   2
BRANCH   1  18
HETATM   18  S   UNK N   1      27.189  18.568   5.842  0.00  0.00    -0.160 SA
BRANCH  18  19
HETATM   19  C   UNK N   1      25.741  17.816   4.999  0.00  0.00     0.112 C 
BRANCH  19  20
HETATM   20  C   UNK N   1      25.006  18.803   4.147  0.00  0.00    -0.048 A 
HETATM   21  C   UNK N   1      23.614  18.816   4.148  0.00  0.00     0.021 A 
HETATM   22  C   UNK N   1      22.894  19.728   3.372  0.00  0.00     0.013 A 
HETATM   23  C   UNK N   1      23.609  20.678   2.615  0.00  0.00     0.013 A 
HETATM   24  C   UNK N   1      25.008  20.664   2.598  0.00  0.00     0.001 A 
HETATM   25  C   UNK N   1      25.706  19.732   3.370  0.00  0.00     0.008 A 
BRANCH  22  26
HETATM   26  C   UNK N   1      21.403  19.769   3.527  0.00  0.00     0.290 C 
BRANCH  26  27
HETATM   27  C   UNK N   1      20.674  18.803   2.562  0.00  0.00     0.449 C 
HETATM   28  F   UNK N   1      21.135  17.498   2.604  0.00  0.00    -0.165 F 
HETATM   29  F   UNK N   1      20.787  19.245   1.252  0.00  0.00    -0.165 F 
HETATM   30  F   UNK N   1      19.323  18.755   2.864  0.00  0.00    -0.165 F 
ENDBRANCH  26  27
BRANCH  26  31
HETATM   31  O   UNK N   1      21.023  21.029   3.230  0.00  0.00    -0.355 OA
HETATM   32  H   UNK N   1      20.772  21.883   3.521  0.00  0.00     0.213 HD
ENDBRANCH  26  31
BRANCH  26  33
HETATM   33  O   UNK N   1      21.074  19.469   4.805  0.00  0.00    -0.355 OA
HETATM   34  H   UNK N   1      20.511  18.742   4.990  0.00  0.00     0.213 HD
ENDBRANCH  26  33
ENDBRANCH  22  26
ENDBRANCH  19  20
ENDBRANCH  18  19
ENDBRANCH   1  18
TORSDOF 9
ENDMDL
MODEL 3
REMARK VINA RESULT:      -7.9      9.171     12.139
REMARK  9 active torsions:
REMARK  status: ('A' for Active; 'I' for Inactive)
REMARK    1  A    between atoms: C_5  and  N_12 
REMARK    2  A    between atoms: C_6  and  C_13 
REMARK    3  A    between atoms: C_13  and  S_14 
REMARK    4  A    between atoms: S_14  and  C_15 
REMARK    5  A    between atoms: C_15  and  C_16 
REMARK    6  A    between atoms: C_18  and  C_22 
REMARK    7  A    between atoms: C_22  and  C_23 
REMARK    8  A    between atoms: C_22  and  O_27 
REMARK    9  A    between atoms: C_22  and  O_30 
ROOT
HETATM    1  C   UNK N   1      30.095  16.030   5.678  0.00  0.00     0.117 C 
ENDROOT
BRANCH   1   2
HETATM    2  C   UNK N   1      29.386  17.292   6.050  0.00  0.00     0.001 A 
HETATM    3  C   UNK N   1      28.673  17.994   5.067  0.00  0.00     0.050 A 
HETATM    4  C   UNK N   1      27.910  19.119   5.428  0.00  0.00     0.056 A 
HETATM    5  C   UNK N   1      27.929  19.539   6.780  0.00  0.00     0.048 A 
HETATM    6  C   UNK N   1      27.119  19.826   4.495  0.00  0.00     0.131 A 
HETATM    7  N   UNK N   1      28.661  18.864   7.701  0.00  0.00    -0.359 N 
HETATM    8  C   UNK N   1      27.177  20.648   7.176  0.00  0.00     0.030 A 
HETATM    9  C   UNK N   1      29.377  17.755   7.377  0.00  0.00     0.015 A 
ATOM     10  HN  UNK N   1      28.674  19.198   8.665  1.00  0.00     0.166 HD
HETATM   11  C   UNK N   1      30.134  17.043   8.449  0.00  0.00     0.069 C 
HETATM   12  C   UNK N   1      26.399  21.338   6.246  0.00  0.00     0.005 A 
HETATM   13  C   UNK N   1      26.367  20.925   4.913  0.00  0.00     0.043 A 
HETATM   14  F   UNK N   1      27.044  19.447   3.194  0.00  0.00    -0.205 F 
BRANCH   3  15
HETATM   15  N   UNK N   1      28.709  17.552   3.726  0.00  0.00    -0.398 N 
HETATM   16  H   UNK N   1      27.897  17.190   3.302  0.00  0.00     0.156 HD
HETATM   17  H   UNK N   1      29.547  17.607   3.213  0.00  0.00     0.156 HD
ENDBRANCH   3  15
ENDBRANCH   1   2
BRANCH   1  18
HETATM   18  S   UNK N   1      31.704  16.479   4.942  0.00  0.00    -0.160 SA
BRANCH  18  19
HETATM   19  C   UNK N   1      32.678  15.403   6.066  0.00  0.00     0.112 C 
BRANCH  19  20
HETATM   20  C   UNK N   1      33.357  16.182   7.149  0.00  0.00    -0.048 A 
HETATM   21  C   UNK N   1      33.590  15.588   8.386  0.00  0.00     0.021 A 
HETATM   22  C   UNK N   1      34.229  16.281   9.418  0.00  0.00     0.013 A 
HETATM   23  C   UNK N   1      34.682  17.592   9.167  0.00  0.00     0.013 A 
HETATM   24  C   UNK N   1      34.442  18.201   7.930  0.00  0.00     0.001 A 
HETATM   25  C   UNK N   1      33.786  17.494   6.919  0.00  0.00     0.008 A 
BRANCH  22  26
HETATM   26  C   UNK N   1      34.563  15.533  10.674  0.00  0.00     0.290 C 
BRANCH  26  27
HETATM   27  C   UNK N   1      35.620  14.426  10.447  0.00  0.00     0.449 C 
HETATM   28  F   UNK N   1      35.101  13.218  10.017  0.00  0.00    -0.165 F 
HETATM   29  F   UNK N   1      36.331  14.185  11.613  0.00  0.00    -0.165 F 
HETATM   30  F   UNK N   1      36.534  14.828   9.486  0.00  0.00    -0.165 F 
ENDBRANCH  26  27
BRANCH  26  31
HETATM   31  O   UNK N   1      33.419  14.948  11.085  0.00  0.00    -0.355 OA
HETATM   32  H   UNK N   1      32.771  14.281  10.971  0.00  0.00     0.213 HD
ENDBRANCH  26  31
BRANCH  26  33
HETATM   33  O   UNK N   1      35.008  16.402  11.612  0.00  0.00    -0.355 OA
HETATM   34  H   UNK N   1      35.908  16.665  11.622  0.00  0.00     0.213 HD
ENDBRANCH  26  33
ENDBRANCH  22  26
ENDBRANCH  19  20
ENDBRANCH  18  19
ENDBRANCH   1  18
TORSDOF 9
ENDMDL
MODEL 4
REMARK VINA RESULT:      -7.9      3.316      3.927
REMARK  9 active torsions:
REMARK  status: ('A' for Active; 'I' for Inactive)
REMARK    1  A    between atoms: C_5  and  N_12 
REMARK    2  A    between atoms: C_6  and  C_13 
REMARK    3  A    between atoms: C_13  and  S_14 
REMARK    4  A    between atoms: S_14  and  C_15 
REMARK    5  A    between atoms: C_15  and  C_16 
REMARK    6  A    between atoms: C_18  and  C_22 
REMARK    7  A    between atoms: C_22  and  C_23 
REMARK    8  A    between atoms: C_22  and  O_27 
REMARK    9  A    between atoms: C_22  and  O_30 
ROOT
HETATM    1  C   UNK N   1      21.828  15.231   6.102  0.00  0.00     0.117 C 
ENDROOT
BRANCH   1   2
HETATM    2  C   UNK N   1      22.562  14.570   7.223  0.00  0.00     0.001 A 
HETATM    3  C   UNK N   1      21.847  14.120   8.342  0.00  0.00     0.050 A 
HETATM    4  C   UNK N   1      22.510  13.398   9.350  0.00  0.00     0.056 A 
HETATM    5  C   UNK N   1      23.904  13.190   9.223  0.00  0.00     0.048 A 
HETATM    6  C   UNK N   1      21.829  12.862  10.467  0.00  0.00     0.131 A 
HETATM    7  N   UNK N   1      24.578  13.672   8.148  0.00  0.00    -0.359 N 
HETATM    8  C   UNK N   1      24.594  12.470  10.201  0.00  0.00     0.030 A 
HETATM    9  C   UNK N   1      23.947  14.343   7.148  0.00  0.00     0.015 A 
ATOM     10  HN  UNK N   1      25.585  13.527   8.089  1.00  0.00     0.166 HD
HETATM   11  C   UNK N   1      24.746  14.817   5.980  0.00  0.00     0.069 C 
HETATM   12  C   UNK N   1      23.912  11.946  11.300  0.00  0.00     0.005 A 
HETATM   13  C   UNK N   1      22.536  12.138  11.428  0.00  0.00     0.043 A 
HETATM   14  F   UNK N   1      20.489  13.009  10.621  0.00  0.00    -0.205 F 
BRANCH   3  15
HETATM   15  N   UNK N   1      20.462  14.377   8.437  0.00  0.00    -0.398 N 
HETATM   16  H   UNK N   1      19.863  13.719   8.861  0.00  0.00     0.156 HD
HETATM   17  H   UNK N   1      20.092  15.217   8.079  0.00  0.00     0.156 HD
ENDBRANCH   3  15
ENDBRANCH   1   2
BRANCH   1  18
HETATM   18  S   UNK N   1      21.822  17.030   6.410  0.00  0.00    -0.160 SA
BRANCH  18  19
HETATM   19  C   UNK N   1      21.826  17.477   4.629  0.00  0.00     0.112 C 
BRANCH  19  20
HETATM   20  C   UNK N   1      22.892  18.473   4.297  0.00  0.00    -0.048 A 
HETATM   21  C   UNK N   1      24.145  18.373   4.896  0.00  0.00     0.021 A 
HETATM   22  C   UNK N   1      25.166  19.280   4.605  0.00  0.00     0.013 A 
HETATM   23  C   UNK N   1      24.921  20.283   3.646  0.00  0.00     0.013 A 
HETATM   24  C   UNK N   1      23.662  20.399   3.047  0.00  0.00     0.001 A 
HETATM   25  C   UNK N   1      22.650  19.490   3.367  0.00  0.00     0.008 A 
BRANCH  22  26
HETATM   26  C   UNK N   1      26.525  19.028   5.187  0.00  0.00     0.290 C 
BRANCH  26  27
HETATM   27  C   UNK N   1      27.011  20.185   6.094  0.00  0.00     0.449 C 
HETATM   28  F   UNK N   1      25.994  20.921   6.676  0.00  0.00    -0.165 F 
HETATM   29  F   UNK N   1      27.807  21.066   5.376  0.00  0.00    -0.165 F 
HETATM   30  F   UNK N   1      27.782  19.687   7.131  0.00  0.00    -0.165 F 
ENDBRANCH  26  27
BRANCH  26  31
HETATM   31  O   UNK N   1      27.374  18.924   4.144  0.00  0.00    -0.355 OA
HETATM   32  H   UNK N   1      28.113  19.254   3.672  0.00  0.00     0.213 HD
ENDBRANCH  26  31
BRANCH  26  33
HETATM   33  O   UNK N   1      26.507  17.874   5.894  0.00  0.00    -0.355 OA
HETATM   34  H   UNK N   1      26.065  17.833   6.720  0.00  0.00     0.213 HD
ENDBRANCH  26  33
ENDBRANCH  22  26
ENDBRANCH  19  20
ENDBRANCH  18  19
ENDBRANCH   1  18
TORSDOF 9
ENDMDL
MODEL 5
REMARK VINA RESULT:      -7.7      9.563     12.736
REMARK  9 active torsions:
REMARK  status: ('A' for Active; 'I' for Inactive)
REMARK    1  A    between atoms: C_5  and  N_12 
REMARK    2  A    between atoms: C_6  and  C_13 
REMARK    3  A    between atoms: C_13  and  S_14 
REMARK    4  A    between atoms: S_14  and  C_15 
REMARK    5  A    between atoms: C_15  and  C_16 
REMARK    6  A    between atoms: C_18  and  C_22 
REMARK    7  A    between atoms: C_22  and  C_23 
REMARK    8  A    between atoms: C_22  and  O_27 
REMARK    9  A    between atoms: C_22  and  O_30 
ROOT
HETATM    1  C   UNK N   1      30.220  15.535   5.887  0.00  0.00     0.117 C 
ENDROOT
BRANCH   1   2
HETATM    2  C   UNK N   1      29.401  16.716   5.479  0.00  0.00     0.001 A 
HETATM    3  C   UNK N   1      28.857  17.549   6.467  0.00  0.00     0.050 A 
HETATM    4  C   UNK N   1      28.181  18.725   6.094  0.00  0.00     0.056 A 
HETATM    5  C   UNK N   1      28.028  19.005   4.715  0.00  0.00     0.048 A 
HETATM    6  C   UNK N   1      27.671  19.636   7.046  0.00  0.00     0.131 A 
HETATM    7  N   UNK N   1      28.530  18.158   3.781  0.00  0.00    -0.359 N 
HETATM    8  C   UNK N   1      27.369  20.167   4.308  0.00  0.00     0.030 A 
HETATM    9  C   UNK N   1      29.216  17.036   4.123  0.00  0.00     0.015 A 
ATOM     10  HN  UNK N   1      28.389  18.371   2.793  1.00  0.00     0.166 HD
HETATM   11  C   UNK N   1      29.767  16.167   3.042  0.00  0.00     0.069 C 
HETATM   12  C   UNK N   1      26.869  21.060   5.256  0.00  0.00     0.005 A 
HETATM   13  C   UNK N   1      27.024  20.797   6.618  0.00  0.00     0.043 A 
HETATM   14  F   UNK N   1      27.816  19.430   8.379  0.00  0.00    -0.205 F 
BRANCH   3  15
HETATM   15  N   UNK N   1      29.012  17.213   7.830  0.00  0.00    -0.398 N 
HETATM   16  H   UNK N   1      29.605  16.472   8.093  0.00  0.00     0.156 HD
HETATM   17  H   UNK N   1      28.526  17.722   8.519  0.00  0.00     0.156 HD
ENDBRANCH   3  15
ENDBRANCH   1   2
BRANCH   1  18
HETATM   18  S   UNK N   1      31.962  16.066   6.009  0.00  0.00    -0.160 SA
BRANCH  18  19
HETATM   19  C   UNK N   1      32.091  15.716   7.806  0.00  0.00     0.112 C 
BRANCH  19  20
HETATM   20  C   UNK N   1      33.439  15.190   8.186  0.00  0.00    -0.048 A 
HETATM   21  C   UNK N   1      34.096  15.709   9.298  0.00  0.00     0.021 A 
HETATM   22  C   UNK N   1      35.353  15.238   9.688  0.00  0.00     0.013 A 
HETATM   23  C   UNK N   1      35.931  14.182   8.956  0.00  0.00     0.013 A 
HETATM   24  C   UNK N   1      35.284  13.662   7.829  0.00  0.00     0.001 A 
HETATM   25  C   UNK N   1      34.035  14.161   7.449  0.00  0.00     0.008 A 
BRANCH  22  26
HETATM   26  C   UNK N   1      35.936  15.752  10.971  0.00  0.00     0.290 C 
BRANCH  26  27
HETATM   27  C   UNK N   1      35.885  14.707  12.111  0.00  0.00     0.449 C 
HETATM   28  F   UNK N   1      36.817  13.690  11.997  0.00  0.00    -0.165 F 
HETATM   29  F   UNK N   1      34.630  14.119  12.177  0.00  0.00    -0.165 F 
HETATM   30  F   UNK N   1      36.115  15.320  13.332  0.00  0.00    -0.165 F 
ENDBRANCH  26  27
BRANCH  26  31
HETATM   31  O   UNK N   1      35.184  16.811  11.334  0.00  0.00    -0.355 OA
HETATM   32  H   UNK N   1      34.491  17.165  11.857  0.00  0.00     0.213 HD
ENDBRANCH  26  31
BRANCH  26  33
HETATM   33  O   UNK N   1      37.217  16.135  10.762  0.00  0.00    -0.355 OA
HETATM   34  H   UNK N   1      37.408  16.851  10.188  0.00  0.00     0.213 HD
ENDBRANCH  26  33
ENDBRANCH  22  26
ENDBRANCH  19  20
ENDBRANCH  18  19
ENDBRANCH   1  18
TORSDOF 9
ENDMDL
MODEL 6
REMARK VINA RESULT:      -7.6      4.535      5.716
REMARK  9 active torsions:
REMARK  status: ('A' for Active; 'I' for Inactive)
REMARK    1  A    between atoms: C_5  and  N_12 
REMARK    2  A    between atoms: C_6  and  C_13 
REMARK    3  A    between atoms: C_13  and  S_14 
REMARK    4  A    between atoms: S_14  and  C_15 
REMARK    5  A    between atoms: C_15  and  C_16 
REMARK    6  A    between atoms: C_18  and  C_22 
REMARK    7  A    between atoms: C_22  and  C_23 
REMARK    8  A    between atoms: C_22  and  O_27 
REMARK    9  A    between atoms: C_22  and  O_30 
ROOT
HETATM    1  C   UNK N   1      27.105  15.254   5.062  0.00  0.00     0.117 C 
ENDROOT
BRANCH   1   2
HETATM    2  C   UNK N   1      28.366  15.801   5.649  0.00  0.00     0.001 A 
HETATM    3  C   UNK N   1      28.289  16.766   6.663  0.00  0.00     0.050 A 
HETATM    4  C   UNK N   1      29.464  17.204   7.300  0.00  0.00     0.056 A 
HETATM    5  C   UNK N   1      30.704  16.687   6.854  0.00  0.00     0.048 A 
HETATM    6  C   UNK N   1      29.444  18.123   8.373  0.00  0.00     0.131 A 
HETATM    7  N   UNK N   1      30.750  15.785   5.841  0.00  0.00    -0.359 N 
HETATM    8  C   UNK N   1      31.891  17.094   7.468  0.00  0.00     0.030 A 
HETATM    9  C   UNK N   1      29.622  15.324   5.238  0.00  0.00     0.015 A 
ATOM     10  HN  UNK N   1      31.657  15.442   5.524  1.00  0.00     0.166 HD
HETATM   11  C   UNK N   1      29.746  14.308   4.152  0.00  0.00     0.069 C 
HETATM   12  C   UNK N   1      31.859  18.002   8.526  0.00  0.00     0.005 A 
HETATM   13  C   UNK N   1      30.641  18.510   8.979  0.00  0.00     0.043 A 
HETATM   14  F   UNK N   1      28.280  18.627   8.856  0.00  0.00    -0.205 F 
BRANCH   3  15
HETATM   15  N   UNK N   1      27.030  17.273   7.054  0.00  0.00    -0.398 N 
HETATM   16  H   UNK N   1      26.221  17.039   6.544  0.00  0.00     0.156 HD
HETATM   17  H   UNK N   1      26.961  17.862   7.840  0.00  0.00     0.156 HD
ENDBRANCH   3  15
ENDBRANCH   1   2
BRANCH   1  18
HETATM   18  S   UNK N   1      26.648  16.290   3.631  0.00  0.00    -0.160 SA
BRANCH  18  19
HETATM   19  C   UNK N   1      24.971  16.679   4.268  0.00  0.00     0.112 C 
BRANCH  19  20
HETATM   20  C   UNK N   1      24.479  18.011   3.796  0.00  0.00    -0.048 A 
HETATM   21  C   UNK N   1      23.119  18.304   3.845  0.00  0.00     0.021 A 
HETATM   22  C   UNK N   1      22.624  19.539   3.420  0.00  0.00     0.013 A 
HETATM   23  C   UNK N   1      23.541  20.515   2.980  0.00  0.00     0.013 A 
HETATM   24  C   UNK N   1      24.909  20.226   2.916  0.00  0.00     0.001 A 
HETATM   25  C   UNK N   1      25.378  18.976   3.330  0.00  0.00     0.008 A 
BRANCH  22  26
HETATM   26  C   UNK N   1      21.167  19.829   3.628  0.00  0.00     0.290 C 
BRANCH  26  27
HETATM   27  C   UNK N   1      20.250  18.922   2.774  0.00  0.00     0.449 C 
HETATM   28  F   UNK N   1      20.717  18.677   1.495  0.00  0.00    -0.165 F 
HETATM   29  F   UNK N   1      18.985  19.479   2.658  0.00  0.00    -0.165 F 
HETATM   30  F   UNK N   1      20.100  17.686   3.383  0.00  0.00    -0.165 F 
ENDBRANCH  26  27
BRANCH  26  31
HETATM   31  O   UNK N   1      20.975  21.108   3.243  0.00  0.00    -0.355 OA
HETATM   32  H   UNK N   1      20.806  22.000   3.473  0.00  0.00     0.213 HD
ENDBRANCH  26  31
BRANCH  26  33
HETATM   33  O   UNK N   1      20.861  19.683   4.938  0.00  0.00    -0.355 OA
HETATM   34  H   UNK N   1      21.381  20.104   5.594  0.00  0.00     0.213 HD
ENDBRANCH  26  33
ENDBRANCH  22  26
ENDBRANCH  19  20
ENDBRANCH  18  19
ENDBRANCH   1  18
TORSDOF 9
ENDMDL
MODEL 7
REMARK VINA RESULT:      -7.6     11.952     13.786
REMARK  9 active torsions:
REMARK  status: ('A' for Active; 'I' for Inactive)
REMARK    1  A    between atoms: C_5  and  N_12 
REMARK    2  A    between atoms: C_6  and  C_13 
REMARK    3  A    between atoms: C_13  and  S_14 
REMARK    4  A    between atoms: S_14  and  C_15 
REMARK    5  A    between atoms: C_15  and  C_16 
REMARK    6  A    between atoms: C_18  and  C_22 
REMARK    7  A    between atoms: C_22  and  C_23 
REMARK    8  A    between atoms: C_22  and  O_27 
REMARK    9  A    between atoms: C_22  and  O_30 
ROOT
HETATM    1  C   UNK N   1      35.652  12.148  11.873  0.00  0.00     0.117 C 
ENDROOT
BRANCH   1   2
HETATM    2  C   UNK N   1      35.487  12.358  13.344  0.00  0.00     0.001 A 
HETATM    3  C   UNK N   1      36.220  13.369  13.980  0.00  0.00     0.050 A 
HETATM    4  C   UNK N   1      35.989  13.649  15.339  0.00  0.00     0.056 A 
HETATM    5  C   UNK N   1      35.047  12.857  16.039  0.00  0.00     0.048 A 
HETATM    6  C   UNK N   1      36.649  14.699  16.016  0.00  0.00     0.131 A 
HETATM    7  N   UNK N   1      34.382  11.858  15.406  0.00  0.00    -0.359 N 
HETATM    8  C   UNK N   1      34.787  13.112  17.387  0.00  0.00     0.030 A 
HETATM    9  C   UNK N   1      34.567  11.596  14.085  0.00  0.00     0.015 A 
ATOM     10  HN  UNK N   1      33.723  11.288  15.937  1.00  0.00     0.166 HD
HETATM   11  C   UNK N   1      33.777  10.502  13.447  0.00  0.00     0.069 C 
HETATM   12  C   UNK N   1      35.444  14.151  18.046  0.00  0.00     0.005 A 
HETATM   13  C   UNK N   1      36.367  14.943  17.362  0.00  0.00     0.043 A 
HETATM   14  F   UNK N   1      37.540  15.505  15.384  0.00  0.00    -0.205 F 
BRANCH   3  15
HETATM   15  N   UNK N   1      37.170  14.113  13.246  0.00  0.00    -0.398 N 
HETATM   16  H   UNK N   1      38.095  14.196  13.574  0.00  0.00     0.156 HD
HETATM   17  H   UNK N   1      36.906  14.550  12.404  0.00  0.00     0.156 HD
ENDBRANCH   3  15
ENDBRANCH   1   2
BRANCH   1  18
HETATM   18  S   UNK N   1      34.690  13.433  11.005  0.00  0.00    -0.160 SA
BRANCH  18  19
HETATM   19  C   UNK N   1      36.103  13.996   9.978  0.00  0.00     0.112 C 
BRANCH  19  20
HETATM   20  C   UNK N   1      35.673  14.436   8.614  0.00  0.00    -0.048 A 
HETATM   21  C   UNK N   1      35.013  15.651   8.454  0.00  0.00     0.021 A 
HETATM   22  C   UNK N   1      34.603  16.098   7.195  0.00  0.00     0.013 A 
HETATM   23  C   UNK N   1      34.916  15.311   6.069  0.00  0.00     0.013 A 
HETATM   24  C   UNK N   1      35.569  14.083   6.220  0.00  0.00     0.001 A 
HETATM   25  C   UNK N   1      35.954  13.649   7.491  0.00  0.00     0.008 A 
BRANCH  22  26
HETATM   26  C   UNK N   1      34.018  17.475   7.087  0.00  0.00     0.290 C 
BRANCH  26  27
HETATM   27  C   UNK N   1      32.543  17.536   7.553  0.00  0.00     0.449 C 
HETATM   28  F   UNK N   1      32.136  16.449   8.307  0.00  0.00    -0.165 F 
HETATM   29  F   UNK N   1      31.691  17.632   6.463  0.00  0.00    -0.165 F 
HETATM   30  F   UNK N   1      32.336  18.660   8.336  0.00  0.00    -0.165 F 
ENDBRANCH  26  27
BRANCH  26  31
HETATM   31  O   UNK N   1      34.063  17.806   5.780  0.00  0.00    -0.355 OA
HETATM   32  H   UNK N   1      34.471  17.718   4.941  0.00  0.00     0.213 HD
ENDBRANCH  26  31
BRANCH  26  33
HETATM   33  O   UNK N   1      34.762  18.339   7.816  0.00  0.00    -0.355 OA
HETATM   34  H   UNK N   1      35.653  18.137   8.023  0.00  0.00     0.213 HD
ENDBRANCH  26  33
ENDBRANCH  22  26
ENDBRANCH  19  20
ENDBRANCH  18  19
ENDBRANCH   1  18
TORSDOF 9
ENDMDL
MODEL 8
REMARK VINA RESULT:      -7.5     11.777     13.533
REMARK  9 active torsions:
REMARK  status: ('A' for Active; 'I' for Inactive)
REMARK    1  A    between atoms: C_5  and  N_12 
REMARK    2  A    between atoms: C_6  and  C_13 
REMARK    3  A    between atoms: C_13  and  S_14 
REMARK    4  A    between atoms: S_14  and  C_15 
REMARK    5  A    between atoms: C_15  and  C_16 
REMARK    6  A    between atoms: C_18  and  C_22 
REMARK    7  A    between atoms: C_22  and  C_23 
REMARK    8  A    between atoms: C_22  and  O_27 
REMARK    9  A    between atoms: C_22  and  O_30 
ROOT
HETATM    1  C   UNK N   1      35.813  10.957  10.087  0.00  0.00     0.117 C 
ENDROOT
BRANCH   1   2
HETATM    2  C   UNK N   1      35.999  11.465  11.480  0.00  0.00     0.001 A 
HETATM    3  C   UNK N   1      34.991  11.249  12.430  0.00  0.00     0.050 A 
HETATM    4  C   UNK N   1      35.203  11.622  13.770  0.00  0.00     0.056 A 
HETATM    5  C   UNK N   1      36.423  12.255  14.107  0.00  0.00     0.048 A 
HETATM    6  C   UNK N   1      34.251  11.369  14.783  0.00  0.00     0.131 A 
HETATM    7  N   UNK N   1      37.364  12.487  13.158  0.00  0.00    -0.359 N 
HETATM    8  C   UNK N   1      36.670  12.632  15.429  0.00  0.00     0.030 A 
HETATM    9  C   UNK N   1      37.190  12.103  11.866  0.00  0.00     0.015 A 
ATOM     10  HN  UNK N   1      38.227  12.964  13.422  1.00  0.00     0.166 HD
HETATM   11  C   UNK N   1      38.282  12.363  10.881  0.00  0.00     0.069 C 
HETATM   12  C   UNK N   1      35.723  12.378  16.422  0.00  0.00     0.005 A 
HETATM   13  C   UNK N   1      34.522  11.746  16.100  0.00  0.00     0.043 A 
HETATM   14  F   UNK N   1      33.078  10.740  14.518  0.00  0.00    -0.205 F 
BRANCH   3  15
HETATM   15  N   UNK N   1      33.779  10.639  12.039  0.00  0.00    -0.398 N 
HETATM   16  H   UNK N   1      33.022  11.191  11.735  0.00  0.00     0.156 HD
HETATM   17  H   UNK N   1      33.691   9.659  12.070  0.00  0.00     0.156 HD
ENDBRANCH   3  15
ENDBRANCH   1   2
BRANCH   1  18
HETATM   18  S   UNK N   1      34.546  11.987   9.273  0.00  0.00    -0.160 SA
BRANCH  18  19
HETATM   19  C   UNK N   1      35.754  13.200   8.611  0.00  0.00     0.112 C 
BRANCH  19  20
HETATM   20  C   UNK N   1      35.544  14.572   9.169  0.00  0.00    -0.048 A 
HETATM   21  C   UNK N   1      35.082  15.593   8.342  0.00  0.00     0.021 A 
HETATM   22  C   UNK N   1      34.867  16.884   8.829  0.00  0.00     0.013 A 
HETATM   23  C   UNK N   1      35.081  17.129  10.200  0.00  0.00     0.013 A 
HETATM   24  C   UNK N   1      35.557  16.113  11.037  0.00  0.00     0.001 A 
HETATM   25  C   UNK N   1      35.781  14.833  10.523  0.00  0.00     0.008 A 
BRANCH  22  26
HETATM   26  C   UNK N   1      34.244  17.894   7.912  0.00  0.00     0.290 C 
BRANCH  26  27
HETATM   27  C   UNK N   1      32.697  17.860   7.949  0.00  0.00     0.449 C 
HETATM   28  F   UNK N   1      32.165  16.824   8.697  0.00  0.00    -0.165 F 
HETATM   29  F   UNK N   1      32.181  17.758   6.666  0.00  0.00    -0.165 F 
HETATM   30  F   UNK N   1      32.207  19.035   8.496  0.00  0.00    -0.165 F 
ENDBRANCH  26  27
BRANCH  26  31
HETATM   31  O   UNK N   1      34.644  17.573   6.664  0.00  0.00    -0.355 OA
HETATM   32  H   UNK N   1      34.589  17.001   5.924  0.00  0.00     0.213 HD
ENDBRANCH  26  31
BRANCH  26  33
HETATM   33  O   UNK N   1      34.680  19.132   8.240  0.00  0.00    -0.355 OA
HETATM   34  H   UNK N   1      35.489  19.455   7.893  0.00  0.00     0.213 HD
ENDBRANCH  26  33
ENDBRANCH  22  26
ENDBRANCH  19  20
ENDBRANCH  18  19
ENDBRANCH   1  18
TORSDOF 9
ENDMDL
MODEL 9
REMARK VINA RESULT:      -7.5     14.508     16.097
REMARK  9 active torsions:
REMARK  status: ('A' for Active; 'I' for Inactive)
REMARK    1  A    between atoms: C_5  and  N_12 
REMARK    2  A    between atoms: C_6  and  C_13 
REMARK    3  A    between atoms: C_13  and  S_14 
REMARK    4  A    between atoms: S_14  and  C_15 
REMARK    5  A    between atoms: C_15  and  C_16 
REMARK    6  A    between atoms: C_18  and  C_22 
REMARK    7  A    between atoms: C_22  and  C_23 
REMARK    8  A    between atoms: C_22  and  O_27 
REMARK    9  A    between atoms: C_22  and  O_30 
ROOT
HETATM    1  C   UNK N   1      26.592  23.738  -6.495  0.00  0.00     0.117 C 
ENDROOT
BRANCH   1   2
HETATM    2  C   UNK N   1      27.629  23.446  -5.459  0.00  0.00     0.001 A 
HETATM    3  C   UNK N   1      28.661  22.545  -5.756  0.00  0.00     0.050 A 
HETATM    4  C   UNK N   1      29.703  22.349  -4.832  0.00  0.00     0.056 A 
HETATM    5  C   UNK N   1      29.646  23.037  -3.596  0.00  0.00     0.048 A 
HETATM    6  C   UNK N   1      30.804  21.506  -5.104  0.00  0.00     0.131 A 
HETATM    7  N   UNK N   1      28.612  23.871  -3.320  0.00  0.00    -0.359 N 
HETATM    8  C   UNK N   1      30.667  22.872  -2.658  0.00  0.00     0.030 A 
HETATM    9  C   UNK N   1      27.615  24.100  -4.215  0.00  0.00     0.015 A 
ATOM     10  HN  UNK N   1      28.583  24.341  -2.415  1.00  0.00     0.166 HD
HETATM   11  C   UNK N   1      26.525  25.055  -3.856  0.00  0.00     0.069 C 
HETATM   12  C   UNK N   1      31.750  22.037  -2.937  0.00  0.00     0.005 A 
HETATM   13  C   UNK N   1      31.819  21.362  -4.156  0.00  0.00     0.043 A 
HETATM   14  F   UNK N   1      30.921  20.845  -6.283  0.00  0.00    -0.205 F 
BRANCH   3  15
HETATM   15  N   UNK N   1      28.660  21.860  -6.991  0.00  0.00    -0.398 N 
HETATM   16  H   UNK N   1      29.476  21.831  -7.542  0.00  0.00     0.156 HD
HETATM   17  H   UNK N   1      27.841  21.410  -7.301  0.00  0.00     0.156 HD
ENDBRANCH   3  15
ENDBRANCH   1   2
BRANCH   1  18
HETATM   18  S   UNK N   1      27.310  24.904  -7.702  0.00  0.00    -0.160 SA
BRANCH  18  19
HETATM   19  C   UNK N   1      26.139  26.260  -7.301  0.00  0.00     0.112 C 
BRANCH  19  20
HETATM   20  C   UNK N   1      26.838  27.482  -6.797  0.00  0.00    -0.048 A 
HETATM   21  C   UNK N   1      26.475  28.032  -5.570  0.00  0.00     0.021 A 
HETATM   22  C   UNK N   1      27.111  29.168  -5.064  0.00  0.00     0.013 A 
HETATM   23  C   UNK N   1      28.173  29.728  -5.801  0.00  0.00     0.013 A 
HETATM   24  C   UNK N   1      28.538  29.190  -7.040  0.00  0.00     0.001 A 
HETATM   25  C   UNK N   1      27.876  28.063  -7.534  0.00  0.00     0.008 A 
BRANCH  22  26
HETATM   26  C   UNK N   1      26.756  29.621  -3.679  0.00  0.00     0.290 C 
BRANCH  26  27
HETATM   27  C   UNK N   1      27.923  29.452  -2.677  0.00  0.00     0.449 C 
HETATM   28  F   UNK N   1      28.782  28.407  -2.971  0.00  0.00    -0.165 F 
HETATM   29  F   UNK N   1      27.438  29.246  -1.394  0.00  0.00    -0.165 F 
HETATM   30  F   UNK N   1      28.695  30.601  -2.644  0.00  0.00    -0.165 F 
ENDBRANCH  26  27
BRANCH  26  31
HETATM   31  O   UNK N   1      25.733  28.841  -3.273  0.00  0.00    -0.355 OA
HETATM   32  H   UNK N   1      25.353  27.988  -3.197  0.00  0.00     0.213 HD
ENDBRANCH  26  31
BRANCH  26  33
HETATM   33  O   UNK N   1      26.371  30.919  -3.714  0.00  0.00    -0.355 OA
HETATM   34  H   UNK N   1      26.903  31.579  -3.313  0.00  0.00     0.213 HD
ENDBRANCH  26  33
ENDBRANCH  22  26
ENDBRANCH  19  20
ENDBRANCH  18  19
ENDBRANCH   1  18
TORSDOF 9
ENDMDL
