REMARK  9 active torsions:
REMARK  status: ('A' for Active; 'I' for Inactive)
REMARK    1  A    between atoms: C_5  and  N_12 
REMARK    2  A    between atoms: C_6  and  C_13 
REMARK    3  A    between atoms: C_13  and  S_14 
REMARK    4  A    between atoms: S_14  and  C_15 
REMARK    5  A    between atoms: C_15  and  C_16 
REMARK    6  A    between atoms: C_18  and  C_22 
REMARK    7  A    between atoms: C_22  and  C_23 
REMARK    8  A    between atoms: C_22  and  O_27 
REMARK    9  A    between atoms: C_22  and  O_30 
ROOT
HETATM    1  C   UNK N   1      -0.619  -1.372  -0.598  0.00  0.00     0.117 C 
ENDROOT
BRANCH   1   2
HETATM    2  C   UNK N   1       0.667  -2.131  -0.539  0.00  0.00     0.001 A 
HETATM    3  C   UNK N   1       1.879  -1.427  -0.510  0.00  0.00     0.050 A 
HETATM    4  C   UNK N   1       3.088  -2.126  -0.341  0.00  0.00     0.056 A 
HETATM    5  C   UNK N   1       3.043  -3.538  -0.255  0.00  0.00     0.048 A 
HETATM    6  C   UNK N   1       4.333  -1.466  -0.237  0.00  0.00     0.131 A 
HETATM    7  N   UNK N   1       1.858  -4.195  -0.327  0.00  0.00    -0.359 N 
HETATM    8  C   UNK N   1       4.223  -4.264  -0.079  0.00  0.00     0.030 A 
HETATM    9  C   UNK N   1       0.677  -3.534  -0.456  0.00  0.00     0.015 A 
ATOM     10  HN  UNK N   1       1.853  -5.214  -0.283  1.00  0.00     0.166 HD
HETATM   11  C   UNK N   1      -0.591  -4.320  -0.497  0.00  0.00     0.069 C 
HETATM   12  C   UNK N   1       5.447  -3.602   0.022  0.00  0.00     0.005 A 
HETATM   13  C   UNK N   1       5.500  -2.210  -0.052  0.00  0.00     0.043 A 
HETATM   14  F   UNK N   1       4.428  -0.113  -0.285  0.00  0.00    -0.205 F 
BRANCH   3  15
HETATM   15  N   UNK N   1       1.875  -0.020  -0.628  0.00  0.00    -0.398 N 
HETATM   16  H   UNK N   1       2.724   0.473  -0.711  0.00  0.00     0.156 HD
HETATM   17  H   UNK N   1       1.021   0.470  -0.628  0.00  0.00     0.156 HD
ENDBRANCH   3  15
ENDBRANCH   1   2
BRANCH   1  18
HETATM   18  S   UNK N   1      -1.308  -1.291   1.090  0.00  0.00    -0.160 SA
BRANCH  18  19
HETATM   19  C   UNK N   1      -0.108  -0.029   1.671  0.00  0.00     0.112 C 
BRANCH  19  20
HETATM   20  C   UNK N   1      -0.390   1.326   1.102  0.00  0.00    -0.048 A 
HETATM   21  C   UNK N   1      -1.705   1.719   0.869  0.00  0.00     0.021 A 
HETATM   22  C   UNK N   1      -2.007   2.979   0.346  0.00  0.00     0.013 A 
HETATM   23  C   UNK N   1      -0.948   3.876   0.101  0.00  0.00     0.013 A 
HETATM   24  C   UNK N   1       0.378   3.486   0.321  0.00  0.00     0.001 A 
HETATM   25  C   UNK N   1       0.656   2.214   0.828  0.00  0.00     0.008 A 
BRANCH  22  26
HETATM   26  C   UNK N   1      -3.449   3.379   0.248  0.00  0.00     0.290 C 
BRANCH  26  27
HETATM   27  C   UNK N   1      -3.726   4.329  -0.942  0.00  0.00     0.449 C 
HETATM   28  F   UNK N   1      -2.639   4.538  -1.772  0.00  0.00    -0.165 F 
HETATM   29  F   UNK N   1      -4.150   5.569  -0.487  0.00  0.00    -0.165 F 
HETATM   30  F   UNK N   1      -4.738   3.816  -1.737  0.00  0.00    -0.165 F 
ENDBRANCH  26  27
BRANCH  26  31
HETATM   31  O   UNK N   1      -3.741   4.035   1.390  0.00  0.00    -0.355 OA
HETATM   32  H   UNK N   1      -3.448   4.439   2.183  0.00  0.00     0.213 HD
ENDBRANCH  26  31
BRANCH  26  33
HETATM   33  O   UNK N   1      -4.218   2.271   0.134  0.00  0.00    -0.355 OA
HETATM   34  H   UNK N   1      -5.149   2.349   0.055  0.00  0.00     0.213 HD
ENDBRANCH  26  33
ENDBRANCH  22  26
ENDBRANCH  19  20
ENDBRANCH  18  19
ENDBRANCH   1  18
TORSDOF 9
