MODEL 1
REMARK VINA RESULT:      -6.2      0.000      0.000
REMARK  4 active torsions:
REMARK  status: ('A' for Active; 'I' for Inactive)
REMARK    1  A    between atoms: C_1  and  C_17 
REMARK    2  A    between atoms: C_12  and  O_13 
REMARK    3  A    between atoms: C_17  and  C_18 
REMARK    4  A    between atoms: C_18  and  C_19 
ROOT
HETATM    1  C   UNK N   1      26.809  25.594  -4.326  0.00  0.00    -0.007 C 
HETATM    2  C   UNK N   1      25.960  26.764  -3.843  0.00  0.00     0.022 C 
HETATM    3  C   UNK N   1      25.916  27.866  -4.926  0.00  0.00     0.085 C 
HETATM    4  C   UNK N   1      27.280  28.151  -5.524  0.00  0.00     0.167 C 
HETATM    5  O   UNK N   1      27.437  29.161  -6.191  0.00  0.00    -0.292 OA
HETATM    6  C   UNK N   1      28.440  27.268  -5.226  0.00  0.00     0.064 C 
HETATM    7 Br   UNK N   1      30.213  27.903  -5.621  0.00  0.00    -0.046 Br
HETATM    8  C   UNK N   1      28.208  26.093  -4.598  0.00  0.00    -0.017 C 
HETATM    9  C   UNK N   1      29.163  25.150  -4.058  0.00  0.00    -0.021 A 
HETATM   10  C   UNK N   1      30.555  25.111  -4.185  0.00  0.00     0.015 A 
HETATM   11  C   UNK N   1      31.260  24.083  -3.541  0.00  0.00     0.037 A 
HETATM   12  C   UNK N   1      30.569  23.124  -2.776  0.00  0.00     0.066 A 
HETATM   13  C   UNK N   1      29.174  23.198  -2.647  0.00  0.00     0.044 A 
HETATM   14  C   UNK N   1      28.493  24.223  -3.306  0.00  0.00    -0.044 A 
HETATM   15  C   UNK N   1      27.018  24.484  -3.249  0.00  0.00     0.054 C 
ENDROOT
BRANCH   1  16
HETATM   16  C   UNK N   1      26.179  25.032  -5.629  0.00  0.00     0.015 C 
BRANCH  16  17
HETATM   17  C   UNK N   1      25.922  23.530  -5.649  0.00  0.00     0.001 C 
BRANCH  17  18
HETATM   18  C   UNK N   1      26.594  22.941  -6.878  0.00  0.00    -0.005 C 
HETATM   19  C   UNK N   1      28.047  22.641  -6.582  0.00  0.00     0.005 C 
ENDBRANCH  17  18
ENDBRANCH  16  17
ENDBRANCH   1  16
BRANCH  12  20
HETATM   20  O   UNK N   1      31.249  22.142  -2.164  0.00  0.00    -0.361 OA
HETATM   21  H   UNK N   1      31.567  22.265  -1.291  0.00  0.00     0.217 HD
ENDBRANCH  12  20
TORSDOF 4
ENDMDL
MODEL 2
REMARK VINA RESULT:      -6.2     13.080     14.707
REMARK  4 active torsions:
REMARK  status: ('A' for Active; 'I' for Inactive)
REMARK    1  A    between atoms: C_1  and  C_17 
REMARK    2  A    between atoms: C_12  and  O_13 
REMARK    3  A    between atoms: C_17  and  C_18 
REMARK    4  A    between atoms: C_18  and  C_19 
ROOT
HETATM    1  C   UNK N   1      31.138  16.433   5.239  0.00  0.00    -0.007 C 
HETATM    2  C   UNK N   1      32.018  17.023   4.144  0.00  0.00     0.022 C 
HETATM    3  C   UNK N   1      33.446  16.442   4.243  0.00  0.00     0.085 C 
HETATM    4  C   UNK N   1      33.969  16.419   5.666  0.00  0.00     0.167 C 
HETATM    5  O   UNK N   1      35.160  16.233   5.858  0.00  0.00    -0.292 OA
HETATM    6  C   UNK N   1      33.067  16.716   6.812  0.00  0.00     0.064 C 
HETATM    7 Br   UNK N   1      33.847  17.118   8.524  0.00  0.00    -0.046 Br
HETATM    8  C   UNK N   1      31.737  16.785   6.580  0.00  0.00    -0.017 C 
HETATM    9  C   UNK N   1      30.683  17.214   7.474  0.00  0.00    -0.021 A 
HETATM   10  C   UNK N   1      30.728  17.502   8.841  0.00  0.00     0.015 A 
HETATM   11  C   UNK N   1      29.550  17.918   9.479  0.00  0.00     0.037 A 
HETATM   12  C   UNK N   1      28.357  18.050   8.745  0.00  0.00     0.066 A 
HETATM   13  C   UNK N   1      28.343  17.775   7.369  0.00  0.00     0.044 A 
HETATM   14  C   UNK N   1      29.524  17.353   6.758  0.00  0.00    -0.044 A 
HETATM   15  C   UNK N   1      29.709  17.056   5.300  0.00  0.00     0.054 C 
ENDROOT
BRANCH   1  16
HETATM   16  C   UNK N   1      31.097  14.892   5.061  0.00  0.00     0.015 C 
BRANCH  16  17
HETATM   17  C   UNK N   1      29.763  14.311   4.604  0.00  0.00     0.001 C 
BRANCH  17  18
HETATM   18  C   UNK N   1      29.856  13.995   3.121  0.00  0.00    -0.005 C 
HETATM   19  C   UNK N   1      28.984  14.947   2.331  0.00  0.00     0.005 C 
ENDBRANCH  17  18
ENDBRANCH  16  17
ENDBRANCH   1  16
BRANCH  12  20
HETATM   20  O   UNK N   1      27.232  18.447   9.361  0.00  0.00    -0.361 OA
HETATM   21  H   UNK N   1      26.438  17.963   9.244  0.00  0.00     0.217 HD
ENDBRANCH  12  20
TORSDOF 4
ENDMDL
MODEL 3
REMARK VINA RESULT:      -6.1     23.883     26.232
REMARK  4 active torsions:
REMARK  status: ('A' for Active; 'I' for Inactive)
REMARK    1  A    between atoms: C_1  and  C_17 
REMARK    2  A    between atoms: C_12  and  O_13 
REMARK    3  A    between atoms: C_17  and  C_18 
REMARK    4  A    between atoms: C_18  and  C_19 
ROOT
HETATM    1  C   UNK N   1      36.179  12.440  15.070  0.00  0.00    -0.007 C 
HETATM    2  C   UNK N   1      37.455  12.540  14.242  0.00  0.00     0.022 C 
HETATM    3  C   UNK N   1      37.655  11.246  13.422  0.00  0.00     0.085 C 
HETATM    4  C   UNK N   1      37.413   9.992  14.240  0.00  0.00     0.167 C 
HETATM    5  O   UNK N   1      37.783   8.916  13.802  0.00  0.00    -0.292 OA
HETATM    6  C   UNK N   1      36.822  10.078  15.603  0.00  0.00     0.064 C 
HETATM    7 Br   UNK N   1      36.950   8.550  16.765  0.00  0.00    -0.046 Br
HETATM    8  C   UNK N   1      36.303  11.260  16.005  0.00  0.00    -0.017 C 
HETATM    9  C   UNK N   1      35.828  11.642  17.317  0.00  0.00    -0.021 A 
HETATM   10  C   UNK N   1      35.621  10.861  18.458  0.00  0.00     0.015 A 
HETATM   11  C   UNK N   1      35.161  11.487  19.627  0.00  0.00     0.037 A 
HETATM   12  C   UNK N   1      34.930  12.875  19.640  0.00  0.00     0.066 A 
HETATM   13  C   UNK N   1      35.166  13.640  18.488  0.00  0.00     0.044 A 
HETATM   14  C   UNK N   1      35.613  12.994  17.335  0.00  0.00    -0.044 A 
HETATM   15  C   UNK N   1      35.958  13.649  16.031  0.00  0.00     0.054 C 
ENDROOT
BRANCH   1  16
HETATM   16  C   UNK N   1      34.981  12.232  14.105  0.00  0.00     0.015 C 
BRANCH  16  17
HETATM   17  C   UNK N   1      33.881  11.299  14.602  0.00  0.00     0.001 C 
BRANCH  17  18
HETATM   18  C   UNK N   1      33.697  10.185  13.586  0.00  0.00    -0.005 C 
HETATM   19  C   UNK N   1      34.249  10.610  12.242  0.00  0.00     0.005 C 
ENDBRANCH  17  18
ENDBRANCH  16  17
ENDBRANCH   1  16
BRANCH  12  20
HETATM   20  O   UNK N   1      34.488  13.469  20.761  0.00  0.00    -0.361 OA
HETATM   21  H   UNK N   1      34.011  14.273  20.708  0.00  0.00     0.217 HD
ENDBRANCH  12  20
TORSDOF 4
ENDMDL
MODEL 4
REMARK VINA RESULT:      -6.1     12.737     15.109
REMARK  4 active torsions:
REMARK  status: ('A' for Active; 'I' for Inactive)
REMARK    1  A    between atoms: C_1  and  C_17 
REMARK    2  A    between atoms: C_12  and  O_13 
REMARK    3  A    between atoms: C_17  and  C_18 
REMARK    4  A    between atoms: C_18  and  C_19 
ROOT
HETATM    1  C   UNK N   1      31.391  17.416   8.094  0.00  0.00    -0.007 C 
HETATM    2  C   UNK N   1      30.984  18.600   8.962  0.00  0.00     0.022 C 
HETATM    3  C   UNK N   1      29.686  18.270   9.732  0.00  0.00     0.085 C 
HETATM    4  C   UNK N   1      28.637  17.615   8.853  0.00  0.00     0.167 C 
HETATM    5  O   UNK N   1      27.488  17.540   9.256  0.00  0.00    -0.292 OA
HETATM    6  C   UNK N   1      28.976  17.158   7.478  0.00  0.00     0.064 C 
HETATM    7 Br   UNK N   1      27.545  16.759   6.256  0.00  0.00    -0.046 Br
HETATM    8  C   UNK N   1      30.278  17.133   7.113  0.00  0.00    -0.017 C 
HETATM    9  C   UNK N   1      30.847  16.892   5.805  0.00  0.00    -0.021 A 
HETATM   10  C   UNK N   1      30.234  16.459   4.625  0.00  0.00     0.015 A 
HETATM   11  C   UNK N   1      31.019  16.316   3.472  0.00  0.00     0.037 A 
HETATM   12  C   UNK N   1      32.393  16.617   3.512  0.00  0.00     0.066 A 
HETATM   13  C   UNK N   1      32.981  17.071   4.703  0.00  0.00     0.044 A 
HETATM   14  C   UNK N   1      32.182  17.195   5.839  0.00  0.00    -0.044 A 
HETATM   15  C   UNK N   1      32.623  17.702   7.180  0.00  0.00     0.054 C 
ENDROOT
BRANCH   1  16
HETATM   16  C   UNK N   1      31.617  16.186   9.013  0.00  0.00     0.015 C 
BRANCH  16  17
HETATM   17  C   UNK N   1      32.957  15.476   8.856  0.00  0.00     0.001 C 
BRANCH  17  18
HETATM   18  C   UNK N   1      32.696  14.030   8.469  0.00  0.00    -0.005 C 
HETATM   19  C   UNK N   1      32.931  13.838   6.986  0.00  0.00     0.005 C 
ENDBRANCH  17  18
ENDBRANCH  16  17
ENDBRANCH   1  16
BRANCH  12  20
HETATM   20  O   UNK N   1      33.141  16.477   2.406  0.00  0.00    -0.361 OA
HETATM   21  H   UNK N   1      32.813  15.988   1.676  0.00  0.00     0.217 HD
ENDBRANCH  12  20
TORSDOF 4
ENDMDL
MODEL 5
REMARK VINA RESULT:      -6.0     24.504     27.325
REMARK  4 active torsions:
REMARK  status: ('A' for Active; 'I' for Inactive)
REMARK    1  A    between atoms: C_1  and  C_17 
REMARK    2  A    between atoms: C_12  and  O_13 
REMARK    3  A    between atoms: C_17  and  C_18 
REMARK    4  A    between atoms: C_18  and  C_19 
ROOT
HETATM    1  C   UNK N   1      36.146  10.519  15.506  0.00  0.00    -0.007 C 
HETATM    2  C   UNK N   1      37.327  10.461  14.545  0.00  0.00     0.022 C 
HETATM    3  C   UNK N   1      37.729   8.991  14.288  0.00  0.00     0.085 C 
HETATM    4  C   UNK N   1      37.785   8.171  15.563  0.00  0.00     0.167 C 
HETATM    5  O   UNK N   1      38.332   7.081  15.544  0.00  0.00    -0.292 OA
HETATM    6  C   UNK N   1      37.269   8.724  16.845  0.00  0.00     0.064 C 
HETATM    7 Br   UNK N   1      37.761   7.857  18.491  0.00  0.00    -0.046 Br
HETATM    8  C   UNK N   1      36.552   9.870  16.808  0.00  0.00    -0.017 C 
HETATM    9  C   UNK N   1      36.090  10.685  17.910  0.00  0.00    -0.021 A 
HETATM   10  C   UNK N   1      36.106  10.428  19.284  0.00  0.00     0.015 A 
HETATM   11  C   UNK N   1      35.602  11.404  20.157  0.00  0.00     0.037 A 
HETATM   12  C   UNK N   1      35.104  12.618  19.647  0.00  0.00     0.066 A 
HETATM   13  C   UNK N   1      35.119  12.860  18.265  0.00  0.00     0.044 A 
HETATM   14  C   UNK N   1      35.615  11.870  17.416  0.00  0.00    -0.044 A 
HETATM   15  C   UNK N   1      35.748  11.968  15.926  0.00  0.00     0.054 C 
ENDROOT
BRANCH   1  16
HETATM   16  C   UNK N   1      34.957   9.746  14.874  0.00  0.00     0.015 C 
BRANCH  16  17
HETATM   17  C   UNK N   1      33.869  10.605  14.238  0.00  0.00     0.001 C 
BRANCH  17  18
HETATM   18  C   UNK N   1      34.010  10.524  12.728  0.00  0.00    -0.005 C 
HETATM   19  C   UNK N   1      34.553   9.170  12.328  0.00  0.00     0.005 C 
ENDBRANCH  17  18
ENDBRANCH  16  17
ENDBRANCH   1  16
BRANCH  12  20
HETATM   20  O   UNK N   1      34.620  13.548  20.486  0.00  0.00    -0.361 OA
HETATM   21  H   UNK N   1      34.900  14.439  20.410  0.00  0.00     0.217 HD
ENDBRANCH  12  20
TORSDOF 4
ENDMDL
MODEL 6
REMARK VINA RESULT:      -6.0      2.913      5.354
REMARK  4 active torsions:
REMARK  status: ('A' for Active; 'I' for Inactive)
REMARK    1  A    between atoms: C_1  and  C_17 
REMARK    2  A    between atoms: C_12  and  O_13 
REMARK    3  A    between atoms: C_17  and  C_18 
REMARK    4  A    between atoms: C_18  and  C_19 
ROOT
HETATM    1  C   UNK N   1      26.509  24.221  -5.396  0.00  0.00    -0.007 C 
HETATM    2  C   UNK N   1      26.468  24.129  -3.876  0.00  0.00     0.022 C 
HETATM    3  C   UNK N   1      27.806  24.621  -3.280  0.00  0.00     0.085 C 
HETATM    4  C   UNK N   1      29.011  24.062  -4.012  0.00  0.00     0.167 C 
HETATM    5  O   UNK N   1      30.113  24.154  -3.498  0.00  0.00    -0.292 OA
HETATM    6  C   UNK N   1      28.845  23.323  -5.294  0.00  0.00     0.064 C 
HETATM    7 Br   UNK N   1      30.310  22.258  -5.944  0.00  0.00    -0.046 Br
HETATM    8  C   UNK N   1      27.637  23.353  -5.901  0.00  0.00    -0.017 C 
HETATM    9  C   UNK N   1      27.181  22.597  -7.046  0.00  0.00    -0.021 A 
HETATM   10  C   UNK N   1      27.896  21.776  -7.923  0.00  0.00     0.015 A 
HETATM   11  C   UNK N   1      27.203  21.135  -8.960  0.00  0.00     0.037 A 
HETATM   12  C   UNK N   1      25.814  21.313  -9.098  0.00  0.00     0.066 A 
HETATM   13  C   UNK N   1      25.115  22.126  -8.192  0.00  0.00     0.044 A 
HETATM   14  C   UNK N   1      25.827  22.761  -7.174  0.00  0.00    -0.044 A 
HETATM   15  C   UNK N   1      25.248  23.627  -6.096  0.00  0.00     0.054 C 
ENDROOT
BRANCH   1  16
HETATM   16  C   UNK N   1      26.755  25.701  -5.794  0.00  0.00     0.015 C 
BRANCH  16  17
HETATM   17  C   UNK N   1      25.646  26.366  -6.601  0.00  0.00     0.001 C 
BRANCH  17  18
HETATM   18  C   UNK N   1      24.751  27.139  -5.646  0.00  0.00    -0.005 C 
HETATM   19  C   UNK N   1      25.581  27.765  -4.547  0.00  0.00     0.005 C 
ENDBRANCH  17  18
ENDBRANCH  16  17
ENDBRANCH   1  16
BRANCH  12  20
HETATM   20  O   UNK N   1      25.156  20.699 -10.094  0.00  0.00    -0.361 OA
HETATM   21  H   UNK N   1      24.688  19.905  -9.928  0.00  0.00     0.217 HD
ENDBRANCH  12  20
TORSDOF 4
ENDMDL
MODEL 7
REMARK VINA RESULT:      -6.0     12.514     14.997
REMARK  4 active torsions:
REMARK  status: ('A' for Active; 'I' for Inactive)
REMARK    1  A    between atoms: C_1  and  C_17 
REMARK    2  A    between atoms: C_12  and  O_13 
REMARK    3  A    between atoms: C_17  and  C_18 
REMARK    4  A    between atoms: C_18  and  C_19 
ROOT
HETATM    1  C   UNK N   1      31.505  16.532   7.034  0.00  0.00    -0.007 C 
HETATM    2  C   UNK N   1      31.819  15.047   7.165  0.00  0.00     0.022 C 
HETATM    3  C   UNK N   1      32.536  14.543   5.893  0.00  0.00     0.085 C 
HETATM    4  C   UNK N   1      31.881  15.041   4.619  0.00  0.00     0.167 C 
HETATM    5  O   UNK N   1      32.177  14.519   3.556  0.00  0.00    -0.292 OA
HETATM    6  C   UNK N   1      30.819  16.082   4.667  0.00  0.00     0.064 C 
HETATM    7 Br   UNK N   1      29.715  16.351   3.114  0.00  0.00    -0.046 Br
HETATM    8  C   UNK N   1      30.608  16.731   5.835  0.00  0.00    -0.017 C 
HETATM    9  C   UNK N   1      29.547  17.650   6.182  0.00  0.00    -0.021 A 
HETATM   10  C   UNK N   1      28.569  18.238   5.374  0.00  0.00     0.015 A 
HETATM   11  C   UNK N   1      27.632  19.096   5.968  0.00  0.00     0.037 A 
HETATM   12  C   UNK N   1      27.678  19.341   7.353  0.00  0.00     0.066 A 
HETATM   13  C   UNK N   1      28.655  18.721   8.146  0.00  0.00     0.044 A 
HETATM   14  C   UNK N   1      29.584  17.881   7.531  0.00  0.00    -0.044 A 
HETATM   15  C   UNK N   1      30.666  17.104   8.218  0.00  0.00     0.054 C 
ENDROOT
BRANCH   1  16
HETATM   16  C   UNK N   1      32.838  17.302   6.836  0.00  0.00     0.015 C 
BRANCH  16  17
HETATM   17  C   UNK N   1      33.243  18.233   7.974  0.00  0.00     0.001 C 
BRANCH  17  18
HETATM   18  C   UNK N   1      34.614  17.813   8.477  0.00  0.00    -0.005 C 
HETATM   19  C   UNK N   1      34.483  16.648   9.433  0.00  0.00     0.005 C 
ENDBRANCH  17  18
ENDBRANCH  16  17
ENDBRANCH   1  16
BRANCH  12  20
HETATM   20  O   UNK N   1      26.780  20.165   7.916  0.00  0.00    -0.361 OA
HETATM   21  H   UNK N   1      26.140  19.825   8.510  0.00  0.00     0.217 HD
ENDBRANCH  12  20
TORSDOF 4
ENDMDL
MODEL 8
REMARK VINA RESULT:      -5.9      2.887      5.133
REMARK  4 active torsions:
REMARK  status: ('A' for Active; 'I' for Inactive)
REMARK    1  A    between atoms: C_1  and  C_17 
REMARK    2  A    between atoms: C_12  and  O_13 
REMARK    3  A    between atoms: C_17  and  C_18 
REMARK    4  A    between atoms: C_18  and  C_19 
ROOT
HETATM    1  C   UNK N   1      26.314  23.339  -6.236  0.00  0.00    -0.007 C 
HETATM    2  C   UNK N   1      25.334  22.269  -6.701  0.00  0.00     0.022 C 
HETATM    3  C   UNK N   1      25.557  21.963  -8.199  0.00  0.00     0.085 C 
HETATM    4  C   UNK N   1      25.716  23.219  -9.034  0.00  0.00     0.167 C 
HETATM    5  O   UNK N   1      25.638  23.139 -10.249  0.00  0.00    -0.292 OA
HETATM    6  C   UNK N   1      25.867  24.549  -8.383  0.00  0.00     0.064 C 
HETATM    7 Br   UNK N   1      25.612  26.133  -9.445  0.00  0.00    -0.046 Br
HETATM    8  C   UNK N   1      26.083  24.591  -7.049  0.00  0.00    -0.017 C 
HETATM    9  C   UNK N   1      26.098  25.739  -6.169  0.00  0.00    -0.021 A 
HETATM   10  C   UNK N   1      26.067  27.103  -6.474  0.00  0.00     0.015 A 
HETATM   11  C   UNK N   1      26.077  28.028  -5.419  0.00  0.00     0.037 A 
HETATM   12  C   UNK N   1      26.106  27.579  -4.086  0.00  0.00     0.066 A 
HETATM   13  C   UNK N   1      26.116  26.204  -3.806  0.00  0.00     0.044 A 
HETATM   14  C   UNK N   1      26.116  25.303  -4.871  0.00  0.00    -0.044 A 
HETATM   15  C   UNK N   1      26.082  23.808  -4.766  0.00  0.00     0.054 C 
ENDROOT
BRANCH   1  16
HETATM   16  C   UNK N   1      27.759  22.817  -6.462  0.00  0.00     0.015 C 
BRANCH  16  17
HETATM   17  C   UNK N   1      28.785  23.224  -5.410  0.00  0.00     0.001 C 
BRANCH  17  18
HETATM   18  C   UNK N   1      29.624  24.360  -5.968  0.00  0.00    -0.005 C 
HETATM   19  C   UNK N   1      29.725  25.479  -4.954  0.00  0.00     0.005 C 
ENDBRANCH  17  18
ENDBRANCH  16  17
ENDBRANCH   1  16
BRANCH  12  20
HETATM   20  O   UNK N   1      26.118  28.468  -3.080  0.00  0.00    -0.361 OA
HETATM   21  H   UNK N   1      25.427  28.471  -2.448  0.00  0.00     0.217 HD
ENDBRANCH  12  20
TORSDOF 4
ENDMDL
MODEL 9
REMARK VINA RESULT:      -5.9      2.975      4.938
REMARK  4 active torsions:
REMARK  status: ('A' for Active; 'I' for Inactive)
REMARK    1  A    between atoms: C_1  and  C_17 
REMARK    2  A    between atoms: C_12  and  O_13 
REMARK    3  A    between atoms: C_17  and  C_18 
REMARK    4  A    between atoms: C_18  and  C_19 
ROOT
HETATM    1  C   UNK N   1      26.169  26.036  -7.225  0.00  0.00    -0.007 C 
HETATM    2  C   UNK N   1      25.480  25.790  -8.562  0.00  0.00     0.022 C 
HETATM    3  C   UNK N   1      26.521  25.371  -9.624  0.00  0.00     0.085 C 
HETATM    4  C   UNK N   1      27.767  26.236  -9.593  0.00  0.00     0.167 C 
HETATM    5  O   UNK N   1      28.546  26.188 -10.530  0.00  0.00    -0.292 OA
HETATM    6  C   UNK N   1      27.992  27.204  -8.485  0.00  0.00     0.064 C 
HETATM    7 Br   UNK N   1      29.322  28.576  -8.711  0.00  0.00    -0.046 Br
HETATM    8  C   UNK N   1      27.185  27.139  -7.402  0.00  0.00    -0.017 C 
HETATM    9  C   UNK N   1      27.092  28.055  -6.286  0.00  0.00    -0.021 A 
HETATM   10  C   UNK N   1      27.908  29.137  -5.943  0.00  0.00     0.015 A 
HETATM   11  C   UNK N   1      27.588  29.885  -4.800  0.00  0.00     0.037 A 
HETATM   12  C   UNK N   1      26.458  29.551  -4.031  0.00  0.00     0.066 A 
HETATM   13  C   UNK N   1      25.642  28.473  -4.409  0.00  0.00     0.044 A 
HETATM   14  C   UNK N   1      25.987  27.737  -5.543  0.00  0.00    -0.044 A 
HETATM   15  C   UNK N   1      25.216  26.588  -6.120  0.00  0.00     0.054 C 
ENDROOT
BRANCH   1  16
HETATM   16  C   UNK N   1      26.876  24.726  -6.787  0.00  0.00     0.015 C 
BRANCH  16  17
HETATM   17  C   UNK N   1      26.158  23.908  -5.719  0.00  0.00     0.001 C 
BRANCH  17  18
HETATM   18  C   UNK N   1      26.851  24.138  -4.387  0.00  0.00    -0.005 C 
HETATM   19  C   UNK N   1      28.276  24.594  -4.613  0.00  0.00     0.005 C 
ENDBRANCH  17  18
ENDBRANCH  16  17
ENDBRANCH   1  16
BRANCH  12  20
HETATM   20  O   UNK N   1      26.157  30.269  -2.937  0.00  0.00    -0.361 OA
HETATM   21  H   UNK N   1      25.990  31.188  -3.011  0.00  0.00     0.217 HD
ENDBRANCH  12  20
TORSDOF 4
ENDMDL
