MODEL 1
REMARK VINA RESULT:      -6.0      0.000      0.000
REMARK  3 active torsions:
REMARK  status: ('A' for Active; 'I' for Inactive)
REMARK    1  A    between atoms: C_2  and  C_3 
REMARK    2  A    between atoms: C_3  and  O_4 
REMARK    3  A    between atoms: C_7  and  C_9 
ROOT
HETATM    1  O   UNK N   1      22.482  13.529  10.298  0.00  0.00    -0.303 OA
HETATM    2  C   UNK N   1      23.006  12.361  10.560  0.00  0.00     0.149 A 
HETATM    3  C   UNK N   1      22.871  11.525   9.469  0.00  0.00     0.047 A 
HETATM    4  C   UNK N   1      22.223  12.280   8.501  0.00  0.00     0.041 A 
HETATM    5  C   UNK N   1      22.010  13.522   9.077  0.00  0.00     0.088 A 
ENDROOT
BRANCH   5   6
HETATM    6  C   UNK N   1      21.384  14.723   8.480  0.00  0.00     0.021 A 
HETATM    7  C   UNK N   1      21.922  15.453   7.388  0.00  0.00     0.047 A 
HETATM    8  C   UNK N   1      21.247  16.588   6.919  0.00  0.00     0.026 A 
HETATM    9 Cl   UNK N   1      23.429  15.020   6.592  0.00  0.00    -0.083 Cl
HETATM   10  C   UNK N   1      20.052  17.002   7.511  0.00  0.00     0.025 A 
HETATM   11  C   UNK N   1      19.522  16.284   8.582  0.00  0.00     0.035 A 
HETATM   12  C   UNK N   1      20.186  15.159   9.060  0.00  0.00     0.040 A 
HETATM   13 Cl   UNK N   1      18.021  16.785   9.328  0.00  0.00    -0.084 Cl
ENDBRANCH   5   6
BRANCH   2  14
HETATM   14  C   UNK N   1      23.665  12.045  11.833  0.00  0.00     0.201 C 
HETATM   15  O   UNK N   1      22.994  11.731  12.802  0.00  0.00    -0.645 OA
BRANCH  14  16
HETATM   16  O   UNK N   1      25.005  12.123  11.943  0.00  0.00    -0.771 OA
HETATM   17  H   UNK N   1      25.433  11.800  12.710  0.00  0.00     0.167 HD
ENDBRANCH  14  16
ENDBRANCH   2  14
TORSDOF 3
ENDMDL
MODEL 2
REMARK VINA RESULT:      -6.0     14.020     16.093
REMARK  3 active torsions:
REMARK  status: ('A' for Active; 'I' for Inactive)
REMARK    1  A    between atoms: C_2  and  C_3 
REMARK    2  A    between atoms: C_3  and  O_4 
REMARK    3  A    between atoms: C_7  and  C_9 
ROOT
HETATM    1  O   UNK N   1      34.973  12.954  14.637  0.00  0.00    -0.303 OA
HETATM    2  C   UNK N   1      35.423  13.584  13.585  0.00  0.00     0.149 A 
HETATM    3  C   UNK N   1      36.516  14.356  13.925  0.00  0.00     0.047 A 
HETATM    4  C   UNK N   1      36.713  14.143  15.283  0.00  0.00     0.041 A 
HETATM    5  C   UNK N   1      35.720  13.258  15.669  0.00  0.00     0.088 A 
ENDROOT
BRANCH   5   6
HETATM    6  C   UNK N   1      35.476  12.666  17.004  0.00  0.00     0.021 A 
HETATM    7  C   UNK N   1      35.312  13.416  18.198  0.00  0.00     0.047 A 
HETATM    8  C   UNK N   1      35.104  12.743  19.410  0.00  0.00     0.026 A 
HETATM    9 Cl   UNK N   1      35.383  15.172  18.249  0.00  0.00    -0.083 Cl
HETATM   10  C   UNK N   1      35.050  11.348  19.451  0.00  0.00     0.025 A 
HETATM   11  C   UNK N   1      35.208  10.612  18.279  0.00  0.00     0.035 A 
HETATM   12  C   UNK N   1      35.422  11.268  17.071  0.00  0.00     0.040 A 
HETATM   13 Cl   UNK N   1      35.134   8.864  18.312  0.00  0.00    -0.084 Cl
ENDBRANCH   5   6
BRANCH   2  14
HETATM   14  C   UNK N   1      34.837  13.431  12.248  0.00  0.00     0.201 C 
HETATM   15  O   UNK N   1      35.055  12.420  11.601  0.00  0.00    -0.645 OA
BRANCH  14  16
HETATM   16  O   UNK N   1      34.077  14.411  11.722  0.00  0.00    -0.771 OA
HETATM   17  H   UNK N   1      34.438  15.265  11.588  0.00  0.00     0.167 HD
ENDBRANCH  14  16
ENDBRANCH   2  14
TORSDOF 3
ENDMDL
MODEL 3
REMARK VINA RESULT:      -6.0      9.626     10.633
REMARK  3 active torsions:
REMARK  status: ('A' for Active; 'I' for Inactive)
REMARK    1  A    between atoms: C_2  and  C_3 
REMARK    2  A    between atoms: C_3  and  O_4 
REMARK    3  A    between atoms: C_7  and  C_9 
ROOT
HETATM    1  O   UNK N   1      32.515  17.965   8.292  0.00  0.00    -0.303 OA
HETATM    2  C   UNK N   1      33.578  17.293   8.649  0.00  0.00     0.149 A 
HETATM    3  C   UNK N   1      33.342  15.937   8.540  0.00  0.00     0.047 A 
HETATM    4  C   UNK N   1      32.039  15.824   8.074  0.00  0.00     0.041 A 
HETATM    5  C   UNK N   1      31.577  17.122   7.937  0.00  0.00     0.088 A 
ENDROOT
BRANCH   5   6
HETATM    6  C   UNK N   1      30.261  17.589   7.447  0.00  0.00     0.021 A 
HETATM    7  C   UNK N   1      29.304  18.275   8.241  0.00  0.00     0.047 A 
HETATM    8  C   UNK N   1      28.081  18.653   7.671  0.00  0.00     0.026 A 
HETATM    9 Cl   UNK N   1      29.561  18.662   9.936  0.00  0.00    -0.083 Cl
HETATM   10  C   UNK N   1      27.799  18.368   6.332  0.00  0.00     0.025 A 
HETATM   11  C   UNK N   1      28.739  17.697   5.552  0.00  0.00     0.035 A 
HETATM   12  C   UNK N   1      29.954  17.311   6.109  0.00  0.00     0.040 A 
HETATM   13 Cl   UNK N   1      28.405  17.340   3.873  0.00  0.00    -0.084 Cl
ENDBRANCH   5   6
BRANCH   2  14
HETATM   14  C   UNK N   1      34.830  17.937   9.065  0.00  0.00     0.201 C 
HETATM   15  O   UNK N   1      35.481  17.465   9.981  0.00  0.00    -0.645 OA
BRANCH  14  16
HETATM   16  O   UNK N   1      35.252  19.061   8.453  0.00  0.00    -0.771 OA
HETATM   17  H   UNK N   1      36.165  19.267   8.426  0.00  0.00     0.167 HD
ENDBRANCH  14  16
ENDBRANCH   2  14
TORSDOF 3
ENDMDL
MODEL 4
REMARK VINA RESULT:      -5.9     13.390     15.332
REMARK  3 active torsions:
REMARK  status: ('A' for Active; 'I' for Inactive)
REMARK    1  A    between atoms: C_2  and  C_3 
REMARK    2  A    between atoms: C_3  and  O_4 
REMARK    3  A    between atoms: C_7  and  C_9 
ROOT
HETATM    1  O   UNK N   1      34.812  13.625  13.327  0.00  0.00    -0.303 OA
HETATM    2  C   UNK N   1      35.265  14.094  12.194  0.00  0.00     0.149 A 
HETATM    3  C   UNK N   1      36.499  13.542  11.911  0.00  0.00     0.047 A 
HETATM    4  C   UNK N   1      36.770  12.680  12.965  0.00  0.00     0.041 A 
HETATM    5  C   UNK N   1      35.680  12.774  13.814  0.00  0.00     0.088 A 
ENDROOT
BRANCH   5   6
HETATM    6  C   UNK N   1      35.428  12.048  15.079  0.00  0.00     0.021 A 
HETATM    7  C   UNK N   1      35.187  10.652  15.172  0.00  0.00     0.047 A 
HETATM    8  C   UNK N   1      34.941  10.078  16.427  0.00  0.00     0.026 A 
HETATM    9 Cl   UNK N   1      35.153   9.587  13.773  0.00  0.00    -0.083 Cl
HETATM   10  C   UNK N   1      34.938  10.863  17.582  0.00  0.00     0.025 A 
HETATM   11  C   UNK N   1      35.177  12.233  17.492  0.00  0.00     0.035 A 
HETATM   12  C   UNK N   1      35.415  12.816  16.251  0.00  0.00     0.040 A 
HETATM   13 Cl   UNK N   1      35.185  13.228  18.930  0.00  0.00    -0.084 Cl
ENDBRANCH   5   6
BRANCH   2  14
HETATM   14  C   UNK N   1      34.515  15.042  11.362  0.00  0.00     0.201 C 
HETATM   15  O   UNK N   1      35.076  16.021  10.900  0.00  0.00    -0.645 OA
BRANCH  14  16
HETATM   16  O   UNK N   1      33.203  14.848  11.126  0.00  0.00    -0.771 OA
HETATM   17  H   UNK N   1      32.568  15.430  11.492  0.00  0.00     0.167 HD
ENDBRANCH  14  16
ENDBRANCH   2  14
TORSDOF 3
ENDMDL
MODEL 5
REMARK VINA RESULT:      -5.9      3.065      5.647
REMARK  3 active torsions:
REMARK  status: ('A' for Active; 'I' for Inactive)
REMARK    1  A    between atoms: C_2  and  C_3 
REMARK    2  A    between atoms: C_3  and  O_4 
REMARK    3  A    between atoms: C_7  and  C_9 
ROOT
HETATM    1  O   UNK N   1      19.711  15.244   9.134  0.00  0.00    -0.303 OA
HETATM    2  C   UNK N   1      19.245  16.391   8.716  0.00  0.00     0.149 A 
HETATM    3  C   UNK N   1      20.124  16.963   7.818  0.00  0.00     0.047 A 
HETATM    4  C   UNK N   1      21.176  16.064   7.706  0.00  0.00     0.041 A 
HETATM    5  C   UNK N   1      20.860  15.012   8.549  0.00  0.00     0.088 A 
ENDROOT
BRANCH   5   6
HETATM    6  C   UNK N   1      21.618  13.765   8.797  0.00  0.00     0.021 A 
HETATM    7  C   UNK N   1      22.076  12.886   7.780  0.00  0.00     0.047 A 
HETATM    8  C   UNK N   1      22.770  11.722   8.137  0.00  0.00     0.026 A 
HETATM    9 Cl   UNK N   1      21.794  13.167   6.067  0.00  0.00    -0.083 Cl
HETATM   10  C   UNK N   1      23.019  11.424   9.479  0.00  0.00     0.025 A 
HETATM   11  C   UNK N   1      22.572  12.288  10.477  0.00  0.00     0.035 A 
HETATM   12  C   UNK N   1      21.876  13.443  10.135  0.00  0.00     0.040 A 
HETATM   13 Cl   UNK N   1      22.884  11.934  12.162  0.00  0.00    -0.084 Cl
ENDBRANCH   5   6
BRANCH   2  14
HETATM   14  C   UNK N   1      17.949  16.932   9.144  0.00  0.00     0.201 C 
HETATM   15  O   UNK N   1      16.938  16.264   9.010  0.00  0.00    -0.645 OA
BRANCH  14  16
HETATM   16  O   UNK N   1      17.869  18.172   9.663  0.00  0.00    -0.771 OA
HETATM   17  H   UNK N   1      18.634  18.588  10.007  0.00  0.00     0.167 HD
ENDBRANCH  14  16
ENDBRANCH   2  14
TORSDOF 3
ENDMDL
MODEL 6
REMARK VINA RESULT:      -5.8     10.153     11.105
REMARK  3 active torsions:
REMARK  status: ('A' for Active; 'I' for Inactive)
REMARK    1  A    between atoms: C_2  and  C_3 
REMARK    2  A    between atoms: C_3  and  O_4 
REMARK    3  A    between atoms: C_7  and  C_9 
ROOT
HETATM    1  O   UNK N   1      33.222  16.675   9.079  0.00  0.00    -0.303 OA
HETATM    2  C   UNK N   1      34.440  17.012   9.411  0.00  0.00     0.149 A 
HETATM    3  C   UNK N   1      34.880  18.051   8.615  0.00  0.00     0.047 A 
HETATM    4  C   UNK N   1      33.822  18.337   7.762  0.00  0.00     0.041 A 
HETATM    5  C   UNK N   1      32.817  17.447   8.102  0.00  0.00     0.088 A 
ENDROOT
BRANCH   5   6
HETATM    6  C   UNK N   1      31.456  17.327   7.532  0.00  0.00     0.021 A 
HETATM    7  C   UNK N   1      31.176  17.111   6.157  0.00  0.00     0.047 A 
HETATM    8  C   UNK N   1      29.843  17.032   5.730  0.00  0.00     0.026 A 
HETATM    9 Cl   UNK N   1      32.428  16.962   4.932  0.00  0.00    -0.083 Cl
HETATM   10  C   UNK N   1      28.793  17.156   6.644  0.00  0.00     0.025 A 
HETATM   11  C   UNK N   1      29.068  17.365   7.994  0.00  0.00     0.035 A 
HETATM   12  C   UNK N   1      30.387  17.452   8.428  0.00  0.00     0.040 A 
HETATM   13 Cl   UNK N   1      27.765  17.513   9.151  0.00  0.00    -0.084 Cl
ENDBRANCH   5   6
BRANCH   2  14
HETATM   14  C   UNK N   1      35.178  16.371  10.506  0.00  0.00     0.201 C 
HETATM   15  O   UNK N   1      36.376  16.565  10.627  0.00  0.00    -0.645 OA
BRANCH  14  16
HETATM   16  O   UNK N   1      34.543  15.551  11.365  0.00  0.00    -0.771 OA
HETATM   17  H   UNK N   1      33.926  15.898  11.978  0.00  0.00     0.167 HD
ENDBRANCH  14  16
ENDBRANCH   2  14
TORSDOF 3
ENDMDL
MODEL 7
REMARK VINA RESULT:      -5.8      7.739      9.516
REMARK  3 active torsions:
REMARK  status: ('A' for Active; 'I' for Inactive)
REMARK    1  A    between atoms: C_2  and  C_3 
REMARK    2  A    between atoms: C_3  and  O_4 
REMARK    3  A    between atoms: C_7  and  C_9 
ROOT
HETATM    1  O   UNK N   1      23.327  19.837   3.377  0.00  0.00    -0.303 OA
HETATM    2  C   UNK N   1      22.055  19.542   3.367  0.00  0.00     0.149 A 
HETATM    3  C   UNK N   1      21.829  18.387   4.088  0.00  0.00     0.047 A 
HETATM    4  C   UNK N   1      23.075  17.993   4.557  0.00  0.00     0.041 A 
HETATM    5  C   UNK N   1      23.969  18.939   4.082  0.00  0.00     0.088 A 
ENDROOT
BRANCH   5   6
HETATM    6  C   UNK N   1      25.429  19.026   4.305  0.00  0.00     0.021 A 
HETATM    7  C   UNK N   1      26.376  18.093   3.807  0.00  0.00     0.047 A 
HETATM    8  C   UNK N   1      27.736  18.270   4.098  0.00  0.00     0.026 A 
HETATM    9 Cl   UNK N   1      25.930  16.688   2.849  0.00  0.00    -0.083 Cl
HETATM   10  C   UNK N   1      28.166  19.355   4.866  0.00  0.00     0.025 A 
HETATM   11  C   UNK N   1      27.236  20.273   5.352  0.00  0.00     0.035 A 
HETATM   12  C   UNK N   1      25.883  20.104   5.075  0.00  0.00     0.040 A 
HETATM   13 Cl   UNK N   1      27.759  21.642   6.307  0.00  0.00    -0.084 Cl
ENDBRANCH   5   6
BRANCH   2  14
HETATM   14  C   UNK N   1      21.045  20.372   2.699  0.00  0.00     0.201 C 
HETATM   15  O   UNK N   1      20.026  19.860   2.267  0.00  0.00    -0.645 OA
BRANCH  14  16
HETATM   16  O   UNK N   1      21.249  21.695   2.541  0.00  0.00    -0.771 OA
HETATM   17  H   UNK N   1      20.706  22.188   1.959  0.00  0.00     0.167 HD
ENDBRANCH  14  16
ENDBRANCH   2  14
TORSDOF 3
ENDMDL
MODEL 8
REMARK VINA RESULT:      -5.8     17.074     18.519
REMARK  3 active torsions:
REMARK  status: ('A' for Active; 'I' for Inactive)
REMARK    1  A    between atoms: C_2  and  C_3 
REMARK    2  A    between atoms: C_3  and  O_4 
REMARK    3  A    between atoms: C_7  and  C_9 
ROOT
HETATM    1  O   UNK N   1      28.868  24.121  -3.469  0.00  0.00    -0.303 OA
HETATM    2  C   UNK N   1      29.859  23.271  -3.510  0.00  0.00     0.149 A 
HETATM    3  C   UNK N   1      30.143  22.934  -4.818  0.00  0.00     0.047 A 
HETATM    4  C   UNK N   1      29.246  23.658  -5.591  0.00  0.00     0.041 A 
HETATM    5  C   UNK N   1      28.478  24.381  -4.693  0.00  0.00     0.088 A 
ENDROOT
BRANCH   5   6
HETATM    6  C   UNK N   1      27.388  25.343  -4.971  0.00  0.00     0.021 A 
HETATM    7  C   UNK N   1      26.119  24.989  -5.502  0.00  0.00     0.047 A 
HETATM    8  C   UNK N   1      25.170  25.992  -5.741  0.00  0.00     0.026 A 
HETATM    9 Cl   UNK N   1      25.673  23.338  -5.908  0.00  0.00    -0.083 Cl
HETATM   10  C   UNK N   1      25.457  27.329  -5.457  0.00  0.00     0.025 A 
HETATM   11  C   UNK N   1      26.701  27.676  -4.933  0.00  0.00     0.035 A 
HETATM   12  C   UNK N   1      27.654  26.690  -4.698  0.00  0.00     0.040 A 
HETATM   13 Cl   UNK N   1      27.074  29.344  -4.563  0.00  0.00    -0.084 Cl
ENDBRANCH   5   6
BRANCH   2  14
HETATM   14  C   UNK N   1      30.560  22.801  -2.309  0.00  0.00     0.201 C 
HETATM   15  O   UNK N   1      30.126  23.078  -1.204  0.00  0.00    -0.645 OA
BRANCH  14  16
HETATM   16  O   UNK N   1      31.694  22.082  -2.422  0.00  0.00    -0.771 OA
HETATM   17  H   UNK N   1      31.700  21.174  -2.193  0.00  0.00     0.167 HD
ENDBRANCH  14  16
ENDBRANCH   2  14
TORSDOF 3
ENDMDL
MODEL 9
REMARK VINA RESULT:      -5.8      8.229      9.864
REMARK  3 active torsions:
REMARK  status: ('A' for Active; 'I' for Inactive)
REMARK    1  A    between atoms: C_2  and  C_3 
REMARK    2  A    between atoms: C_3  and  O_4 
REMARK    3  A    between atoms: C_7  and  C_9 
ROOT
HETATM    1  O   UNK N   1      24.538  19.687   4.321  0.00  0.00    -0.303 OA
HETATM    2  C   UNK N   1      24.009  20.230   3.257  0.00  0.00     0.149 A 
HETATM    3  C   UNK N   1      25.001  20.703   2.422  0.00  0.00     0.047 A 
HETATM    4  C   UNK N   1      26.197  20.397   3.057  0.00  0.00     0.041 A 
HETATM    5  C   UNK N   1      25.843  19.762   4.236  0.00  0.00     0.088 A 
ENDROOT
BRANCH   5   6
HETATM    6  C   UNK N   1      26.722  19.197   5.283  0.00  0.00     0.021 A 
HETATM    7  C   UNK N   1      27.225  19.928   6.392  0.00  0.00     0.047 A 
HETATM    8  C   UNK N   1      28.067  19.289   7.313  0.00  0.00     0.026 A 
HETATM    9 Cl   UNK N   1      26.867  21.627   6.667  0.00  0.00    -0.083 Cl
HETATM   10  C   UNK N   1      28.408  17.943   7.153  0.00  0.00     0.025 A 
HETATM   11  C   UNK N   1      27.912  17.225   6.067  0.00  0.00     0.035 A 
HETATM   12  C   UNK N   1      27.081  17.850   5.142  0.00  0.00     0.040 A 
HETATM   13 Cl   UNK N   1      28.323  15.538   5.857  0.00  0.00    -0.084 Cl
ENDBRANCH   5   6
BRANCH   2  14
HETATM   14  C   UNK N   1      22.562  20.273   3.015  0.00  0.00     0.201 C 
HETATM   15  O   UNK N   1      21.909  19.243   3.048  0.00  0.00    -0.645 OA
BRANCH  14  16
HETATM   16  O   UNK N   1      21.954  21.441   2.734  0.00  0.00    -0.771 OA
HETATM   17  H   UNK N   1      22.460  22.223   2.638  0.00  0.00     0.167 HD
ENDBRANCH  14  16
ENDBRANCH   2  14
TORSDOF 3
ENDMDL
