MODEL 1
REMARK VINA RESULT:      -6.4      0.000      0.000
REMARK  4 active torsions:
REMARK  status: ('A' for Active; 'I' for Inactive)
REMARK    1  A    between atoms: C_2  and  C_3 
REMARK    2  A    between atoms: C_3  and  O_4 
REMARK    3  A    between atoms: C_7  and  C_9 
REMARK    4  A    between atoms: C_10  and  C_15 
ROOT
HETATM    1  C   UNK N   1      30.460  17.287   7.067  0.00  0.00     0.013 A 
HETATM    2  C   UNK N   1      29.272  17.727   7.729  0.00  0.00     0.060 A 
HETATM    3  C   UNK N   1      28.130  18.007   6.958  0.00  0.00     0.017 A 
HETATM    4  C   UNK N   1      28.139  17.855   5.574  0.00  0.00     0.001 A 
HETATM    5  C   UNK N   1      29.298  17.437   4.928  0.00  0.00     0.001 A 
HETATM    6  C   UNK N   1      30.447  17.163   5.668  0.00  0.00     0.015 A 
ENDROOT
BRANCH   1   7
HETATM    7  C   UNK N   1      31.744  16.977   7.749  0.00  0.00     0.087 A 
HETATM    8  O   UNK N   1      32.679  17.877   7.942  0.00  0.00    -0.303 OA
HETATM    9  C   UNK N   1      33.674  17.326   8.589  0.00  0.00     0.149 A 
HETATM   10  C   UNK N   1      33.407  15.992   8.827  0.00  0.00     0.047 A 
HETATM   11  C   UNK N   1      32.153  15.767   8.287  0.00  0.00     0.041 A 
BRANCH   9  12
HETATM   12  C   UNK N   1      34.871  18.049   9.033  0.00  0.00     0.201 C 
HETATM   13  O   UNK N   1      35.224  19.061   8.449  0.00  0.00    -0.645 OA
BRANCH  12  14
HETATM   14  O   UNK N   1      35.569  17.617  10.101  0.00  0.00    -0.771 OA
HETATM   15  H   UNK N   1      35.540  18.090  10.910  0.00  0.00     0.167 HD
ENDBRANCH  12  14
ENDBRANCH   9  12
ENDBRANCH   1   7
BRANCH   2  16
HETATM   16  C   UNK N   1      29.187  17.959   9.222  0.00  0.00     0.418 C 
HETATM   17  F   UNK N   1      27.906  18.330   9.596  0.00  0.00    -0.166 F 
HETATM   18  F   UNK N   1      29.510  16.804   9.908  0.00  0.00    -0.166 F 
HETATM   19  F   UNK N   1      30.044  18.984   9.585  0.00  0.00    -0.166 F 
ENDBRANCH   2  16
TORSDOF 4
ENDMDL
MODEL 2
REMARK VINA RESULT:      -6.4      8.462     10.990
REMARK  4 active torsions:
REMARK  status: ('A' for Active; 'I' for Inactive)
REMARK    1  A    between atoms: C_2  and  C_3 
REMARK    2  A    between atoms: C_3  and  O_4 
REMARK    3  A    between atoms: C_7  and  C_9 
REMARK    4  A    between atoms: C_10  and  C_15 
ROOT
HETATM    1  C   UNK N   1      35.682  12.675  16.243  0.00  0.00     0.013 A 
HETATM    2  C   UNK N   1      36.088  11.327  16.494  0.00  0.00     0.060 A 
HETATM    3  C   UNK N   1      35.949  10.809  17.793  0.00  0.00     0.017 A 
HETATM    4  C   UNK N   1      35.421  11.579  18.826  0.00  0.00     0.001 A 
HETATM    5  C   UNK N   1      35.035  12.894  18.584  0.00  0.00     0.001 A 
HETATM    6  C   UNK N   1      35.172  13.436  17.307  0.00  0.00     0.015 A 
ENDROOT
BRANCH   1   7
HETATM    7  C   UNK N   1      35.789  13.360  14.928  0.00  0.00     0.087 A 
HETATM    8  O   UNK N   1      34.997  13.084  13.919  0.00  0.00    -0.303 OA
HETATM    9  C   UNK N   1      35.304  13.860  12.911  0.00  0.00     0.149 A 
HETATM   10  C   UNK N   1      36.361  14.683  13.249  0.00  0.00     0.047 A 
HETATM   11  C   UNK N   1      36.671  14.364  14.558  0.00  0.00     0.041 A 
BRANCH   9  12
HETATM   12  C   UNK N   1      34.586  13.874  11.632  0.00  0.00     0.201 C 
HETATM   13  O   UNK N   1      34.793  12.998  10.806  0.00  0.00    -0.645 OA
BRANCH  12  14
HETATM   14  O   UNK N   1      33.679  14.835  11.372  0.00  0.00    -0.771 OA
HETATM   15  H   UNK N   1      33.261  15.295  12.073  0.00  0.00     0.167 HD
ENDBRANCH  12  14
ENDBRANCH   9  12
ENDBRANCH   1   7
BRANCH   2  16
HETATM   16  C   UNK N   1      36.710  10.434  15.442  0.00  0.00     0.418 C 
HETATM   17  F   UNK N   1      35.796  10.128  14.446  0.00  0.00    -0.166 F 
HETATM   18  F   UNK N   1      37.787  11.065  14.849  0.00  0.00    -0.166 F 
HETATM   19  F   UNK N   1      37.115   9.243  16.020  0.00  0.00    -0.166 F 
ENDBRANCH   2  16
TORSDOF 4
ENDMDL
MODEL 3
REMARK VINA RESULT:      -6.2      1.353      1.791
REMARK  4 active torsions:
REMARK  status: ('A' for Active; 'I' for Inactive)
REMARK    1  A    between atoms: C_2  and  C_3 
REMARK    2  A    between atoms: C_3  and  O_4 
REMARK    3  A    between atoms: C_7  and  C_9 
REMARK    4  A    between atoms: C_10  and  C_15 
ROOT
HETATM    1  C   UNK N   1      30.891  17.339   7.225  0.00  0.00     0.013 A 
HETATM    2  C   UNK N   1      29.634  17.713   7.795  0.00  0.00     0.060 A 
HETATM    3  C   UNK N   1      28.515  17.827   6.952  0.00  0.00     0.017 A 
HETATM    4  C   UNK N   1      28.611  17.577   5.586  0.00  0.00     0.001 A 
HETATM    5  C   UNK N   1      29.836  17.224   5.029  0.00  0.00     0.001 A 
HETATM    6  C   UNK N   1      30.964  17.113   5.841  0.00  0.00     0.015 A 
ENDROOT
BRANCH   1   7
HETATM    7  C   UNK N   1      32.159  17.200   7.988  0.00  0.00     0.087 A 
HETATM    8  O   UNK N   1      32.401  16.182   8.780  0.00  0.00    -0.303 OA
HETATM    9  C   UNK N   1      33.599  16.313   9.289  0.00  0.00     0.149 A 
HETATM   10  C   UNK N   1      34.184  17.479   8.835  0.00  0.00     0.047 A 
HETATM   11  C   UNK N   1      33.254  18.051   7.987  0.00  0.00     0.041 A 
BRANCH   9  12
HETATM   12  C   UNK N   1      34.232  15.329  10.174  0.00  0.00     0.201 C 
HETATM   13  O   UNK N   1      35.370  14.946   9.946  0.00  0.00    -0.645 OA
BRANCH  12  14
HETATM   14  O   UNK N   1      33.576  14.865  11.254  0.00  0.00    -0.771 OA
HETATM   15  H   UNK N   1      32.733  15.205  11.480  0.00  0.00     0.167 HD
ENDBRANCH  12  14
ENDBRANCH   9  12
ENDBRANCH   1   7
BRANCH   2  16
HETATM   16  C   UNK N   1      29.449  18.043   9.260  0.00  0.00     0.418 C 
HETATM   17  F   UNK N   1      28.146  18.434   9.521  0.00  0.00    -0.166 F 
HETATM   18  F   UNK N   1      29.724  16.937  10.042  0.00  0.00    -0.166 F 
HETATM   19  F   UNK N   1      30.281  19.093   9.611  0.00  0.00    -0.166 F 
ENDBRANCH   2  16
TORSDOF 4
ENDMDL
MODEL 4
REMARK VINA RESULT:      -6.2     17.458     18.587
REMARK  4 active torsions:
REMARK  status: ('A' for Active; 'I' for Inactive)
REMARK    1  A    between atoms: C_2  and  C_3 
REMARK    2  A    between atoms: C_3  and  O_4 
REMARK    3  A    between atoms: C_7  and  C_9 
REMARK    4  A    between atoms: C_10  and  C_15 
ROOT
HETATM    1  C   UNK N   1      26.880  27.202  -7.215  0.00  0.00     0.013 A 
HETATM    2  C   UNK N   1      26.412  27.743  -5.978  0.00  0.00     0.060 A 
HETATM    3  C   UNK N   1      27.103  28.827  -5.408  0.00  0.00     0.017 A 
HETATM    4  C   UNK N   1      28.221  29.378  -6.029  0.00  0.00     0.001 A 
HETATM    5  C   UNK N   1      28.682  28.844  -7.228  0.00  0.00     0.001 A 
HETATM    6  C   UNK N   1      28.022  27.763  -7.809  0.00  0.00     0.015 A 
ENDROOT
BRANCH   1   7
HETATM    7  C   UNK N   1      26.264  26.047  -7.921  0.00  0.00     0.087 A 
HETATM    8  O   UNK N   1      26.234  24.839  -7.411  0.00  0.00    -0.303 OA
HETATM    9  C   UNK N   1      25.606  24.042  -8.238  0.00  0.00     0.149 A 
HETATM   10  C   UNK N   1      25.211  24.739  -9.362  0.00  0.00     0.047 A 
HETATM   11  C   UNK N   1      25.632  26.040  -9.155  0.00  0.00     0.041 A 
BRANCH   9  12
HETATM   12  C   UNK N   1      25.328  22.627  -7.969  0.00  0.00     0.201 C 
HETATM   13  O   UNK N   1      26.194  21.918  -7.479  0.00  0.00    -0.645 OA
BRANCH  12  14
HETATM   14  O   UNK N   1      24.114  22.110  -8.234  0.00  0.00    -0.771 OA
HETATM   15  H   UNK N   1      23.564  21.807  -7.538  0.00  0.00     0.167 HD
ENDBRANCH  12  14
ENDBRANCH   9  12
ENDBRANCH   1   7
BRANCH   2  16
HETATM   16  C   UNK N   1      25.233  27.180  -5.214  0.00  0.00     0.418 C 
HETATM   17  F   UNK N   1      24.070  27.264  -5.963  0.00  0.00    -0.166 F 
HETATM   18  F   UNK N   1      25.446  25.849  -4.911  0.00  0.00    -0.166 F 
HETATM   19  F   UNK N   1      25.038  27.908  -4.053  0.00  0.00    -0.166 F 
ENDBRANCH   2  16
TORSDOF 4
ENDMDL
MODEL 5
REMARK VINA RESULT:      -6.0     13.656     15.392
REMARK  4 active torsions:
REMARK  status: ('A' for Active; 'I' for Inactive)
REMARK    1  A    between atoms: C_2  and  C_3 
REMARK    2  A    between atoms: C_3  and  O_4 
REMARK    3  A    between atoms: C_7  and  C_9 
REMARK    4  A    between atoms: C_10  and  C_15 
ROOT
HETATM    1  C   UNK N   1      27.196  26.185  -4.584  0.00  0.00     0.013 A 
HETATM    2  C   UNK N   1      26.366  25.686  -5.635  0.00  0.00     0.060 A 
HETATM    3  C   UNK N   1      25.172  26.364  -5.936  0.00  0.00     0.017 A 
HETATM    4  C   UNK N   1      24.795  27.508  -5.236  0.00  0.00     0.001 A 
HETATM    5  C   UNK N   1      25.598  27.988  -4.206  0.00  0.00     0.001 A 
HETATM    6  C   UNK N   1      26.782  27.327  -3.880  0.00  0.00     0.015 A 
ENDROOT
BRANCH   1   7
HETATM    7  C   UNK N   1      28.472  25.561  -4.143  0.00  0.00     0.087 A 
HETATM    8  O   UNK N   1      28.512  24.448  -3.449  0.00  0.00    -0.303 OA
HETATM    9  C   UNK N   1      29.762  24.125  -3.233  0.00  0.00     0.149 A 
HETATM   10  C   UNK N   1      30.600  25.071  -3.790  0.00  0.00     0.047 A 
HETATM   11  C   UNK N   1      29.764  25.998  -4.385  0.00  0.00     0.041 A 
BRANCH   9  12
HETATM   12  C   UNK N   1      30.192  22.905  -2.541  0.00  0.00     0.201 C 
HETATM   13  O   UNK N   1      30.522  22.955  -1.366  0.00  0.00    -0.645 OA
BRANCH  12  14
HETATM   14  O   UNK N   1      30.199  21.724  -3.186  0.00  0.00    -0.771 OA
HETATM   15  H   UNK N   1      30.256  20.921  -2.707  0.00  0.00     0.167 HD
ENDBRANCH  12  14
ENDBRANCH   9  12
ENDBRANCH   1   7
BRANCH   2  16
HETATM   16  C   UNK N   1      26.678  24.428  -6.417  0.00  0.00     0.418 C 
HETATM   17  F   UNK N   1      27.953  24.481  -6.955  0.00  0.00    -0.166 F 
HETATM   18  F   UNK N   1      26.610  23.320  -5.595  0.00  0.00    -0.166 F 
HETATM   19  F   UNK N   1      25.785  24.298  -7.467  0.00  0.00    -0.166 F 
ENDBRANCH   2  16
TORSDOF 4
ENDMDL
MODEL 6
REMARK VINA RESULT:      -6.0      8.858     11.303
REMARK  4 active torsions:
REMARK  status: ('A' for Active; 'I' for Inactive)
REMARK    1  A    between atoms: C_2  and  C_3 
REMARK    2  A    between atoms: C_3  and  O_4 
REMARK    3  A    between atoms: C_7  and  C_9 
REMARK    4  A    between atoms: C_10  and  C_15 
ROOT
HETATM    1  C   UNK N   1      36.046  11.150  16.501  0.00  0.00     0.013 A 
HETATM    2  C   UNK N   1      35.543  12.010  17.527  0.00  0.00     0.060 A 
HETATM    3  C   UNK N   1      35.350  11.485  18.817  0.00  0.00     0.017 A 
HETATM    4  C   UNK N   1      35.644  10.155  19.107  0.00  0.00     0.001 A 
HETATM    5  C   UNK N   1      36.123   9.316  18.107  0.00  0.00     0.001 A 
HETATM    6  C   UNK N   1      36.314   9.808  16.817  0.00  0.00     0.015 A 
ENDROOT
BRANCH   1   7
HETATM    7  C   UNK N   1      36.280  11.559  15.091  0.00  0.00     0.087 A 
HETATM    8  O   UNK N   1      35.302  11.864  14.271  0.00  0.00    -0.303 OA
HETATM    9  C   UNK N   1      35.807  12.214  13.116  0.00  0.00     0.149 A 
HETATM   10  C   UNK N   1      37.185  12.123  13.153  0.00  0.00     0.047 A 
HETATM   11  C   UNK N   1      37.492  11.705  14.435  0.00  0.00     0.041 A 
BRANCH   9  12
HETATM   12  C   UNK N   1      35.013  12.679  11.974  0.00  0.00     0.201 C 
HETATM   13  O   UNK N   1      34.992  12.029  10.940  0.00  0.00    -0.645 OA
BRANCH  12  14
HETATM   14  O   UNK N   1      34.283  13.806  12.068  0.00  0.00    -0.771 OA
HETATM   15  H   UNK N   1      33.415  13.782  12.422  0.00  0.00     0.167 HD
ENDBRANCH  12  14
ENDBRANCH   9  12
ENDBRANCH   1   7
BRANCH   2  16
HETATM   16  C   UNK N   1      35.158  13.454  17.289  0.00  0.00     0.418 C 
HETATM   17  F   UNK N   1      36.165  14.133  16.622  0.00  0.00    -0.166 F 
HETATM   18  F   UNK N   1      34.015  13.527  16.516  0.00  0.00    -0.166 F 
HETATM   19  F   UNK N   1      34.955  14.089  18.502  0.00  0.00    -0.166 F 
ENDBRANCH   2  16
TORSDOF 4
ENDMDL
MODEL 7
REMARK VINA RESULT:      -5.9     13.474     15.191
REMARK  4 active torsions:
REMARK  status: ('A' for Active; 'I' for Inactive)
REMARK    1  A    between atoms: C_2  and  C_3 
REMARK    2  A    between atoms: C_3  and  O_4 
REMARK    3  A    between atoms: C_7  and  C_9 
REMARK    4  A    between atoms: C_10  and  C_15 
ROOT
HETATM    1  C   UNK N   1      27.544  25.830  -5.356  0.00  0.00     0.013 A 
HETATM    2  C   UNK N   1      26.467  26.640  -4.879  0.00  0.00     0.060 A 
HETATM    3  C   UNK N   1      25.445  27.002  -5.773  0.00  0.00     0.017 A 
HETATM    4  C   UNK N   1      25.463  26.581  -7.100  0.00  0.00     0.001 A 
HETATM    5  C   UNK N   1      26.517  25.801  -7.567  0.00  0.00     0.001 A 
HETATM    6  C   UNK N   1      27.549  25.436  -6.703  0.00  0.00     0.015 A 
ENDROOT
BRANCH   1   7
HETATM    7  C   UNK N   1      28.701  25.389  -4.532  0.00  0.00     0.087 A 
HETATM    8  O   UNK N   1      28.724  24.238  -3.901  0.00  0.00    -0.303 OA
HETATM    9  C   UNK N   1      29.873  24.110  -3.289  0.00  0.00     0.149 A 
HETATM   10  C   UNK N   1      30.652  25.230  -3.500  0.00  0.00     0.047 A 
HETATM   11  C   UNK N   1      29.896  26.057  -4.311  0.00  0.00     0.041 A 
BRANCH   9  12
HETATM   12  C   UNK N   1      30.276  22.920  -2.532  0.00  0.00     0.201 C 
HETATM   13  O   UNK N   1      30.458  22.996  -1.327  0.00  0.00    -0.645 OA
BRANCH  12  14
HETATM   14  O   UNK N   1      30.422  21.735  -3.155  0.00  0.00    -0.771 OA
HETATM   15  H   UNK N   1      31.200  21.548  -3.642  0.00  0.00     0.167 HD
ENDBRANCH  12  14
ENDBRANCH   9  12
ENDBRANCH   1   7
BRANCH   2  16
HETATM   16  C   UNK N   1      26.390  27.176  -3.466  0.00  0.00     0.418 C 
HETATM   17  F   UNK N   1      27.479  27.983  -3.180  0.00  0.00    -0.166 F 
HETATM   18  F   UNK N   1      25.246  27.933  -3.299  0.00  0.00    -0.166 F 
HETATM   19  F   UNK N   1      26.399  26.124  -2.566  0.00  0.00    -0.166 F 
ENDBRANCH   2  16
TORSDOF 4
ENDMDL
MODEL 8
REMARK VINA RESULT:      -5.8     15.718     17.406
REMARK  4 active torsions:
REMARK  status: ('A' for Active; 'I' for Inactive)
REMARK    1  A    between atoms: C_2  and  C_3 
REMARK    2  A    between atoms: C_3  and  O_4 
REMARK    3  A    between atoms: C_7  and  C_9 
REMARK    4  A    between atoms: C_10  and  C_15 
ROOT
HETATM    1  C   UNK N   1      25.981  26.025  -5.678  0.00  0.00     0.013 A 
HETATM    2  C   UNK N   1      27.039  25.978  -4.717  0.00  0.00     0.060 A 
HETATM    3  C   UNK N   1      27.083  26.957  -3.709  0.00  0.00     0.017 A 
HETATM    4  C   UNK N   1      26.116  27.957  -3.631  0.00  0.00     0.001 A 
HETATM    5  C   UNK N   1      25.093  28.008  -4.572  0.00  0.00     0.001 A 
HETATM    6  C   UNK N   1      25.032  27.055  -5.587  0.00  0.00     0.015 A 
ENDROOT
BRANCH   1   7
HETATM    7  C   UNK N   1      25.820  25.071  -6.807  0.00  0.00     0.087 A 
HETATM    8  O   UNK N   1      25.378  23.847  -6.643  0.00  0.00    -0.303 OA
HETATM    9  C   UNK N   1      25.313  23.257  -7.809  0.00  0.00     0.149 A 
HETATM   10  C   UNK N   1      25.748  24.114  -8.801  0.00  0.00     0.047 A 
HETATM   11  C   UNK N   1      26.071  25.292  -8.153  0.00  0.00     0.041 A 
BRANCH   9  12
HETATM   12  C   UNK N   1      24.803  21.897  -8.018  0.00  0.00     0.201 C 
HETATM   13  O   UNK N   1      24.161  21.344  -7.139  0.00  0.00    -0.645 OA
BRANCH  12  14
HETATM   14  O   UNK N   1      25.017  21.264  -9.187  0.00  0.00    -0.771 OA
HETATM   15  H   UNK N   1      25.525  21.669  -9.861  0.00  0.00     0.167 HD
ENDBRANCH  12  14
ENDBRANCH   9  12
ENDBRANCH   1   7
BRANCH   2  16
HETATM   16  C   UNK N   1      28.153  24.954  -4.753  0.00  0.00     0.418 C 
HETATM   17  F   UNK N   1      27.661  23.677  -4.537  0.00  0.00    -0.166 F 
HETATM   18  F   UNK N   1      28.778  24.964  -5.986  0.00  0.00    -0.166 F 
HETATM   19  F   UNK N   1      29.070  25.226  -3.752  0.00  0.00    -0.166 F 
ENDBRANCH   2  16
TORSDOF 4
ENDMDL
MODEL 9
REMARK VINA RESULT:      -5.6     13.267     14.990
REMARK  4 active torsions:
REMARK  status: ('A' for Active; 'I' for Inactive)
REMARK    1  A    between atoms: C_2  and  C_3 
REMARK    2  A    between atoms: C_3  and  O_4 
REMARK    3  A    between atoms: C_7  and  C_9 
REMARK    4  A    between atoms: C_10  and  C_15 
ROOT
HETATM    1  C   UNK N   1      28.330  25.223  -5.662  0.00  0.00     0.013 A 
HETATM    2  C   UNK N   1      26.902  25.290  -5.650  0.00  0.00     0.060 A 
HETATM    3  C   UNK N   1      26.274  26.437  -6.164  0.00  0.00     0.017 A 
HETATM    4  C   UNK N   1      27.015  27.494  -6.686  0.00  0.00     0.001 A 
HETATM    5  C   UNK N   1      28.405  27.433  -6.689  0.00  0.00     0.001 A 
HETATM    6  C   UNK N   1      29.053  26.311  -6.176  0.00  0.00     0.015 A 
ENDROOT
BRANCH   1   7
HETATM    7  C   UNK N   1      29.129  24.085  -5.135  0.00  0.00     0.087 A 
HETATM    8  O   UNK N   1      29.604  24.060  -3.912  0.00  0.00    -0.303 OA
HETATM    9  C   UNK N   1      30.235  22.929  -3.722  0.00  0.00     0.149 A 
HETATM   10  C   UNK N   1      30.199  22.166  -4.872  0.00  0.00     0.047 A 
HETATM   11  C   UNK N   1      29.478  22.912  -5.786  0.00  0.00     0.041 A 
BRANCH   9  12
HETATM   12  C   UNK N   1      30.843  22.527  -2.449  0.00  0.00     0.201 C 
HETATM   13  O   UNK N   1      30.395  22.956  -1.397  0.00  0.00    -0.645 OA
BRANCH  12  14
HETATM   14  O   UNK N   1      31.876  21.664  -2.432  0.00  0.00    -0.771 OA
HETATM   15  H   UNK N   1      31.801  20.825  -2.840  0.00  0.00     0.167 HD
ENDBRANCH  12  14
ENDBRANCH   9  12
ENDBRANCH   1   7
BRANCH   2  16
HETATM   16  C   UNK N   1      26.022  24.207  -5.064  0.00  0.00     0.418 C 
HETATM   17  F   UNK N   1      24.688  24.578  -5.099  0.00  0.00    -0.166 F 
HETATM   18  F   UNK N   1      26.155  23.035  -5.783  0.00  0.00    -0.166 F 
HETATM   19  F   UNK N   1      26.363  23.994  -3.739  0.00  0.00    -0.166 F 
ENDBRANCH   2  16
TORSDOF 4
ENDMDL
