MODEL 1
REMARK VINA RESULT:      -6.3      0.000      0.000
REMARK  9 active torsions:
REMARK  status: ('A' for Active; 'I' for Inactive)
REMARK    1  A    between atoms: C_2  and  O_1 
REMARK    2  A    between atoms: C_4  and  C_2 
REMARK    3  A    between atoms: C_8  and  C_10 
REMARK    4  A    between atoms: N_11  and  O_13 
REMARK    5  A    between atoms: C_14  and  O_13 
REMARK    6  A    between atoms: C_14  and  C_15 
REMARK    7  A    between atoms: C_15  and  O_16 
REMARK    8  A    between atoms: O_16  and  N_17 
REMARK    9  A    between atoms: C_19  and  C_20 
ROOT
HETATM    1  C   UNK N   1      29.807  28.734  -5.339  0.00  0.00     0.230 C 
ENDROOT
BRANCH   1   2
HETATM    2  O   UNK N   1      29.084  27.608  -5.689  0.00  0.00    -0.279 OA
BRANCH   2   3
HETATM    3  N   UNK N   1      29.397  26.386  -5.282  0.00  0.00    -0.277 N 
HETATM    4  C   UNK N   1      29.237  25.354  -6.034  0.00  0.00     0.125 C 
ATOM      5  HN  UNK N   1      29.777  26.260  -4.343  1.00  0.00     0.193 HD
BRANCH   4   6
HETATM    6  C   UNK N   1      29.583  24.007  -5.581  0.00  0.00    -0.018 A 
HETATM    7  C   UNK N   1      30.115  23.848  -4.300  0.00  0.00     0.031 A 
HETATM    8  C   UNK N   1      30.442  22.575  -3.819  0.00  0.00     0.038 A 
HETATM    9  C   UNK N   1      30.237  21.456  -4.639  0.00  0.00     0.018 A 
HETATM   10  C   UNK N   1      29.709  21.611  -5.924  0.00  0.00     0.002 A 
HETATM   11  C   UNK N   1      29.377  22.884  -6.395  0.00  0.00     0.013 A 
BRANCH   8  12
HETATM   12  C   UNK N   1      30.985  22.413  -2.457  0.00  0.00     0.176 C 
HETATM   13  O   UNK N   1      30.482  23.012  -1.518  0.00  0.00    -0.646 OA
BRANCH  12  14
HETATM   14  O   UNK N   1      32.032  21.596  -2.237  0.00  0.00    -0.773 OA
HETATM   15  H   UNK N   1      32.560  21.701  -1.470  0.00  0.00     0.167 HD
ENDBRANCH  12  14
ENDBRANCH   8  12
ENDBRANCH   4   6
ENDBRANCH   2   3
ENDBRANCH   1   2
BRANCH   1  16
HETATM   16  C   UNK N   1      29.413  29.214  -3.950  0.00  0.00     0.230 C 
BRANCH  16  17
HETATM   17  O   UNK N   1      28.217  28.668  -3.538  0.00  0.00    -0.279 OA
BRANCH  17  18
HETATM   18  N   UNK N   1      27.013  29.041  -3.957  0.00  0.00    -0.276 N 
HETATM   19  C   UNK N   1      26.018  28.261  -4.262  0.00  0.00     0.143 C 
ATOM     20  HN  UNK N   1      26.851  30.044  -4.049  1.00  0.00     0.193 HD
BRANCH  19  21
HETATM   21  C   UNK N   1      26.001  26.784  -4.385  0.00  0.00     0.059 A 
HETATM   22  C   UNK N   1      25.592  26.220  -5.596  0.00  0.00     0.105 A 
HETATM   23  C   UNK N   1      25.625  24.834  -5.744  0.00  0.00     0.251 A 
HETATM   24  O   UNK N   1      25.253  24.323  -6.785  0.00  0.00    -0.268 OA
HETATM   25  N   UNK N   1      26.081  24.047  -4.721  0.00  0.00    -0.275 N 
HETATM   26  C   UNK N   1      26.504  24.615  -3.551  0.00  0.00     0.327 A 
HETATM   27  H   UNK N   1      26.104  23.068  -4.828  0.00  0.00     0.173 HD
HETATM   28  N   UNK N   1      26.461  25.974  -3.399  0.00  0.00    -0.307 N 
HETATM   29  O   UNK N   1      26.922  23.915  -2.649  0.00  0.00    -0.247 OA
HETATM   30  H   UNK N   1      26.772  26.373  -2.555  0.00  0.00     0.170 HD
ENDBRANCH  19  21
ENDBRANCH  17  18
ENDBRANCH  16  17
ENDBRANCH   1  16
TORSDOF 9
ENDMDL
MODEL 2
REMARK VINA RESULT:      -6.2     11.615     14.667
REMARK  9 active torsions:
REMARK  status: ('A' for Active; 'I' for Inactive)
REMARK    1  A    between atoms: C_2  and  O_1 
REMARK    2  A    between atoms: C_4  and  C_2 
REMARK    3  A    between atoms: C_8  and  C_10 
REMARK    4  A    between atoms: N_11  and  O_13 
REMARK    5  A    between atoms: C_14  and  O_13 
REMARK    6  A    between atoms: C_14  and  C_15 
REMARK    7  A    between atoms: C_15  and  O_16 
REMARK    8  A    between atoms: O_16  and  N_17 
REMARK    9  A    between atoms: C_19  and  C_20 
ROOT
HETATM    1  C   UNK N   1      30.555  14.856   2.975  0.00  0.00     0.230 C 
ENDROOT
BRANCH   1   2
HETATM    2  O   UNK N   1      30.195  16.133   2.588  0.00  0.00    -0.279 OA
BRANCH   2   3
HETATM    3  N   UNK N   1      29.859  17.087   3.444  0.00  0.00    -0.277 N 
HETATM    4  C   UNK N   1      28.738  17.073   4.077  0.00  0.00     0.125 C 
ATOM      5  HN  UNK N   1      30.508  17.857   3.606  1.00  0.00     0.193 HD
BRANCH   4   6
HETATM    6  C   UNK N   1      28.371  18.129   5.020  0.00  0.00    -0.018 A 
HETATM    7  C   UNK N   1      28.515  17.886   6.387  0.00  0.00     0.031 A 
HETATM    8  C   UNK N   1      28.193  18.876   7.324  0.00  0.00     0.038 A 
HETATM    9  C   UNK N   1      27.715  20.116   6.877  0.00  0.00     0.018 A 
HETATM   10  C   UNK N   1      27.565  20.362   5.509  0.00  0.00     0.002 A 
HETATM   11  C   UNK N   1      27.896  19.373   4.580  0.00  0.00     0.013 A 
BRANCH   8  12
HETATM   12  C   UNK N   1      28.368  18.618   8.766  0.00  0.00     0.176 C 
HETATM   13  O   UNK N   1      29.384  18.983   9.338  0.00  0.00    -0.646 OA
BRANCH  12  14
HETATM   14  O   UNK N   1      27.404  17.987   9.463  0.00  0.00    -0.773 OA
HETATM   15  H   UNK N   1      27.625  17.481  10.220  0.00  0.00     0.167 HD
ENDBRANCH  12  14
ENDBRANCH   8  12
ENDBRANCH   4   6
ENDBRANCH   2   3
ENDBRANCH   1   2
BRANCH   1  16
HETATM   16  C   UNK N   1      32.047  14.784   3.263  0.00  0.00     0.230 C 
BRANCH  16  17
HETATM   17  O   UNK N   1      32.416  15.637   4.279  0.00  0.00    -0.279 OA
BRANCH  17  18
HETATM   18  N   UNK N   1      32.965  16.836   4.120  0.00  0.00    -0.276 N 
HETATM   19  C   UNK N   1      33.419  17.616   5.057  0.00  0.00     0.143 C 
ATOM     20  HN  UNK N   1      33.039  17.182   3.163  1.00  0.00     0.193 HD
BRANCH  19  21
HETATM   21  C   UNK N   1      33.301  17.465   6.527  0.00  0.00     0.059 A 
HETATM   22  C   UNK N   1      32.125  16.925   7.050  0.00  0.00     0.105 A 
HETATM   23  C   UNK N   1      32.024  16.726   8.428  0.00  0.00     0.251 A 
HETATM   24  O   UNK N   1      30.998  16.276   8.904  0.00  0.00    -0.268 OA
HETATM   25  N   UNK N   1      33.079  17.033   9.242  0.00  0.00    -0.275 N 
HETATM   26  C   UNK N   1      34.236  17.536   8.712  0.00  0.00     0.327 A 
HETATM   27  H   UNK N   1      33.007  16.891  10.214  0.00  0.00     0.173 HD
HETATM   28  N   UNK N   1      34.332  17.743   7.363  0.00  0.00    -0.307 N 
HETATM   29  O   UNK N   1      35.178  17.795   9.437  0.00  0.00    -0.247 OA
HETATM   30  H   UNK N   1      35.171  18.102   6.991  0.00  0.00     0.170 HD
ENDBRANCH  19  21
ENDBRANCH  17  18
ENDBRANCH  16  17
ENDBRANCH   1  16
TORSDOF 9
ENDMDL
MODEL 3
REMARK VINA RESULT:      -6.1     15.016     16.987
REMARK  9 active torsions:
REMARK  status: ('A' for Active; 'I' for Inactive)
REMARK    1  A    between atoms: C_2  and  O_1 
REMARK    2  A    between atoms: C_4  and  C_2 
REMARK    3  A    between atoms: C_8  and  C_10 
REMARK    4  A    between atoms: N_11  and  O_13 
REMARK    5  A    between atoms: C_14  and  O_13 
REMARK    6  A    between atoms: C_14  and  C_15 
REMARK    7  A    between atoms: C_15  and  O_16 
REMARK    8  A    between atoms: O_16  and  N_17 
REMARK    9  A    between atoms: C_19  and  C_20 
ROOT
HETATM    1  C   UNK N   1      19.347  16.479   7.638  0.00  0.00     0.230 C 
ENDROOT
BRANCH   1   2
HETATM    2  O   UNK N   1      19.581  15.172   8.026  0.00  0.00    -0.279 OA
BRANCH   2   3
HETATM    3  N   UNK N   1      20.668  14.791   8.682  0.00  0.00    -0.277 N 
HETATM    4  C   UNK N   1      21.114  13.586   8.621  0.00  0.00     0.125 C 
ATOM      5  HN  UNK N   1      21.165  15.474   9.254  1.00  0.00     0.193 HD
BRANCH   4   6
HETATM    6  C   UNK N   1      22.313  13.169   9.348  0.00  0.00    -0.018 A 
HETATM    7  C   UNK N   1      22.181  12.755  10.675  0.00  0.00     0.031 A 
HETATM    8  C   UNK N   1      23.300  12.330  11.402  0.00  0.00     0.038 A 
HETATM    9  C   UNK N   1      24.560  12.330  10.788  0.00  0.00     0.018 A 
HETATM   10  C   UNK N   1      24.698  12.749   9.461  0.00  0.00     0.002 A 
HETATM   11  C   UNK N   1      23.576  13.164   8.739  0.00  0.00     0.013 A 
BRANCH   8  12
HETATM   12  C   UNK N   1      23.149  11.874  12.797  0.00  0.00     0.176 C 
HETATM   13  O   UNK N   1      23.933  12.247  13.655  0.00  0.00    -0.646 OA
BRANCH  12  14
HETATM   14  O   UNK N   1      22.139  11.049  13.134  0.00  0.00    -0.773 OA
HETATM   15  H   UNK N   1      21.864  10.375  12.544  0.00  0.00     0.167 HD
ENDBRANCH  12  14
ENDBRANCH   8  12
ENDBRANCH   4   6
ENDBRANCH   2   3
ENDBRANCH   1   2
BRANCH   1  16
HETATM   16  C   UNK N   1      20.598  17.324   7.820  0.00  0.00     0.230 C 
BRANCH  16  17
HETATM   17  O   UNK N   1      21.035  17.859   6.628  0.00  0.00    -0.279 OA
BRANCH  17  18
HETATM   18  N   UNK N   1      22.250  17.704   6.111  0.00  0.00    -0.276 N 
HETATM   19  C   UNK N   1      22.621  17.988   4.898  0.00  0.00     0.143 C 
ATOM     20  HN  UNK N   1      22.966  17.324   6.731  1.00  0.00     0.193 HD
BRANCH  19  21
HETATM   21  C   UNK N   1      21.785  18.389   3.742  0.00  0.00     0.059 A 
HETATM   22  C   UNK N   1      21.828  19.719   3.317  0.00  0.00     0.105 A 
HETATM   23  C   UNK N   1      21.089  20.097   2.196  0.00  0.00     0.251 A 
HETATM   24  O   UNK N   1      21.098  21.256   1.824  0.00  0.00    -0.268 OA
HETATM   25  N   UNK N   1      20.359  19.165   1.511  0.00  0.00    -0.275 N 
HETATM   26  C   UNK N   1      20.347  17.860   1.923  0.00  0.00     0.327 A 
HETATM   27  H   UNK N   1      19.839  19.433   0.720  0.00  0.00     0.173 HD
HETATM   28  N   UNK N   1      21.062  17.489   3.029  0.00  0.00    -0.307 N 
HETATM   29  O   UNK N   1      19.709  17.030   1.305  0.00  0.00    -0.247 OA
HETATM   30  H   UNK N   1      21.051  16.547   3.315  0.00  0.00     0.170 HD
ENDBRANCH  19  21
ENDBRANCH  17  18
ENDBRANCH  16  17
ENDBRANCH   1  16
TORSDOF 9
ENDMDL
MODEL 4
REMARK VINA RESULT:      -5.9     14.582     16.506
REMARK  9 active torsions:
REMARK  status: ('A' for Active; 'I' for Inactive)
REMARK    1  A    between atoms: C_2  and  O_1 
REMARK    2  A    between atoms: C_4  and  C_2 
REMARK    3  A    between atoms: C_8  and  C_10 
REMARK    4  A    between atoms: N_11  and  O_13 
REMARK    5  A    between atoms: C_14  and  O_13 
REMARK    6  A    between atoms: C_14  and  C_15 
REMARK    7  A    between atoms: C_15  and  O_16 
REMARK    8  A    between atoms: O_16  and  N_17 
REMARK    9  A    between atoms: C_19  and  C_20 
ROOT
HETATM    1  C   UNK N   1      20.143  17.456   7.868  0.00  0.00     0.230 C 
ENDROOT
BRANCH   1   2
HETATM    2  O   UNK N   1      19.642  16.190   7.630  0.00  0.00    -0.279 OA
BRANCH   2   3
HETATM    3  N   UNK N   1      20.348  15.082   7.805  0.00  0.00    -0.277 N 
HETATM    4  C   UNK N   1      20.975  14.837   8.902  0.00  0.00     0.125 C 
ATOM      5  HN  UNK N   1      20.397  14.402   7.046  1.00  0.00     0.193 HD
BRANCH   4   6
HETATM    6  C   UNK N   1      21.755  13.614   9.089  0.00  0.00    -0.018 A 
HETATM    7  C   UNK N   1      22.234  13.315  10.366  0.00  0.00     0.031 A 
HETATM    8  C   UNK N   1      22.968  12.144  10.594  0.00  0.00     0.038 A 
HETATM    9  C   UNK N   1      23.227  11.276   9.525  0.00  0.00     0.018 A 
HETATM   10  C   UNK N   1      22.754  11.575   8.243  0.00  0.00     0.002 A 
HETATM   11  C   UNK N   1      22.014  12.740   8.025  0.00  0.00     0.013 A 
BRANCH   8  12
HETATM   12  C   UNK N   1      23.452  11.824  11.950  0.00  0.00     0.176 C 
HETATM   13  O   UNK N   1      24.633  11.958  12.230  0.00  0.00    -0.646 OA
BRANCH  12  14
HETATM   14  O   UNK N   1      22.592  11.391  12.892  0.00  0.00    -0.773 OA
HETATM   15  H   UNK N   1      22.881  10.793  13.554  0.00  0.00     0.167 HD
ENDBRANCH  12  14
ENDBRANCH   8  12
ENDBRANCH   4   6
ENDBRANCH   2   3
ENDBRANCH   1   2
BRANCH   1  16
HETATM   16  C   UNK N   1      20.932  17.955   6.667  0.00  0.00     0.230 C 
BRANCH  16  17
HETATM   17  O   UNK N   1      21.071  16.980   5.703  0.00  0.00    -0.279 OA
BRANCH  17  18
HETATM   18  N   UNK N   1      20.223  16.753   4.706  0.00  0.00    -0.276 N 
HETATM   19  C   UNK N   1      20.199  17.354   3.553  0.00  0.00     0.143 C 
ATOM     20  HN  UNK N   1      19.517  16.033   4.861  1.00  0.00     0.193 HD
BRANCH  19  21
HETATM   21  C   UNK N   1      20.975  18.534   3.105  0.00  0.00     0.059 A 
HETATM   22  C   UNK N   1      20.374  19.430   2.218  0.00  0.00     0.105 A 
HETATM   23  C   UNK N   1      21.072  20.575   1.833  0.00  0.00     0.251 A 
HETATM   24  O   UNK N   1      20.573  21.357   1.045  0.00  0.00    -0.268 OA
HETATM   25  N   UNK N   1      22.317  20.821   2.345  0.00  0.00    -0.275 N 
HETATM   26  C   UNK N   1      22.883  19.948   3.233  0.00  0.00     0.327 A 
HETATM   27  H   UNK N   1      22.808  21.630   2.072  0.00  0.00     0.173 HD
HETATM   28  N   UNK N   1      22.204  18.819   3.603  0.00  0.00    -0.307 N 
HETATM   29  O   UNK N   1      23.983  20.176   3.698  0.00  0.00    -0.247 OA
HETATM   30  H   UNK N   1      22.617  18.199   4.247  0.00  0.00     0.170 HD
ENDBRANCH  19  21
ENDBRANCH  17  18
ENDBRANCH  16  17
ENDBRANCH   1  16
TORSDOF 9
ENDMDL
MODEL 5
REMARK VINA RESULT:      -5.8      2.427      6.672
REMARK  9 active torsions:
REMARK  status: ('A' for Active; 'I' for Inactive)
REMARK    1  A    between atoms: C_2  and  O_1 
REMARK    2  A    between atoms: C_4  and  C_2 
REMARK    3  A    between atoms: C_8  and  C_10 
REMARK    4  A    between atoms: N_11  and  O_13 
REMARK    5  A    between atoms: C_14  and  O_13 
REMARK    6  A    between atoms: C_14  and  C_15 
REMARK    7  A    between atoms: C_15  and  O_16 
REMARK    8  A    between atoms: O_16  and  N_17 
REMARK    9  A    between atoms: C_19  and  C_20 
ROOT
HETATM    1  C   UNK N   1      25.838  22.889  -8.287  0.00  0.00     0.230 C 
ENDROOT
BRANCH   1   2
HETATM    2  O   UNK N   1      25.091  24.015  -7.995  0.00  0.00    -0.279 OA
BRANCH   2   3
HETATM    3  N   UNK N   1      25.559  25.038  -7.295  0.00  0.00    -0.277 N 
HETATM    4  C   UNK N   1      26.178  26.020  -7.850  0.00  0.00     0.125 C 
ATOM      5  HN  UNK N   1      25.424  25.048  -6.283  1.00  0.00     0.193 HD
BRANCH   4   6
HETATM    6  C   UNK N   1      26.694  27.147  -7.073  0.00  0.00    -0.018 A 
HETATM    7  C   UNK N   1      26.121  27.420  -5.830  0.00  0.00     0.031 A 
HETATM    8  C   UNK N   1      26.597  28.477  -5.044  0.00  0.00     0.038 A 
HETATM    9  C   UNK N   1      27.653  29.267  -5.521  0.00  0.00     0.018 A 
HETATM   10  C   UNK N   1      28.226  28.999  -6.768  0.00  0.00     0.002 A 
HETATM   11  C   UNK N   1      27.752  27.938  -7.543  0.00  0.00     0.013 A 
BRANCH   8  12
HETATM   12  C   UNK N   1      26.001  28.747  -3.723  0.00  0.00     0.176 C 
HETATM   13  O   UNK N   1      25.449  27.852  -3.101  0.00  0.00    -0.646 OA
BRANCH  12  14
HETATM   14  O   UNK N   1      26.069  29.981  -3.187  0.00  0.00    -0.773 OA
HETATM   15  H   UNK N   1      26.902  30.373  -3.012  0.00  0.00     0.167 HD
ENDBRANCH  12  14
ENDBRANCH   8  12
ENDBRANCH   4   6
ENDBRANCH   2   3
ENDBRANCH   1   2
BRANCH   1  16
HETATM   16  C   UNK N   1      26.424  22.291  -7.017  0.00  0.00     0.230 C 
BRANCH  16  17
HETATM   17  O   UNK N   1      27.752  22.619  -6.860  0.00  0.00    -0.279 OA
BRANCH  17  18
HETATM   18  N   UNK N   1      28.765  21.760  -6.854  0.00  0.00    -0.276 N 
HETATM   19  C   UNK N   1      29.763  21.737  -6.021  0.00  0.00     0.143 C 
ATOM     20  HN  UNK N   1      28.760  21.042  -7.581  1.00  0.00     0.193 HD
BRANCH  19  21
HETATM   21  C   UNK N   1      30.127  22.729  -4.982  0.00  0.00     0.059 A 
HETATM   22  C   UNK N   1      30.082  22.340  -3.642  0.00  0.00     0.105 A 
HETATM   23  C   UNK N   1      30.476  23.247  -2.658  0.00  0.00     0.251 A 
HETATM   24  O   UNK N   1      30.424  22.933  -1.483  0.00  0.00    -0.268 OA
HETATM   25  N   UNK N   1      30.926  24.490  -3.014  0.00  0.00    -0.275 N 
HETATM   26  C   UNK N   1      30.990  24.848  -4.333  0.00  0.00     0.327 A 
HETATM   27  H   UNK N   1      31.205  25.128  -2.318  0.00  0.00     0.173 HD
HETATM   28  N   UNK N   1      30.594  23.963  -5.298  0.00  0.00    -0.307 N 
HETATM   29  O   UNK N   1      31.405  25.947  -4.648  0.00  0.00    -0.247 OA
HETATM   30  H   UNK N   1      30.648  24.229  -6.245  0.00  0.00     0.170 HD
ENDBRANCH  19  21
ENDBRANCH  17  18
ENDBRANCH  16  17
ENDBRANCH   1  16
TORSDOF 9
ENDMDL
MODEL 6
REMARK VINA RESULT:      -5.8      2.153      4.927
REMARK  9 active torsions:
REMARK  status: ('A' for Active; 'I' for Inactive)
REMARK    1  A    between atoms: C_2  and  O_1 
REMARK    2  A    between atoms: C_4  and  C_2 
REMARK    3  A    between atoms: C_8  and  C_10 
REMARK    4  A    between atoms: N_11  and  O_13 
REMARK    5  A    between atoms: C_14  and  O_13 
REMARK    6  A    between atoms: C_14  and  C_15 
REMARK    7  A    between atoms: C_15  and  O_16 
REMARK    8  A    between atoms: O_16  and  N_17 
REMARK    9  A    between atoms: C_19  and  C_20 
ROOT
HETATM    1  C   UNK N   1      32.403  25.830  -5.865  0.00  0.00     0.230 C 
ENDROOT
BRANCH   1   2
HETATM    2  O   UNK N   1      31.439  26.475  -6.617  0.00  0.00    -0.279 OA
BRANCH   2   3
HETATM    3  N   UNK N   1      30.194  26.661  -6.202  0.00  0.00    -0.277 N 
HETATM    4  C   UNK N   1      29.203  26.724  -7.020  0.00  0.00     0.125 C 
ATOM      5  HN  UNK N   1      30.016  26.758  -5.201  1.00  0.00     0.193 HD
BRANCH   4   6
HETATM    6  C   UNK N   1      27.831  26.931  -6.557  0.00  0.00    -0.018 A 
HETATM    7  C   UNK N   1      27.627  27.412  -5.262  0.00  0.00     0.031 A 
HETATM    8  C   UNK N   1      26.331  27.642  -4.785  0.00  0.00     0.038 A 
HETATM    9  C   UNK N   1      25.235  27.378  -5.618  0.00  0.00     0.018 A 
HETATM   10  C   UNK N   1      25.434  26.891  -6.913  0.00  0.00     0.002 A 
HETATM   11  C   UNK N   1      26.730  26.671  -7.386  0.00  0.00     0.013 A 
BRANCH   8  12
HETATM   12  C   UNK N   1      26.125  28.171  -3.423  0.00  0.00     0.176 C 
HETATM   13  O   UNK N   1      26.159  29.374  -3.218  0.00  0.00    -0.646 OA
BRANCH  12  14
HETATM   14  O   UNK N   1      25.887  27.330  -2.399  0.00  0.00    -0.773 OA
HETATM   15  H   UNK N   1      26.055  26.412  -2.494  0.00  0.00     0.167 HD
ENDBRANCH  12  14
ENDBRANCH   8  12
ENDBRANCH   4   6
ENDBRANCH   2   3
ENDBRANCH   1   2
BRANCH   1  16
HETATM   16  C   UNK N   1      31.932  25.653  -4.429  0.00  0.00     0.230 C 
BRANCH  16  17
HETATM   17  O   UNK N   1      31.215  24.489  -4.264  0.00  0.00    -0.279 OA
BRANCH  17  18
HETATM   18  N   UNK N   1      31.074  23.532  -5.175  0.00  0.00    -0.276 N 
HETATM   19  C   UNK N   1      29.959  23.117  -5.701  0.00  0.00     0.143 C 
ATOM     20  HN  UNK N   1      31.928  23.076  -5.496  1.00  0.00     0.193 HD
BRANCH  19  21
HETATM   21  C   UNK N   1      28.569  23.463  -5.323  0.00  0.00     0.059 A 
HETATM   22  C   UNK N   1      27.547  23.219  -6.243  0.00  0.00     0.105 A 
HETATM   23  C   UNK N   1      26.227  23.488  -5.878  0.00  0.00     0.251 A 
HETATM   24  O   UNK N   1      25.325  23.301  -6.673  0.00  0.00    -0.268 OA
HETATM   25  N   UNK N   1      25.946  23.957  -4.623  0.00  0.00    -0.275 N 
HETATM   26  C   UNK N   1      26.956  24.166  -3.724  0.00  0.00     0.327 A 
HETATM   27  H   UNK N   1      25.015  24.146  -4.367  0.00  0.00     0.173 HD
HETATM   28  N   UNK N   1      28.251  23.914  -4.084  0.00  0.00    -0.307 N 
HETATM   29  O   UNK N   1      26.702  24.570  -2.604  0.00  0.00    -0.247 OA
HETATM   30  H   UNK N   1      28.970  24.063  -3.427  0.00  0.00     0.170 HD
ENDBRANCH  19  21
ENDBRANCH  17  18
ENDBRANCH  16  17
ENDBRANCH   1  16
TORSDOF 9
ENDMDL
MODEL 7
REMARK VINA RESULT:      -5.8     19.122     22.281
REMARK  9 active torsions:
REMARK  status: ('A' for Active; 'I' for Inactive)
REMARK    1  A    between atoms: C_2  and  O_1 
REMARK    2  A    between atoms: C_4  and  C_2 
REMARK    3  A    between atoms: C_8  and  C_10 
REMARK    4  A    between atoms: N_11  and  O_13 
REMARK    5  A    between atoms: C_14  and  O_13 
REMARK    6  A    between atoms: C_14  and  C_15 
REMARK    7  A    between atoms: C_15  and  O_16 
REMARK    8  A    between atoms: O_16  and  N_17 
REMARK    9  A    between atoms: C_19  and  C_20 
ROOT
HETATM    1  C   UNK N   1      36.358  13.023  11.672  0.00  0.00     0.230 C 
ENDROOT
BRANCH   1   2
HETATM    2  O   UNK N   1      37.079  12.589  12.769  0.00  0.00    -0.279 OA
BRANCH   2   3
HETATM    3  N   UNK N   1      36.776  12.919  14.017  0.00  0.00    -0.277 N 
HETATM    4  C   UNK N   1      36.157  12.113  14.806  0.00  0.00     0.125 C 
ATOM      5  HN  UNK N   1      37.043  13.842  14.362  1.00  0.00     0.193 HD
BRANCH   4   6
HETATM    6  C   UNK N   1      35.824  12.484  16.181  0.00  0.00    -0.018 A 
HETATM    7  C   UNK N   1      35.660  11.469  17.126  0.00  0.00     0.031 A 
HETATM    8  C   UNK N   1      35.359  11.780  18.458  0.00  0.00     0.038 A 
HETATM    9  C   UNK N   1      35.216  13.122  18.836  0.00  0.00     0.018 A 
HETATM   10  C   UNK N   1      35.374  14.141  17.891  0.00  0.00     0.002 A 
HETATM   11  C   UNK N   1      35.683  13.824  16.566  0.00  0.00     0.013 A 
BRANCH   8  12
HETATM   12  C   UNK N   1      35.208  10.703  19.455  0.00  0.00     0.176 C 
HETATM   13  O   UNK N   1      34.736   9.624  19.130  0.00  0.00    -0.646 OA
BRANCH  12  14
HETATM   14  O   UNK N   1      35.598  10.900  20.729  0.00  0.00    -0.773 OA
HETATM   15  H   UNK N   1      36.166  11.615  20.943  0.00  0.00     0.167 HD
ENDBRANCH  12  14
ENDBRANCH   8  12
ENDBRANCH   4   6
ENDBRANCH   2   3
ENDBRANCH   1   2
BRANCH   1  16
HETATM   16  C   UNK N   1      36.606  14.503  11.420  0.00  0.00     0.230 C 
BRANCH  16  17
HETATM   17  O   UNK N   1      35.437  15.230  11.441  0.00  0.00    -0.279 OA
BRANCH  17  18
HETATM   18  N   UNK N   1      34.227  14.756  11.165  0.00  0.00    -0.276 N 
HETATM   19  C   UNK N   1      33.503  15.029  10.120  0.00  0.00     0.143 C 
ATOM     20  HN  UNK N   1      33.823  14.109  11.844  1.00  0.00     0.193 HD
BRANCH  19  21
HETATM   21  C   UNK N   1      33.743  16.040   9.063  0.00  0.00     0.059 A 
HETATM   22  C   UNK N   1      33.136  15.862   7.818  0.00  0.00     0.105 A 
HETATM   23  C   UNK N   1      33.309  16.835   6.834  0.00  0.00     0.251 A 
HETATM   24  O   UNK N   1      32.804  16.686   5.736  0.00  0.00    -0.268 OA
HETATM   25  N   UNK N   1      34.041  17.959   7.104  0.00  0.00    -0.275 N 
HETATM   26  C   UNK N   1      34.607  18.133   8.337  0.00  0.00     0.327 A 
HETATM   27  H   UNK N   1      34.160  18.645   6.408  0.00  0.00     0.173 HD
HETATM   28  N   UNK N   1      34.449  17.174   9.300  0.00  0.00    -0.307 N 
HETATM   29  O   UNK N   1      35.245  19.140   8.579  0.00  0.00    -0.247 OA
HETATM   30  H   UNK N   1      34.857  17.311  10.186  0.00  0.00     0.170 HD
ENDBRANCH  19  21
ENDBRANCH  17  18
ENDBRANCH  16  17
ENDBRANCH   1  16
TORSDOF 9
ENDMDL
MODEL 8
REMARK VINA RESULT:      -5.7      2.280      4.024
REMARK  9 active torsions:
REMARK  status: ('A' for Active; 'I' for Inactive)
REMARK    1  A    between atoms: C_2  and  O_1 
REMARK    2  A    between atoms: C_4  and  C_2 
REMARK    3  A    between atoms: C_8  and  C_10 
REMARK    4  A    between atoms: N_11  and  O_13 
REMARK    5  A    between atoms: C_14  and  O_13 
REMARK    6  A    between atoms: C_14  and  C_15 
REMARK    7  A    between atoms: C_15  and  O_16 
REMARK    8  A    between atoms: O_16  and  N_17 
REMARK    9  A    between atoms: C_19  and  C_20 
ROOT
HETATM    1  C   UNK N   1      27.838  23.086 -10.292  0.00  0.00     0.230 C 
ENDROOT
BRANCH   1   2
HETATM    2  O   UNK N   1      27.675  22.358  -9.127  0.00  0.00    -0.279 OA
BRANCH   2   3
HETATM    3  N   UNK N   1      28.638  22.190  -8.232  0.00  0.00    -0.277 N 
HETATM    4  C   UNK N   1      28.385  21.979  -6.988  0.00  0.00     0.125 C 
ATOM      5  HN  UNK N   1      29.610  22.229  -8.540  1.00  0.00     0.193 HD
BRANCH   4   6
HETATM    6  C   UNK N   1      29.452  21.796  -6.004  0.00  0.00    -0.018 A 
HETATM    7  C   UNK N   1      29.519  22.672  -4.919  0.00  0.00     0.031 A 
HETATM    8  C   UNK N   1      30.512  22.520  -3.943  0.00  0.00     0.038 A 
HETATM    9  C   UNK N   1      31.447  21.484  -4.069  0.00  0.00     0.018 A 
HETATM   10  C   UNK N   1      31.387  20.608  -5.157  0.00  0.00     0.002 A 
HETATM   11  C   UNK N   1      30.388  20.759  -6.122  0.00  0.00     0.013 A 
BRANCH   8  12
HETATM   12  C   UNK N   1      30.563  23.437  -2.789  0.00  0.00     0.176 C 
HETATM   13  O   UNK N   1      30.593  24.645  -2.962  0.00  0.00    -0.646 OA
BRANCH  12  14
HETATM   14  O   UNK N   1      30.567  22.946  -1.534  0.00  0.00    -0.773 OA
HETATM   15  H   UNK N   1      29.765  22.681  -1.129  0.00  0.00     0.167 HD
ENDBRANCH  12  14
ENDBRANCH   8  12
ENDBRANCH   4   6
ENDBRANCH   2   3
ENDBRANCH   1   2
BRANCH   1  16
HETATM   16  C   UNK N   1      28.240  24.519  -9.976  0.00  0.00     0.230 C 
BRANCH  16  17
HETATM   17  O   UNK N   1      27.605  24.994  -8.849  0.00  0.00    -0.279 OA
BRANCH  17  18
HETATM   18  N   UNK N   1      26.331  24.789  -8.536  0.00  0.00    -0.276 N 
HETATM   19  C   UNK N   1      25.781  24.942  -7.367  0.00  0.00     0.143 C 
ATOM     20  HN  UNK N   1      25.718  24.478  -9.291  1.00  0.00     0.193 HD
BRANCH  19  21
HETATM   21  C   UNK N   1      26.433  25.217  -6.065  0.00  0.00     0.059 A 
HETATM   22  C   UNK N   1      26.144  24.381  -4.985  0.00  0.00     0.105 A 
HETATM   23  C   UNK N   1      26.793  24.594  -3.768  0.00  0.00     0.251 A 
HETATM   24  O   UNK N   1      26.538  23.888  -2.810  0.00  0.00    -0.268 OA
HETATM   25  N   UNK N   1      27.720  25.594  -3.654  0.00  0.00    -0.275 N 
HETATM   26  C   UNK N   1      28.013  26.389  -4.729  0.00  0.00     0.327 A 
HETATM   27  H   UNK N   1      28.178  25.743  -2.795  0.00  0.00     0.173 HD
HETATM   28  N   UNK N   1      27.369  26.188  -5.919  0.00  0.00    -0.307 N 
HETATM   29  O   UNK N   1      28.848  27.268  -4.629  0.00  0.00    -0.247 OA
HETATM   30  H   UNK N   1      27.589  26.763  -6.688  0.00  0.00     0.170 HD
ENDBRANCH  19  21
ENDBRANCH  17  18
ENDBRANCH  16  17
ENDBRANCH   1  16
TORSDOF 9
ENDMDL
MODEL 9
REMARK VINA RESULT:      -5.6     11.170     13.348
REMARK  9 active torsions:
REMARK  status: ('A' for Active; 'I' for Inactive)
REMARK    1  A    between atoms: C_2  and  O_1 
REMARK    2  A    between atoms: C_4  and  C_2 
REMARK    3  A    between atoms: C_8  and  C_10 
REMARK    4  A    between atoms: N_11  and  O_13 
REMARK    5  A    between atoms: C_14  and  O_13 
REMARK    6  A    between atoms: C_14  and  C_15 
REMARK    7  A    between atoms: C_15  and  O_16 
REMARK    8  A    between atoms: O_16  and  N_17 
REMARK    9  A    between atoms: C_19  and  C_20 
ROOT
HETATM    1  C   UNK N   1      21.079  17.133   7.092  0.00  0.00     0.230 C 
ENDROOT
BRANCH   1   2
HETATM    2  O   UNK N   1      21.751  17.004   5.890  0.00  0.00    -0.279 OA
BRANCH   2   3
HETATM    3  N   UNK N   1      22.906  17.602   5.633  0.00  0.00    -0.277 N 
HETATM    4  C   UNK N   1      23.231  17.979   4.446  0.00  0.00     0.125 C 
ATOM      5  HN  UNK N   1      23.558  17.769   6.401  1.00  0.00     0.193 HD
BRANCH   4   6
HETATM    6  C   UNK N   1      24.508  18.637   4.167  0.00  0.00    -0.018 A 
HETATM    7  C   UNK N   1      25.690  17.964   4.483  0.00  0.00     0.031 A 
HETATM    8  C   UNK N   1      26.933  18.549   4.215  0.00  0.00     0.038 A 
HETATM    9  C   UNK N   1      26.983  19.823   3.632  0.00  0.00     0.018 A 
HETATM   10  C   UNK N   1      25.801  20.502   3.320  0.00  0.00     0.002 A 
HETATM   11  C   UNK N   1      24.564  19.909   3.582  0.00  0.00     0.013 A 
BRANCH   8  12
HETATM   12  C   UNK N   1      28.178  17.824   4.532  0.00  0.00     0.176 C 
HETATM   13  O   UNK N   1      28.141  16.645   4.849  0.00  0.00    -0.646 OA
BRANCH  12  14
HETATM   14  O   UNK N   1      29.366  18.455   4.463  0.00  0.00    -0.773 OA
HETATM   15  H   UNK N   1      29.680  18.948   5.196  0.00  0.00     0.167 HD
ENDBRANCH  12  14
ENDBRANCH   8  12
ENDBRANCH   4   6
ENDBRANCH   2   3
ENDBRANCH   1   2
BRANCH   1  16
HETATM   16  C   UNK N   1      19.897  16.176   7.149  0.00  0.00     0.230 C 
BRANCH  16  17
HETATM   17  O   UNK N   1      19.271  16.060   5.928  0.00  0.00    -0.279 OA
BRANCH  17  18
HETATM   18  N   UNK N   1      19.416  15.048   5.079  0.00  0.00    -0.276 N 
HETATM   19  C   UNK N   1      19.772  15.124   3.831  0.00  0.00     0.143 C 
ATOM     20  HN  UNK N   1      19.228  14.114   5.445  1.00  0.00     0.193 HD
BRANCH  19  21
HETATM   21  C   UNK N   1      19.946  16.330   2.988  0.00  0.00     0.059 A 
HETATM   22  C   UNK N   1      20.093  16.165   1.609  0.00  0.00     0.105 A 
HETATM   23  C   UNK N   1      20.202  17.295   0.798  0.00  0.00     0.251 A 
HETATM   24  O   UNK N   1      20.352  17.170  -0.404  0.00  0.00    -0.268 OA
HETATM   25  N   UNK N   1      20.136  18.544   1.352  0.00  0.00    -0.275 N 
HETATM   26  C   UNK N   1      19.965  18.691   2.702  0.00  0.00     0.327 A 
HETATM   27  H   UNK N   1      20.212  19.340   0.778  0.00  0.00     0.173 HD
HETATM   28  N   UNK N   1      19.870  17.584   3.500  0.00  0.00    -0.307 N 
HETATM   29  O   UNK N   1      19.892  19.802   3.191  0.00  0.00    -0.247 OA
HETATM   30  H   UNK N   1      19.742  17.700   4.470  0.00  0.00     0.170 HD
ENDBRANCH  19  21
ENDBRANCH  17  18
ENDBRANCH  16  17
ENDBRANCH   1  16
TORSDOF 9
ENDMDL
