MODEL 1
REMARK VINA RESULT:      -6.4      0.000      0.000
REMARK  7 active torsions:
REMARK  status: ('A' for Active; 'I' for Inactive)
REMARK    1  A    between atoms: C_2  and  N_18 
REMARK    2  A    between atoms: C_3  and  N_10 
REMARK    3  A    between atoms: C_5  and  C_7 
REMARK    4  A    between atoms: C_7  and  O_8 
REMARK       I    between atoms: N_10  and  C_11 
REMARK    5  A    between atoms: C_11  and  C_12 
REMARK    6  A    between atoms: C_12  and  C_14 
REMARK    7  A    between atoms: C_12  and  C_16 
REMARK       I    between atoms: N_18  and  C_19 
ROOT
HETATM    1  C   UNK N   1      29.146  22.616  -5.955  0.00  0.00     0.033 A 
HETATM    2  C   UNK N   1      28.431  23.819  -5.842  0.00  0.00     0.061 A 
HETATM    3  C   UNK N   1      28.503  24.552  -4.644  0.00  0.00     0.062 A 
HETATM    4  C   UNK N   1      29.281  24.074  -3.577  0.00  0.00     0.050 A 
HETATM    5  C   UNK N   1      29.986  22.866  -3.695  0.00  0.00     0.040 A 
HETATM    6  C   UNK N   1      29.913  22.142  -4.889  0.00  0.00     0.021 A 
ENDROOT
BRANCH   3   7
HETATM    7  N   UNK N   1      27.764  25.765  -4.552  0.00  0.00    -0.325 N 
HETATM    8  C   UNK N   1      26.691  26.015  -3.756  0.00  0.00     0.226 C 
HETATM    9  O   UNK N   1      26.279  25.170  -2.973  0.00  0.00    -0.273 OA
HETATM   10  H   UNK N   1      28.062  26.505  -5.128  0.00  0.00     0.169 HD
BRANCH   8  11
HETATM   11  C   UNK N   1      26.056  27.386  -3.821  0.00  0.00     0.077 C 
BRANCH  11  12
HETATM   12  C   UNK N   1      26.883  28.481  -3.144  0.00  0.00     0.009 C 
HETATM   13  C   UNK N   1      26.504  29.863  -3.641  0.00  0.00     0.006 C 
ENDBRANCH  11  12
BRANCH  11  14
HETATM   14  C   UNK N   1      25.822  27.771  -5.275  0.00  0.00     0.009 C 
HETATM   15  C   UNK N   1      24.601  27.055  -5.823  0.00  0.00     0.006 C 
ENDBRANCH  11  14
ENDBRANCH   8  11
ENDBRANCH   3   7
BRANCH   2  16
HETATM   16  N   UNK N   1      27.649  24.345  -6.914  0.00  0.00    -0.326 N 
HETATM   17  C   UNK N   1      26.358  24.055  -7.238  0.00  0.00     0.218 C 
HETATM   18  C   UNK N   1      25.526  23.091  -6.455  0.00  0.00     0.117 C 
HETATM   19  O   UNK N   1      25.858  24.598  -8.208  0.00  0.00    -0.274 OA
HETATM   20  H   UNK N   1      28.098  25.001  -7.493  0.00  0.00     0.169 HD
ENDBRANCH   2  16
BRANCH   5  21
HETATM   21  C   UNK N   1      30.794  22.352  -2.572  0.00  0.00     0.176 C 
HETATM   22  O   UNK N   1      30.713  22.867  -1.467  0.00  0.00    -0.646 OA
BRANCH  21  23
HETATM   23  O   UNK N   1      31.624  21.306  -2.756  0.00  0.00    -0.773 OA
HETATM   24  H   UNK N   1      32.397  21.406  -3.277  0.00  0.00     0.167 HD
ENDBRANCH  21  23
ENDBRANCH   5  21
TORSDOF 7
ENDMDL
MODEL 2
REMARK VINA RESULT:      -6.0      9.983     12.374
REMARK  7 active torsions:
REMARK  status: ('A' for Active; 'I' for Inactive)
REMARK    1  A    between atoms: C_2  and  N_18 
REMARK    2  A    between atoms: C_3  and  N_10 
REMARK    3  A    between atoms: C_5  and  C_7 
REMARK    4  A    between atoms: C_7  and  O_8 
REMARK       I    between atoms: N_10  and  C_11 
REMARK    5  A    between atoms: C_11  and  C_12 
REMARK    6  A    between atoms: C_12  and  C_14 
REMARK    7  A    between atoms: C_12  and  C_16 
REMARK       I    between atoms: N_18  and  C_19 
ROOT
HETATM    1  C   UNK N   1      27.117  20.829   5.575  0.00  0.00     0.033 A 
HETATM    2  C   UNK N   1      26.978  19.894   4.538  0.00  0.00     0.061 A 
HETATM    3  C   UNK N   1      27.290  18.544   4.781  0.00  0.00     0.062 A 
HETATM    4  C   UNK N   1      27.738  18.149   6.052  0.00  0.00     0.050 A 
HETATM    5  C   UNK N   1      27.882  19.091   7.082  0.00  0.00     0.040 A 
HETATM    6  C   UNK N   1      27.569  20.432   6.835  0.00  0.00     0.021 A 
ENDROOT
BRANCH   3   7
HETATM    7  N   UNK N   1      27.147  17.616   3.711  0.00  0.00    -0.325 N 
HETATM    8  C   UNK N   1      26.158  16.699   3.547  0.00  0.00     0.226 C 
HETATM    9  O   UNK N   1      25.229  16.628   4.339  0.00  0.00    -0.273 OA
HETATM   10  H   UNK N   1      27.841  17.642   3.013  0.00  0.00     0.169 HD
BRANCH   8  11
HETATM   11  C   UNK N   1      26.205  15.808   2.325  0.00  0.00     0.077 C 
BRANCH  11  12
HETATM   12  C   UNK N   1      27.553  15.114   2.119  0.00  0.00     0.009 C 
HETATM   13  C   UNK N   1      27.800  14.042   3.162  0.00  0.00     0.006 C 
ENDBRANCH  11  12
BRANCH  11  14
HETATM   14  C   UNK N   1      25.114  14.750   2.424  0.00  0.00     0.009 C 
HETATM   15  C   UNK N   1      24.452  14.544   1.074  0.00  0.00     0.006 C 
ENDBRANCH  11  14
ENDBRANCH   8  11
ENDBRANCH   3   7
BRANCH   2  16
HETATM   16  N   UNK N   1      26.504  20.258   3.241  0.00  0.00    -0.326 N 
HETATM   17  C   UNK N   1      25.221  20.276   2.786  0.00  0.00     0.218 C 
HETATM   18  C   UNK N   1      24.055  19.902   3.642  0.00  0.00     0.117 C 
HETATM   19  O   UNK N   1      25.011  20.605   1.630  0.00  0.00    -0.274 OA
HETATM   20  H   UNK N   1      27.193  20.532   2.593  0.00  0.00     0.169 HD
ENDBRANCH   2  16
BRANCH   5  21
HETATM   21  C   UNK N   1      28.367  18.683   8.415  0.00  0.00     0.176 C 
HETATM   22  O   UNK N   1      29.558  18.726   8.679  0.00  0.00    -0.646 OA
BRANCH  21  23
HETATM   23  O   UNK N   1      27.495  18.262   9.354  0.00  0.00    -0.773 OA
HETATM   24  H   UNK N   1      27.800  17.780  10.097  0.00  0.00     0.167 HD
ENDBRANCH  21  23
ENDBRANCH   5  21
TORSDOF 7
ENDMDL
MODEL 3
REMARK VINA RESULT:      -6.0      1.991      5.888
REMARK  7 active torsions:
REMARK  status: ('A' for Active; 'I' for Inactive)
REMARK    1  A    between atoms: C_2  and  N_18 
REMARK    2  A    between atoms: C_3  and  N_10 
REMARK    3  A    between atoms: C_5  and  C_7 
REMARK    4  A    between atoms: C_7  and  O_8 
REMARK       I    between atoms: N_10  and  C_11 
REMARK    5  A    between atoms: C_11  and  C_12 
REMARK    6  A    between atoms: C_12  and  C_14 
REMARK    7  A    between atoms: C_12  and  C_16 
REMARK       I    between atoms: N_18  and  C_19 
ROOT
HETATM    1  C   UNK N   1      24.912  26.528  -5.543  0.00  0.00     0.033 A 
HETATM    2  C   UNK N   1      25.676  25.389  -5.242  0.00  0.00     0.061 A 
HETATM    3  C   UNK N   1      26.706  25.484  -4.290  0.00  0.00     0.062 A 
HETATM    4  C   UNK N   1      26.962  26.711  -3.656  0.00  0.00     0.050 A 
HETATM    5  C   UNK N   1      26.199  27.846  -3.968  0.00  0.00     0.040 A 
HETATM    6  C   UNK N   1      25.174  27.746  -4.914  0.00  0.00     0.021 A 
ENDROOT
BRANCH   3   7
HETATM    7  N   UNK N   1      27.471  24.317  -4.007  0.00  0.00    -0.325 N 
HETATM    8  C   UNK N   1      28.754  24.066  -4.379  0.00  0.00     0.226 C 
HETATM    9  O   UNK N   1      29.406  24.901  -4.988  0.00  0.00    -0.273 OA
HETATM   10  H   UNK N   1      27.021  23.613  -3.486  0.00  0.00     0.169 HD
BRANCH   8  11
HETATM   11  C   UNK N   1      29.373  22.749  -3.966  0.00  0.00     0.077 C 
BRANCH  11  12
HETATM   12  C   UNK N   1      30.218  22.094  -5.061  0.00  0.00     0.009 C 
HETATM   13  C   UNK N   1      29.374  21.672  -6.248  0.00  0.00     0.006 C 
ENDBRANCH  11  12
BRANCH  11  14
HETATM   14  C   UNK N   1      30.241  22.959  -2.732  0.00  0.00     0.009 C 
HETATM   15  C   UNK N   1      31.536  22.178  -2.856  0.00  0.00     0.006 C 
ENDBRANCH  11  14
ENDBRANCH   8  11
ENDBRANCH   3   7
BRANCH   2  16
HETATM   16  N   UNK N   1      25.428  24.122  -5.852  0.00  0.00    -0.326 N 
HETATM   17  C   UNK N   1      25.987  23.606  -6.982  0.00  0.00     0.218 C 
HETATM   18  C   UNK N   1      27.012  24.340  -7.784  0.00  0.00     0.117 C 
HETATM   19  O   UNK N   1      25.636  22.501  -7.360  0.00  0.00    -0.274 OA
HETATM   20  H   UNK N   1      24.771  23.547  -5.398  0.00  0.00     0.169 HD
ENDBRANCH   2  16
BRANCH   5  21
HETATM   21  C   UNK N   1      26.473  29.141  -3.315  0.00  0.00     0.176 C 
HETATM   22  O   UNK N   1      27.179  29.194  -2.320  0.00  0.00    -0.646 OA
BRANCH  21  23
HETATM   23  O   UNK N   1      25.949  30.278  -3.816  0.00  0.00    -0.773 OA
HETATM   24  H   UNK N   1      25.044  30.478  -3.680  0.00  0.00     0.167 HD
ENDBRANCH  21  23
ENDBRANCH   5  21
TORSDOF 7
ENDMDL
MODEL 4
REMARK VINA RESULT:      -5.9     10.725     12.785
REMARK  7 active torsions:
REMARK  status: ('A' for Active; 'I' for Inactive)
REMARK    1  A    between atoms: C_2  and  N_18 
REMARK    2  A    between atoms: C_3  and  N_10 
REMARK    3  A    between atoms: C_5  and  C_7 
REMARK    4  A    between atoms: C_7  and  O_8 
REMARK       I    between atoms: N_10  and  C_11 
REMARK    5  A    between atoms: C_11  and  C_12 
REMARK    6  A    between atoms: C_12  and  C_14 
REMARK    7  A    between atoms: C_12  and  C_16 
REMARK       I    between atoms: N_18  and  C_19 
ROOT
HETATM    1  C   UNK N   1      20.979  17.613   3.231  0.00  0.00     0.033 A 
HETATM    2  C   UNK N   1      22.137  17.774   4.007  0.00  0.00     0.061 A 
HETATM    3  C   UNK N   1      22.905  18.943   3.862  0.00  0.00     0.062 A 
HETATM    4  C   UNK N   1      22.509  19.930   2.945  0.00  0.00     0.050 A 
HETATM    5  C   UNK N   1      21.354  19.758   2.167  0.00  0.00     0.040 A 
HETATM    6  C   UNK N   1      20.593  18.594   2.316  0.00  0.00     0.021 A 
ENDROOT
BRANCH   3   7
HETATM    7  N   UNK N   1      24.079  19.080   4.655  0.00  0.00    -0.325 N 
HETATM    8  C   UNK N   1      25.352  19.253   4.214  0.00  0.00     0.226 C 
HETATM    9  O   UNK N   1      25.595  19.355   3.020  0.00  0.00    -0.273 OA
HETATM   10  H   UNK N   1      23.955  19.045   5.631  0.00  0.00     0.169 HD
BRANCH   8  11
HETATM   11  C   UNK N   1      26.455  19.376   5.242  0.00  0.00     0.077 C 
BRANCH  11  12
HETATM   12  C   UNK N   1      27.857  19.464   4.635  0.00  0.00     0.009 C 
HETATM   13  C   UNK N   1      28.577  18.130   4.684  0.00  0.00     0.006 C 
ENDBRANCH  11  12
BRANCH  11  14
HETATM   14  C   UNK N   1      26.212  20.608   6.104  0.00  0.00     0.009 C 
HETATM   15  C   UNK N   1      27.465  21.461   6.175  0.00  0.00     0.006 C 
ENDBRANCH  11  14
ENDBRANCH   8  11
ENDBRANCH   3   7
BRANCH   2  16
HETATM   16  N   UNK N   1      22.556  16.801   4.963  0.00  0.00    -0.326 N 
HETATM   17  C   UNK N   1      22.111  16.625   6.238  0.00  0.00     0.218 C 
HETATM   18  C   UNK N   1      21.044  17.476   6.846  0.00  0.00     0.117 C 
HETATM   19  O   UNK N   1      22.603  15.739   6.917  0.00  0.00    -0.274 OA
HETATM   20  H   UNK N   1      23.255  16.176   4.664  0.00  0.00     0.169 HD
ENDBRANCH   2  16
BRANCH   5  21
HETATM   21  C   UNK N   1      20.942  20.786   1.191  0.00  0.00     0.176 C 
HETATM   22  O   UNK N   1      20.837  20.508   0.007  0.00  0.00    -0.646 OA
BRANCH  21  23
HETATM   23  O   UNK N   1      20.672  22.042   1.603  0.00  0.00    -0.773 OA
HETATM   24  H   UNK N   1      20.995  22.346   2.428  0.00  0.00     0.167 HD
ENDBRANCH  21  23
ENDBRANCH   5  21
TORSDOF 7
ENDMDL
MODEL 5
REMARK VINA RESULT:      -5.8     20.780     24.308
REMARK  7 active torsions:
REMARK  status: ('A' for Active; 'I' for Inactive)
REMARK    1  A    between atoms: C_2  and  N_18 
REMARK    2  A    between atoms: C_3  and  N_10 
REMARK    3  A    between atoms: C_5  and  C_7 
REMARK    4  A    between atoms: C_7  and  O_8 
REMARK       I    between atoms: N_10  and  C_11 
REMARK    5  A    between atoms: C_11  and  C_12 
REMARK    6  A    between atoms: C_12  and  C_14 
REMARK    7  A    between atoms: C_12  and  C_16 
REMARK       I    between atoms: N_18  and  C_19 
ROOT
HETATM    1  C   UNK N   1      35.610  10.720  16.542  0.00  0.00     0.033 A 
HETATM    2  C   UNK N   1      36.045  11.224  15.307  0.00  0.00     0.061 A 
HETATM    3  C   UNK N   1      36.227  12.610  15.155  0.00  0.00     0.062 A 
HETATM    4  C   UNK N   1      35.969  13.472  16.234  0.00  0.00     0.050 A 
HETATM    5  C   UNK N   1      35.526  12.960  17.463  0.00  0.00     0.040 A 
HETATM    6  C   UNK N   1      35.349  11.581  17.609  0.00  0.00     0.021 A 
ENDROOT
BRANCH   3   7
HETATM    7  N   UNK N   1      36.663  13.098  13.890  0.00  0.00    -0.325 N 
HETATM    8  C   UNK N   1      35.887  13.583  12.885  0.00  0.00     0.226 C 
HETATM    9  O   UNK N   1      34.676  13.685  13.020  0.00  0.00    -0.273 OA
HETATM   10  H   UNK N   1      37.634  13.081  13.725  0.00  0.00     0.169 HD
BRANCH   8  11
HETATM   11  C   UNK N   1      36.568  14.050  11.618  0.00  0.00     0.077 C 
BRANCH  11  12
HETATM   12  C   UNK N   1      37.189  12.917  10.798  0.00  0.00     0.009 C 
HETATM   13  C   UNK N   1      38.648  13.182  10.481  0.00  0.00     0.006 C 
ENDBRANCH  11  12
BRANCH  11  14
HETATM   14  C   UNK N   1      35.568  14.799  10.748  0.00  0.00     0.009 C 
HETATM   15  C   UNK N   1      35.738  16.297  10.915  0.00  0.00     0.006 C 
ENDBRANCH  11  14
ENDBRANCH   8  11
ENDBRANCH   3   7
BRANCH   2  16
HETATM   16  N   UNK N   1      36.338  10.375  14.197  0.00  0.00    -0.326 N 
HETATM   17  C   UNK N   1      35.487   9.916  13.238  0.00  0.00     0.218 C 
HETATM   18  C   UNK N   1      34.036  10.272  13.209  0.00  0.00     0.117 C 
HETATM   19  O   UNK N   1      35.921   9.180  12.368  0.00  0.00    -0.274 OA
HETATM   20  H   UNK N   1      37.275  10.085  14.112  0.00  0.00     0.169 HD
ENDBRANCH   2  16
BRANCH   5  21
HETATM   21  C   UNK N   1      35.239  13.863  18.595  0.00  0.00     0.176 C 
HETATM   22  O   UNK N   1      34.914  13.408  19.681  0.00  0.00    -0.646 OA
BRANCH  21  23
HETATM   23  O   UNK N   1      35.340  15.199  18.440  0.00  0.00    -0.773 OA
HETATM   24  H   UNK N   1      35.521  15.561  17.595  0.00  0.00     0.167 HD
ENDBRANCH  21  23
ENDBRANCH   5  21
TORSDOF 7
ENDMDL
MODEL 6
REMARK VINA RESULT:      -5.7     10.194     12.799
REMARK  7 active torsions:
REMARK  status: ('A' for Active; 'I' for Inactive)
REMARK    1  A    between atoms: C_2  and  N_18 
REMARK    2  A    between atoms: C_3  and  N_10 
REMARK    3  A    between atoms: C_5  and  C_7 
REMARK    4  A    between atoms: C_7  and  O_8 
REMARK       I    between atoms: N_10  and  C_11 
REMARK    5  A    between atoms: C_11  and  C_12 
REMARK    6  A    between atoms: C_12  and  C_14 
REMARK    7  A    between atoms: C_12  and  C_16 
REMARK       I    between atoms: N_18  and  C_19 
ROOT
HETATM    1  C   UNK N   1      30.633  15.815   6.692  0.00  0.00     0.033 A 
HETATM    2  C   UNK N   1      29.684  16.843   6.584  0.00  0.00     0.061 A 
HETATM    3  C   UNK N   1      29.717  17.695   5.466  0.00  0.00     0.062 A 
HETATM    4  C   UNK N   1      30.697  17.512   4.476  0.00  0.00     0.050 A 
HETATM    5  C   UNK N   1      31.647  16.486   4.596  0.00  0.00     0.040 A 
HETATM    6  C   UNK N   1      31.608  15.641   5.709  0.00  0.00     0.021 A 
ENDROOT
BRANCH   3   7
HETATM    7  N   UNK N   1      28.748  18.735   5.383  0.00  0.00    -0.325 N 
HETATM    8  C   UNK N   1      27.591  18.723   4.670  0.00  0.00     0.226 C 
HETATM    9  O   UNK N   1      27.252  17.732   4.038  0.00  0.00    -0.273 OA
HETATM   10  H   UNK N   1      28.936  19.552   5.898  0.00  0.00     0.169 HD
BRANCH   8  11
HETATM   11  C   UNK N   1      26.703  19.947   4.727  0.00  0.00     0.077 C 
BRANCH  11  12
HETATM   12  C   UNK N   1      27.277  21.086   5.573  0.00  0.00     0.009 C 
HETATM   13  C   UNK N   1      26.438  21.350   6.807  0.00  0.00     0.006 C 
ENDBRANCH  11  12
BRANCH  11  14
HETATM   14  C   UNK N   1      26.450  20.459   3.315  0.00  0.00     0.009 C 
HETATM   15  C   UNK N   1      24.990  20.284   2.943  0.00  0.00     0.006 C 
ENDBRANCH  11  14
ENDBRANCH   8  11
ENDBRANCH   3   7
BRANCH   2  16
HETATM   16  N   UNK N   1      28.662  17.043   7.560  0.00  0.00    -0.326 N 
HETATM   17  C   UNK N   1      28.734  17.742   8.727  0.00  0.00     0.218 C 
HETATM   18  C   UNK N   1      29.972  18.453   9.166  0.00  0.00     0.117 C 
HETATM   19  O   UNK N   1      27.751  17.790   9.447  0.00  0.00    -0.274 OA
HETATM   20  H   UNK N   1      27.793  16.623   7.366  0.00  0.00     0.169 HD
ENDBRANCH   2  16
BRANCH   5  21
HETATM   21  C   UNK N   1      32.687  16.299   3.565  0.00  0.00     0.176 C 
HETATM   22  O   UNK N   1      32.554  16.792   2.456  0.00  0.00    -0.646 OA
BRANCH  21  23
HETATM   23  O   UNK N   1      33.797  15.585   3.844  0.00  0.00    -0.773 OA
HETATM   24  H   UNK N   1      33.892  14.715   3.510  0.00  0.00     0.167 HD
ENDBRANCH  21  23
ENDBRANCH   5  21
TORSDOF 7
ENDMDL
MODEL 7
REMARK VINA RESULT:      -5.7     12.029     13.998
REMARK  7 active torsions:
REMARK  status: ('A' for Active; 'I' for Inactive)
REMARK    1  A    between atoms: C_2  and  N_18 
REMARK    2  A    between atoms: C_3  and  N_10 
REMARK    3  A    between atoms: C_5  and  C_7 
REMARK    4  A    between atoms: C_7  and  O_8 
REMARK       I    between atoms: N_10  and  C_11 
REMARK    5  A    between atoms: C_11  and  C_12 
REMARK    6  A    between atoms: C_12  and  C_14 
REMARK    7  A    between atoms: C_12  and  C_16 
REMARK       I    between atoms: N_18  and  C_19 
ROOT
HETATM    1  C   UNK N   1      33.787  15.442   6.364  0.00  0.00     0.033 A 
HETATM    2  C   UNK N   1      32.522  15.913   5.981  0.00  0.00     0.061 A 
HETATM    3  C   UNK N   1      32.044  17.119   6.523  0.00  0.00     0.062 A 
HETATM    4  C   UNK N   1      32.832  17.834   7.440  0.00  0.00     0.050 A 
HETATM    5  C   UNK N   1      34.092  17.352   7.824  0.00  0.00     0.040 A 
HETATM    6  C   UNK N   1      34.563  16.153   7.280  0.00  0.00     0.021 A 
ENDROOT
BRANCH   3   7
HETATM    7  N   UNK N   1      30.755  17.573   6.124  0.00  0.00    -0.325 N 
HETATM    8  C   UNK N   1      29.608  17.532   6.853  0.00  0.00     0.226 C 
HETATM    9  O   UNK N   1      29.608  17.113   8.002  0.00  0.00    -0.273 OA
HETATM   10  H   UNK N   1      30.686  17.959   5.221  0.00  0.00     0.169 HD
BRANCH   8  11
HETATM   11  C   UNK N   1      28.343  18.074   6.225  0.00  0.00     0.077 C 
BRANCH  11  12
HETATM   12  C   UNK N   1      27.796  19.322   6.921  0.00  0.00     0.009 C 
HETATM   13  C   UNK N   1      27.565  20.458   5.943  0.00  0.00     0.006 C 
ENDBRANCH  11  12
BRANCH  11  14
HETATM   14  C   UNK N   1      28.599  18.397   4.760  0.00  0.00     0.009 C 
HETATM   15  C   UNK N   1      27.955  17.353   3.867  0.00  0.00     0.006 C 
ENDBRANCH  11  14
ENDBRANCH   8  11
ENDBRANCH   3   7
BRANCH   2  16
HETATM   16  N   UNK N   1      31.704  15.223   5.035  0.00  0.00    -0.326 N 
HETATM   17  C   UNK N   1      31.670  15.372   3.682  0.00  0.00     0.218 C 
HETATM   18  C   UNK N   1      32.550  16.334   2.954  0.00  0.00     0.117 C 
HETATM   19  O   UNK N   1      30.887  14.697   3.035  0.00  0.00    -0.274 OA
HETATM   20  H   UNK N   1      31.087  14.553   5.408  0.00  0.00     0.169 HD
ENDBRANCH   2  16
BRANCH   5  21
HETATM   21  C   UNK N   1      34.918  18.092   8.798  0.00  0.00     0.176 C 
HETATM   22  O   UNK N   1      35.240  17.574   9.856  0.00  0.00    -0.646 OA
BRANCH  21  23
HETATM   23  O   UNK N   1      35.328  19.348   8.524  0.00  0.00    -0.773 OA
HETATM   24  H   UNK N   1      35.255  19.686   7.654  0.00  0.00     0.167 HD
ENDBRANCH  21  23
ENDBRANCH   5  21
TORSDOF 7
ENDMDL
MODEL 8
REMARK VINA RESULT:      -5.7     13.505     15.319
REMARK  7 active torsions:
REMARK  status: ('A' for Active; 'I' for Inactive)
REMARK    1  A    between atoms: C_2  and  N_18 
REMARK    2  A    between atoms: C_3  and  N_10 
REMARK    3  A    between atoms: C_5  and  C_7 
REMARK    4  A    between atoms: C_7  and  O_8 
REMARK       I    between atoms: N_10  and  C_11 
REMARK    5  A    between atoms: C_11  and  C_12 
REMARK    6  A    between atoms: C_12  and  C_14 
REMARK    7  A    between atoms: C_12  and  C_16 
REMARK       I    between atoms: N_18  and  C_19 
ROOT
HETATM    1  C   UNK N   1      31.871  17.896   8.387  0.00  0.00     0.033 A 
HETATM    2  C   UNK N   1      31.977  17.314   7.115  0.00  0.00     0.061 A 
HETATM    3  C   UNK N   1      30.809  16.920   6.438  0.00  0.00     0.062 A 
HETATM    4  C   UNK N   1      29.555  17.109   7.042  0.00  0.00     0.050 A 
HETATM    5  C   UNK N   1      29.458  17.684   8.318  0.00  0.00     0.040 A 
HETATM    6  C   UNK N   1      30.623  18.076   8.985  0.00  0.00     0.021 A 
ENDROOT
BRANCH   3   7
HETATM    7  N   UNK N   1      30.944  16.326   5.151  0.00  0.00    -0.325 N 
HETATM    8  C   UNK N   1      30.946  15.000   4.856  0.00  0.00     0.226 C 
HETATM    9  O   UNK N   1      30.776  14.161   5.729  0.00  0.00    -0.273 OA
HETATM   10  H   UNK N   1      31.047  16.944   4.392  0.00  0.00     0.169 HD
BRANCH   8  11
HETATM   11  C   UNK N   1      31.104  14.590   3.408  0.00  0.00     0.077 C 
BRANCH  11  12
HETATM   12  C   UNK N   1      32.489  14.034   3.072  0.00  0.00     0.009 C 
HETATM   13  C   UNK N   1      33.519  15.137   2.922  0.00  0.00     0.006 C 
ENDBRANCH  11  12
BRANCH  11  14
HETATM   14  C   UNK N   1      30.053  13.545   3.057  0.00  0.00     0.009 C 
HETATM   15  C   UNK N   1      29.011  14.135   2.125  0.00  0.00     0.006 C 
ENDBRANCH  11  14
ENDBRANCH   8  11
ENDBRANCH   3   7
BRANCH   2  16
HETATM   16  N   UNK N   1      33.234  17.128   6.464  0.00  0.00    -0.326 N 
HETATM   17  C   UNK N   1      34.098  16.081   6.579  0.00  0.00     0.218 C 
HETATM   18  C   UNK N   1      33.823  14.900   7.452  0.00  0.00     0.117 C 
HETATM   19  O   UNK N   1      35.141  16.106   5.949  0.00  0.00    -0.274 OA
HETATM   20  H   UNK N   1      33.513  17.847   5.852  0.00  0.00     0.169 HD
ENDBRANCH   2  16
BRANCH   5  21
HETATM   21  C   UNK N   1      28.143  17.871   8.962  0.00  0.00     0.176 C 
HETATM   22  O   UNK N   1      27.664  16.988   9.656  0.00  0.00    -0.646 OA
BRANCH  21  23
HETATM   23  O   UNK N   1      27.462  19.023   8.791  0.00  0.00    -0.773 OA
HETATM   24  H   UNK N   1      26.737  19.227   9.348  0.00  0.00     0.167 HD
ENDBRANCH  21  23
ENDBRANCH   5  21
TORSDOF 7
ENDMDL
MODEL 9
REMARK VINA RESULT:      -5.7      1.952      2.824
REMARK  7 active torsions:
REMARK  status: ('A' for Active; 'I' for Inactive)
REMARK    1  A    between atoms: C_2  and  N_18 
REMARK    2  A    between atoms: C_3  and  N_10 
REMARK    3  A    between atoms: C_5  and  C_7 
REMARK    4  A    between atoms: C_7  and  O_8 
REMARK       I    between atoms: N_10  and  C_11 
REMARK    5  A    between atoms: C_11  and  C_12 
REMARK    6  A    between atoms: C_12  and  C_14 
REMARK    7  A    between atoms: C_12  and  C_16 
REMARK       I    between atoms: N_18  and  C_19 
ROOT
HETATM    1  C   UNK N   1      29.665  21.492  -5.902  0.00  0.00     0.033 A 
HETATM    2  C   UNK N   1      28.802  22.532  -6.281  0.00  0.00     0.061 A 
HETATM    3  C   UNK N   1      28.584  23.602  -5.395  0.00  0.00     0.062 A 
HETATM    4  C   UNK N   1      29.226  23.617  -4.146  0.00  0.00     0.050 A 
HETATM    5  C   UNK N   1      30.081  22.570  -3.772  0.00  0.00     0.040 A 
HETATM    6  C   UNK N   1      30.296  21.509  -4.658  0.00  0.00     0.021 A 
ENDROOT
BRANCH   3   7
HETATM    7  N   UNK N   1      27.699  24.641  -5.799  0.00  0.00    -0.325 N 
HETATM    8  C   UNK N   1      28.037  25.856  -6.307  0.00  0.00     0.226 C 
HETATM    9  O   UNK N   1      29.207  26.149  -6.509  0.00  0.00    -0.273 OA
HETATM   10  H   UNK N   1      26.736  24.461  -5.700  0.00  0.00     0.169 HD
BRANCH   8  11
HETATM   11  C   UNK N   1      26.923  26.813  -6.672  0.00  0.00     0.077 C 
BRANCH  11  12
HETATM   12  C   UNK N   1      25.897  26.224  -7.643  0.00  0.00     0.009 C 
HETATM   13  C   UNK N   1      26.443  26.133  -9.054  0.00  0.00     0.006 C 
ENDBRANCH  11  12
BRANCH  11  14
HETATM   14  C   UNK N   1      26.205  27.265  -5.408  0.00  0.00     0.009 C 
HETATM   15  C   UNK N   1      24.703  27.140  -5.579  0.00  0.00     0.006 C 
ENDBRANCH  11  14
ENDBRANCH   8  11
ENDBRANCH   3   7
BRANCH   2  16
HETATM   16  N   UNK N   1      28.151  22.558  -7.551  0.00  0.00    -0.326 N 
HETATM   17  C   UNK N   1      28.631  23.028  -8.736  0.00  0.00     0.218 C 
HETATM   18  C   UNK N   1      30.000  23.607  -8.879  0.00  0.00     0.117 C 
HETATM   19  O   UNK N   1      27.915  22.979  -9.722  0.00  0.00    -0.274 OA
HETATM   20  H   UNK N   1      27.238  22.190  -7.575  0.00  0.00     0.169 HD
ENDBRANCH   2  16
BRANCH   5  21
HETATM   21  C   UNK N   1      30.747  22.574  -2.454  0.00  0.00     0.176 C 
HETATM   22  O   UNK N   1      30.217  23.115  -1.496  0.00  0.00    -0.646 OA
BRANCH  21  23
HETATM   23  O   UNK N   1      31.945  21.976  -2.298  0.00  0.00    -0.773 OA
HETATM   24  H   UNK N   1      32.198  21.275  -2.865  0.00  0.00     0.167 HD
ENDBRANCH  21  23
ENDBRANCH   5  21
TORSDOF 7
ENDMDL
