MODEL 1
REMARK VINA RESULT:      -7.2      0.000      0.000
REMARK  3 active torsions:
REMARK  status: ('A' for Active; 'I' for Inactive)
REMARK    1  A    between atoms: C_9  and  C_8 
REMARK    2  A    between atoms: N_14  and  N_17 
REMARK    3  A    between atoms: N_17  and  C_18 
ROOT
HETATM    1  C   UNK N   1      34.596  15.150   7.757  0.00  0.00     0.181 A 
HETATM    2  C   UNK N   1      35.060  13.903   7.019  0.00  0.00     0.063 C 
HETATM    3  O   UNK N   1      35.006  16.292   7.047  0.00  0.00    -0.276 OA
HETATM    4  C   UNK N   1      33.929  16.956   6.575  0.00  0.00     0.390 A 
HETATM    5  O   UNK N   1      33.997  17.957   5.880  0.00  0.00    -0.236 OA
HETATM    6  N   UNK N   1      32.791  16.355   6.895  0.00  0.00    -0.162 N 
HETATM    7  C   UNK N   1      33.090  15.283   7.634  0.00  0.00     0.287 A 
HETATM    8  O   UNK N   1      32.257  14.515   8.093  0.00  0.00    -0.267 OA
ENDROOT
BRANCH   1   9
HETATM    9  C   UNK N   1      35.149  15.143   9.170  0.00  0.00     0.025 A 
HETATM   10  C   UNK N   1      34.913  16.217  10.057  0.00  0.00     0.129 A 
HETATM   11  F   UNK N   1      34.224  17.313   9.655  0.00  0.00    -0.205 F 
HETATM   12  C   UNK N   1      35.364  16.146  11.379  0.00  0.00     0.085 A 
HETATM   13  C   UNK N   1      36.050  15.017  11.829  0.00  0.00     0.119 A 
HETATM   14  F   UNK N   1      36.464  14.945  13.117  0.00  0.00    -0.206 F 
HETATM   15  C   UNK N   1      36.298  13.957  10.957  0.00  0.00     0.043 A 
HETATM   16  C   UNK N   1      35.851  14.019   9.636  0.00  0.00     0.017 A 
ENDBRANCH   1   9
BRANCH   6  17
HETATM   17  N   UNK N   1      31.543  16.739   6.449  0.00  0.00    -0.287 N 
HETATM   18  H   UNK N   1      31.302  16.585   5.507  0.00  0.00     0.188 HD
BRANCH  17  19
HETATM   19  C   UNK N   1      30.595  17.352   7.314  0.00  0.00     0.049 A 
HETATM   20  C   UNK N   1      29.227  17.203   7.059  0.00  0.00     0.031 A 
HETATM   21  C   UNK N   1      28.284  17.736   7.945  0.00  0.00     0.002 A 
HETATM   22  C   UNK N   1      28.703  18.417   9.092  0.00  0.00     0.000 A 
HETATM   23  C   UNK N   1      30.066  18.562   9.358  0.00  0.00     0.002 A 
HETATM   24  C   UNK N   1      31.006  18.024   8.478  0.00  0.00     0.031 A 
ENDBRANCH  17  19
ENDBRANCH   6  17
TORSDOF 3
ENDMDL
MODEL 2
REMARK VINA RESULT:      -7.1      2.569      3.541
REMARK  3 active torsions:
REMARK  status: ('A' for Active; 'I' for Inactive)
REMARK    1  A    between atoms: C_9  and  C_8 
REMARK    2  A    between atoms: N_14  and  N_17 
REMARK    3  A    between atoms: N_17  and  C_18 
ROOT
HETATM    1  C   UNK N   1      35.409  14.728  10.295  0.00  0.00     0.181 A 
HETATM    2  C   UNK N   1      36.021  13.811   9.247  0.00  0.00     0.063 C 
HETATM    3  O   UNK N   1      36.083  15.962  10.286  0.00  0.00    -0.276 OA
HETATM    4  C   UNK N   1      35.250  16.942   9.875  0.00  0.00     0.390 A 
HETATM    5  O   UNK N   1      35.589  18.105   9.726  0.00  0.00    -0.236 OA
HETATM    6  N   UNK N   1      34.040  16.482   9.585  0.00  0.00    -0.162 N 
HETATM    7  C   UNK N   1      34.031  15.171   9.841  0.00  0.00     0.287 A 
HETATM    8  O   UNK N   1      33.056  14.450   9.681  0.00  0.00    -0.267 OA
ENDROOT
BRANCH   1   9
HETATM    9  C   UNK N   1      35.477  14.066  11.658  0.00  0.00     0.025 A 
HETATM   10  C   UNK N   1      35.018  12.745  11.858  0.00  0.00     0.129 A 
HETATM   11  F   UNK N   1      34.455  12.043  10.844  0.00  0.00    -0.205 F 
HETATM   12  C   UNK N   1      35.169  12.132  13.106  0.00  0.00     0.085 A 
HETATM   13  C   UNK N   1      35.772  12.820  14.161  0.00  0.00     0.119 A 
HETATM   14  F   UNK N   1      35.935  12.211  15.360  0.00  0.00    -0.206 F 
HETATM   15  C   UNK N   1      36.217  14.129  13.976  0.00  0.00     0.043 A 
HETATM   16  C   UNK N   1      36.071  14.749  12.734  0.00  0.00     0.017 A 
ENDBRANCH   1   9
BRANCH   6  17
HETATM   17  N   UNK N   1      33.023  17.232   9.030  0.00  0.00    -0.287 N 
HETATM   18  H   UNK N   1      32.477  17.806   9.615  0.00  0.00     0.188 HD
BRANCH  17  19
HETATM   19  C   UNK N   1      32.742  17.195   7.636  0.00  0.00     0.049 A 
HETATM   20  C   UNK N   1      31.432  16.968   7.201  0.00  0.00     0.031 A 
HETATM   21  C   UNK N   1      31.128  17.006   5.835  0.00  0.00     0.002 A 
HETATM   22  C   UNK N   1      32.131  17.276   4.899  0.00  0.00     0.000 A 
HETATM   23  C   UNK N   1      33.439  17.513   5.327  0.00  0.00     0.002 A 
HETATM   24  C   UNK N   1      33.740  17.482   6.690  0.00  0.00     0.031 A 
ENDBRANCH  17  19
ENDBRANCH   6  17
TORSDOF 3
ENDMDL
MODEL 3
REMARK VINA RESULT:      -7.0     14.089     15.664
REMARK  3 active torsions:
REMARK  status: ('A' for Active; 'I' for Inactive)
REMARK    1  A    between atoms: C_9  and  C_8 
REMARK    2  A    between atoms: N_14  and  N_17 
REMARK    3  A    between atoms: N_17  and  C_18 
ROOT
HETATM    1  C   UNK N   1      30.471  23.768  -3.614  0.00  0.00     0.181 A 
HETATM    2  C   UNK N   1      31.203  25.099  -3.537  0.00  0.00     0.063 C 
HETATM    3  O   UNK N   1      29.930  23.459  -2.354  0.00  0.00    -0.276 OA
HETATM    4  C   UNK N   1      28.581  23.469  -2.414  0.00  0.00     0.390 A 
HETATM    5  O   UNK N   1      27.856  23.283  -1.449  0.00  0.00    -0.236 OA
HETATM    6  N   UNK N   1      28.136  23.772  -3.626  0.00  0.00    -0.162 N 
HETATM    7  C   UNK N   1      29.198  23.933  -4.421  0.00  0.00     0.287 A 
HETATM    8  O   UNK N   1      29.125  24.216  -5.608  0.00  0.00    -0.267 OA
ENDROOT
BRANCH   1   9
HETATM    9  C   UNK N   1      31.423  22.687  -4.092  0.00  0.00     0.025 A 
HETATM   10  C   UNK N   1      31.074  21.320  -4.033  0.00  0.00     0.129 A 
HETATM   11  F   UNK N   1      29.892  20.926  -3.499  0.00  0.00    -0.205 F 
HETATM   12  C   UNK N   1      31.938  20.353  -4.557  0.00  0.00     0.085 A 
HETATM   13  C   UNK N   1      33.149  20.731  -5.139  0.00  0.00     0.119 A 
HETATM   14  F   UNK N   1      33.970  19.791  -5.665  0.00  0.00    -0.206 F 
HETATM   15  C   UNK N   1      33.508  22.078  -5.192  0.00  0.00     0.043 A 
HETATM   16  C   UNK N   1      32.651  23.051  -4.671  0.00  0.00     0.017 A 
ENDBRANCH   1   9
BRANCH   6  17
HETATM   17  N   UNK N   1      26.810  23.972  -3.952  0.00  0.00    -0.287 N 
HETATM   18  H   UNK N   1      26.201  23.199  -3.977  0.00  0.00     0.188 HD
BRANCH  17  19
HETATM   19  C   UNK N   1      26.302  25.266  -4.256  0.00  0.00     0.049 A 
HETATM   20  C   UNK N   1      25.550  25.457  -5.421  0.00  0.00     0.031 A 
HETATM   21  C   UNK N   1      24.980  26.706  -5.693  0.00  0.00     0.002 A 
HETATM   22  C   UNK N   1      25.154  27.767  -4.800  0.00  0.00     0.000 A 
HETATM   23  C   UNK N   1      25.895  27.581  -3.632  0.00  0.00     0.002 A 
HETATM   24  C   UNK N   1      26.458  26.334  -3.357  0.00  0.00     0.031 A 
ENDBRANCH  17  19
ENDBRANCH   6  17
TORSDOF 3
ENDMDL
MODEL 4
REMARK VINA RESULT:      -7.0      2.760      6.215
REMARK  3 active torsions:
REMARK  status: ('A' for Active; 'I' for Inactive)
REMARK    1  A    between atoms: C_9  and  C_8 
REMARK    2  A    between atoms: N_14  and  N_17 
REMARK    3  A    between atoms: N_17  and  C_18 
ROOT
HETATM    1  C   UNK N   1      32.969  17.093   7.301  0.00  0.00     0.181 A 
HETATM    2  C   UNK N   1      31.524  17.548   7.433  0.00  0.00     0.063 C 
HETATM    3  O   UNK N   1      33.811  18.218   7.265  0.00  0.00    -0.276 OA
HETATM    4  C   UNK N   1      34.597  18.244   8.363  0.00  0.00     0.390 A 
HETATM    5  O   UNK N   1      35.388  19.139   8.613  0.00  0.00    -0.236 OA
HETATM    6  N   UNK N   1      34.359  17.221   9.173  0.00  0.00    -0.162 N 
HETATM    7  C   UNK N   1      33.423  16.458   8.601  0.00  0.00     0.287 A 
HETATM    8  O   UNK N   1      32.984  15.429   9.096  0.00  0.00    -0.267 OA
ENDROOT
BRANCH   1   9
HETATM    9  C   UNK N   1      33.125  16.239   6.056  0.00  0.00     0.025 A 
HETATM   10  C   UNK N   1      34.345  15.592   5.756  0.00  0.00     0.129 A 
HETATM   11  F   UNK N   1      35.432  15.755   6.548  0.00  0.00    -0.205 F 
HETATM   12  C   UNK N   1      34.434  14.746   4.647  0.00  0.00     0.085 A 
HETATM   13  C   UNK N   1      33.321  14.536   3.829  0.00  0.00     0.119 A 
HETATM   14  F   UNK N   1      33.409  13.697   2.769  0.00  0.00    -0.206 F 
HETATM   15  C   UNK N   1      32.117  15.180   4.111  0.00  0.00     0.043 A 
HETATM   16  C   UNK N   1      32.018  16.026   5.217  0.00  0.00     0.017 A 
ENDBRANCH   1   9
BRANCH   6  17
HETATM   17  N   UNK N   1      34.925  17.054  10.421  0.00  0.00    -0.287 N 
HETATM   18  H   UNK N   1      34.877  17.792  11.071  0.00  0.00     0.188 HD
BRANCH  17  19
HETATM   19  C   UNK N   1      35.575  15.844  10.792  0.00  0.00     0.049 A 
HETATM   20  C   UNK N   1      36.408  15.197   9.872  0.00  0.00     0.031 A 
HETATM   21  C   UNK N   1      37.114  14.049  10.249  0.00  0.00     0.002 A 
HETATM   22  C   UNK N   1      36.995  13.546  11.548  0.00  0.00     0.000 A 
HETATM   23  C   UNK N   1      36.173  14.191  12.473  0.00  0.00     0.002 A 
HETATM   24  C   UNK N   1      35.475  15.340  12.099  0.00  0.00     0.031 A 
ENDBRANCH  17  19
ENDBRANCH   6  17
TORSDOF 3
ENDMDL
MODEL 5
REMARK VINA RESULT:      -7.0     11.342     12.954
REMARK  3 active torsions:
REMARK  status: ('A' for Active; 'I' for Inactive)
REMARK    1  A    between atoms: C_9  and  C_8 
REMARK    2  A    between atoms: N_14  and  N_17 
REMARK    3  A    between atoms: N_17  and  C_18 
ROOT
HETATM    1  C   UNK N   1      20.715  15.387   7.818  0.00  0.00     0.181 A 
HETATM    2  C   UNK N   1      20.417  16.607   8.677  0.00  0.00     0.063 C 
HETATM    3  O   UNK N   1      19.533  14.957   7.191  0.00  0.00    -0.276 OA
HETATM    4  C   UNK N   1      19.631  15.121   5.854  0.00  0.00     0.390 A 
HETATM    5  O   UNK N   1      18.728  14.875   5.071  0.00  0.00    -0.236 OA
HETATM    6  N   UNK N   1      20.796  15.645   5.498  0.00  0.00    -0.162 N 
HETATM    7  C   UNK N   1      21.526  15.805   6.606  0.00  0.00     0.287 A 
HETATM    8  O   UNK N   1      22.659  16.265   6.617  0.00  0.00    -0.267 OA
ENDROOT
BRANCH   1   9
HETATM    9  C   UNK N   1      21.322  14.293   8.676  0.00  0.00     0.025 A 
HETATM   10  C   UNK N   1      20.629  13.758   9.784  0.00  0.00     0.129 A 
HETATM   11  F   UNK N   1      19.415  14.242  10.146  0.00  0.00    -0.205 F 
HETATM   12  C   UNK N   1      21.177  12.693  10.506  0.00  0.00     0.085 A 
HETATM   13  C   UNK N   1      22.412  12.154  10.138  0.00  0.00     0.119 A 
HETATM   14  F   UNK N   1      22.927  11.108  10.828  0.00  0.00    -0.206 F 
HETATM   15  C   UNK N   1      23.110  12.685   9.053  0.00  0.00     0.043 A 
HETATM   16  C   UNK N   1      22.569  13.747   8.326  0.00  0.00     0.017 A 
ENDBRANCH   1   9
BRANCH   6  17
HETATM   17  N   UNK N   1      21.129  16.032   4.216  0.00  0.00    -0.287 N 
HETATM   18  H   UNK N   1      21.507  15.366   3.597  0.00  0.00     0.188 HD
BRANCH  17  19
HETATM   19  C   UNK N   1      20.939  17.368   3.765  0.00  0.00     0.049 A 
HETATM   20  C   UNK N   1      22.013  18.265   3.792  0.00  0.00     0.031 A 
HETATM   21  C   UNK N   1      21.861  19.559   3.280  0.00  0.00     0.002 A 
HETATM   22  C   UNK N   1      20.637  19.961   2.737  0.00  0.00     0.000 A 
HETATM   23  C   UNK N   1      19.565  19.068   2.699  0.00  0.00     0.002 A 
HETATM   24  C   UNK N   1      19.718  17.776   3.202  0.00  0.00     0.031 A 
ENDBRANCH  17  19
ENDBRANCH   6  17
TORSDOF 3
ENDMDL
MODEL 6
REMARK VINA RESULT:      -6.8     16.041     18.910
REMARK  3 active torsions:
REMARK  status: ('A' for Active; 'I' for Inactive)
REMARK    1  A    between atoms: C_9  and  C_8 
REMARK    2  A    between atoms: N_14  and  N_17 
REMARK    3  A    between atoms: N_17  and  C_18 
ROOT
HETATM    1  C   UNK N   1      26.250  25.799  -7.056  0.00  0.00     0.181 A 
HETATM    2  C   UNK N   1      25.840  26.371  -8.405  0.00  0.00     0.063 C 
HETATM    3  O   UNK N   1      25.337  24.800  -6.675  0.00  0.00    -0.276 OA
HETATM    4  C   UNK N   1      25.950  23.598  -6.646  0.00  0.00     0.390 A 
HETATM    5  O   UNK N   1      25.378  22.549  -6.395  0.00  0.00    -0.236 OA
HETATM    6  N   UNK N   1      27.228  23.679  -6.989  0.00  0.00    -0.162 N 
HETATM    7  C   UNK N   1      27.507  24.966  -7.218  0.00  0.00     0.287 A 
HETATM    8  O   UNK N   1      28.610  25.377  -7.551  0.00  0.00    -0.267 OA
ENDROOT
BRANCH   1   9
HETATM    9  C   UNK N   1      26.320  26.913  -6.028  0.00  0.00     0.025 A 
HETATM   10  C   UNK N   1      27.056  28.093  -6.272  0.00  0.00     0.129 A 
HETATM   11  F   UNK N   1      27.766  28.247  -7.417  0.00  0.00    -0.205 F 
HETATM   12  C   UNK N   1      27.036  29.137  -5.342  0.00  0.00     0.085 A 
HETATM   13  C   UNK N   1      26.290  29.018  -4.166  0.00  0.00     0.119 A 
HETATM   14  F   UNK N   1      26.256  30.042  -3.280  0.00  0.00    -0.206 F 
HETATM   15  C   UNK N   1      25.570  27.851  -3.912  0.00  0.00     0.043 A 
HETATM   16  C   UNK N   1      25.585  26.804  -4.836  0.00  0.00     0.017 A 
ENDBRANCH   1   9
BRANCH   6  17
HETATM   17  N   UNK N   1      28.070  22.599  -7.162  0.00  0.00    -0.287 N 
HETATM   18  H   UNK N   1      28.048  22.107  -8.015  0.00  0.00     0.188 HD
BRANCH  17  19
HETATM   19  C   UNK N   1      28.966  22.178  -6.141  0.00  0.00     0.049 A 
HETATM   20  C   UNK N   1      29.776  21.056  -6.352  0.00  0.00     0.031 A 
HETATM   21  C   UNK N   1      30.717  20.677  -5.388  0.00  0.00     0.002 A 
HETATM   22  C   UNK N   1      30.855  21.418  -4.211  0.00  0.00     0.000 A 
HETATM   23  C   UNK N   1      30.057  22.543  -3.998  0.00  0.00     0.002 A 
HETATM   24  C   UNK N   1      29.124  22.926  -4.963  0.00  0.00     0.031 A 
ENDBRANCH  17  19
ENDBRANCH   6  17
TORSDOF 3
ENDMDL
MODEL 7
REMARK VINA RESULT:      -6.8      2.564      4.018
REMARK  3 active torsions:
REMARK  status: ('A' for Active; 'I' for Inactive)
REMARK    1  A    between atoms: C_9  and  C_8 
REMARK    2  A    between atoms: N_14  and  N_17 
REMARK    3  A    between atoms: N_17  and  C_18 
ROOT
HETATM    1  C   UNK N   1      35.264  14.690  10.580  0.00  0.00     0.181 A 
HETATM    2  C   UNK N   1      35.325  14.730  12.099  0.00  0.00     0.063 C 
HETATM    3  O   UNK N   1      34.126  13.970  10.177  0.00  0.00    -0.276 OA
HETATM    4  C   UNK N   1      33.258  14.790   9.546  0.00  0.00     0.390 A 
HETATM    5  O   UNK N   1      32.163  14.437   9.137  0.00  0.00    -0.236 OA
HETATM    6  N   UNK N   1      33.702  16.038   9.486  0.00  0.00    -0.162 N 
HETATM    7  C   UNK N   1      34.914  16.066  10.048  0.00  0.00     0.287 A 
HETATM    8  O   UNK N   1      35.598  17.075  10.147  0.00  0.00    -0.267 OA
ENDROOT
BRANCH   1   9
HETATM    9  C   UNK N   1      36.537  14.072  10.032  0.00  0.00     0.025 A 
HETATM   10  C   UNK N   1      36.810  14.055   8.647  0.00  0.00     0.129 A 
HETATM   11  F   UNK N   1      35.916  14.549   7.755  0.00  0.00    -0.205 F 
HETATM   12  C   UNK N   1      38.028  13.553   8.178  0.00  0.00     0.085 A 
HETATM   13  C   UNK N   1      38.981  13.065   9.075  0.00  0.00     0.119 A 
HETATM   14  F   UNK N   1      40.168  12.602   8.616  0.00  0.00    -0.206 F 
HETATM   15  C   UNK N   1      38.715  13.067  10.445  0.00  0.00     0.043 A 
HETATM   16  C   UNK N   1      37.501  13.566  10.921  0.00  0.00     0.017 A 
ENDBRANCH   1   9
BRANCH   6  17
HETATM   17  N   UNK N   1      32.979  17.111   9.007  0.00  0.00    -0.287 N 
HETATM   18  H   UNK N   1      32.648  17.787   9.642  0.00  0.00     0.188 HD
BRANCH  17  19
HETATM   19  C   UNK N   1      32.698  17.266   7.621  0.00  0.00     0.049 A 
HETATM   20  C   UNK N   1      33.752  17.421   6.715  0.00  0.00     0.031 A 
HETATM   21  C   UNK N   1      33.494  17.497   5.341  0.00  0.00     0.002 A 
HETATM   22  C   UNK N   1      32.181  17.413   4.867  0.00  0.00     0.000 A 
HETATM   23  C   UNK N   1      31.125  17.249   5.765  0.00  0.00     0.002 A 
HETATM   24  C   UNK N   1      31.384  17.166   7.134  0.00  0.00     0.031 A 
ENDBRANCH  17  19
ENDBRANCH   6  17
TORSDOF 3
ENDMDL
MODEL 8
REMARK VINA RESULT:      -6.6     15.764     18.443
REMARK  3 active torsions:
REMARK  status: ('A' for Active; 'I' for Inactive)
REMARK    1  A    between atoms: C_9  and  C_8 
REMARK    2  A    between atoms: N_14  and  N_17 
REMARK    3  A    between atoms: N_17  and  C_18 
ROOT
HETATM    1  C   UNK N   1      26.203  25.366  -6.879  0.00  0.00     0.181 A 
HETATM    2  C   UNK N   1      25.792  26.120  -8.135  0.00  0.00     0.063 C 
HETATM    3  O   UNK N   1      25.297  24.317  -6.647  0.00  0.00    -0.276 OA
HETATM    4  C   UNK N   1      25.920  23.127  -6.786  0.00  0.00     0.390 A 
HETATM    5  O   UNK N   1      25.356  22.049  -6.689  0.00  0.00    -0.236 OA
HETATM    6  N   UNK N   1      27.199  23.266  -7.109  0.00  0.00    -0.162 N 
HETATM    7  C   UNK N   1      27.467  24.574  -7.152  0.00  0.00     0.287 A 
HETATM    8  O   UNK N   1      28.567  25.038  -7.420  0.00  0.00    -0.267 OA
ENDROOT
BRANCH   1   9
HETATM    9  C   UNK N   1      26.261  26.324  -5.703  0.00  0.00     0.025 A 
HETATM   10  C   UNK N   1      26.336  25.853  -4.374  0.00  0.00     0.129 A 
HETATM   11  F   UNK N   1      26.309  24.524  -4.104  0.00  0.00    -0.205 F 
HETATM   12  C   UNK N   1      26.473  26.757  -3.316  0.00  0.00     0.085 A 
HETATM   13  C   UNK N   1      26.533  28.130  -3.567  0.00  0.00     0.119 A 
HETATM   14  F   UNK N   1      26.688  28.999  -2.539  0.00  0.00    -0.206 F 
HETATM   15  C   UNK N   1      26.448  28.605  -4.875  0.00  0.00     0.043 A 
HETATM   16  C   UNK N   1      26.312  27.708  -5.938  0.00  0.00     0.017 A 
ENDBRANCH   1   9
BRANCH   6  17
HETATM   17  N   UNK N   1      28.049  22.228  -7.431  0.00  0.00    -0.287 N 
HETATM   18  H   UNK N   1      27.944  21.775  -8.298  0.00  0.00     0.188 HD
BRANCH  17  19
HETATM   19  C   UNK N   1      29.071  21.796  -6.541  0.00  0.00     0.049 A 
HETATM   20  C   UNK N   1      29.232  22.437  -5.308  0.00  0.00     0.031 A 
HETATM   21  C   UNK N   1      30.183  21.973  -4.392  0.00  0.00     0.002 A 
HETATM   22  C   UNK N   1      30.974  20.863  -4.703  0.00  0.00     0.000 A 
HETATM   23  C   UNK N   1      30.814  20.213  -5.927  0.00  0.00     0.002 A 
HETATM   24  C   UNK N   1      29.860  20.672  -6.838  0.00  0.00     0.031 A 
ENDBRANCH  17  19
ENDBRANCH   6  17
TORSDOF 3
ENDMDL
MODEL 9
REMARK VINA RESULT:      -6.5     17.161     19.112
REMARK  3 active torsions:
REMARK  status: ('A' for Active; 'I' for Inactive)
REMARK    1  A    between atoms: C_9  and  C_8 
REMARK    2  A    between atoms: N_14  and  N_17 
REMARK    3  A    between atoms: N_17  and  C_18 
ROOT
HETATM    1  C   UNK N   1      26.409  27.003  -4.854  0.00  0.00     0.181 A 
HETATM    2  C   UNK N   1      25.371  28.026  -4.417  0.00  0.00     0.063 C 
HETATM    3  O   UNK N   1      26.744  26.183  -3.763  0.00  0.00    -0.276 OA
HETATM    4  C   UNK N   1      26.340  24.915  -3.994  0.00  0.00     0.390 A 
HETATM    5  O   UNK N   1      26.460  24.005  -3.189  0.00  0.00    -0.236 OA
HETATM    6  N   UNK N   1      25.735  24.788  -5.167  0.00  0.00    -0.162 N 
HETATM    7  C   UNK N   1      25.761  25.981  -5.769  0.00  0.00     0.287 A 
HETATM    8  O   UNK N   1      25.286  26.199  -6.875  0.00  0.00    -0.267 OA
ENDROOT
BRANCH   1   9
HETATM    9  C   UNK N   1      27.627  27.715  -5.412  0.00  0.00     0.025 A 
HETATM   10  C   UNK N   1      28.805  27.009  -5.742  0.00  0.00     0.129 A 
HETATM   11  F   UNK N   1      28.901  25.675  -5.524  0.00  0.00    -0.205 F 
HETATM   12  C   UNK N   1      29.881  27.679  -6.332  0.00  0.00     0.085 A 
HETATM   13  C   UNK N   1      29.800  29.048  -6.596  0.00  0.00     0.119 A 
HETATM   14  F   UNK N   1      30.838  29.686  -7.189  0.00  0.00    -0.206 F 
HETATM   15  C   UNK N   1      28.645  29.756  -6.263  0.00  0.00     0.043 A 
HETATM   16  C   UNK N   1      27.565  29.094  -5.674  0.00  0.00     0.017 A 
ENDBRANCH   1   9
BRANCH   6  17
HETATM   17  N   UNK N   1      25.116  23.640  -5.616  0.00  0.00    -0.287 N 
HETATM   18  H   UNK N   1      24.200  23.441  -5.315  0.00  0.00     0.188 HD
BRANCH  17  19
HETATM   19  C   UNK N   1      25.766  22.736  -6.501  0.00  0.00     0.049 A 
HETATM   20  C   UNK N   1      25.009  21.796  -7.208  0.00  0.00     0.031 A 
HETATM   21  C   UNK N   1      25.626  20.952  -8.139  0.00  0.00     0.002 A 
HETATM   22  C   UNK N   1      27.001  21.048  -8.371  0.00  0.00     0.000 A 
HETATM   23  C   UNK N   1      27.761  21.990  -7.677  0.00  0.00     0.002 A 
HETATM   24  C   UNK N   1      27.145  22.836  -6.753  0.00  0.00     0.031 A 
ENDBRANCH  17  19
ENDBRANCH   6  17
TORSDOF 3
ENDMDL
