MODEL 1
REMARK VINA RESULT:      -8.1      0.000      0.000
REMARK  5 active torsions:
REMARK  status: ('A' for Active; 'I' for Inactive)
REMARK    1  A    between atoms: C_1  and  O_2 
REMARK    2  A    between atoms: C_8  and  O_9 
REMARK    3  A    between atoms: C_13  and  C_17 
REMARK    4  A    between atoms: C_22  and  C_23 
REMARK    5  A    between atoms: C_23  and  O_25 
ROOT
HETATM    1  C   UNK N   1      28.385  18.720   8.197  0.00  0.00     0.068 A 
HETATM    2  C   UNK N   1      28.526  17.794   7.169  0.00  0.00     0.074 A 
HETATM    3  C   UNK N   1      29.690  17.033   7.059  0.00  0.00     0.086 A 
HETATM    4  O   UNK N   1      29.799  16.197   6.004  0.00  0.00    -0.309 OA
HETATM    5  C   UNK N   1      30.934  15.563   5.666  0.00  0.00     0.086 A 
HETATM    6  C   UNK N   1      31.000  14.944   4.408  0.00  0.00     0.074 A 
HETATM    7  C   UNK N   1      32.162  14.299   3.996  0.00  0.00     0.068 A 
HETATM    8  C   UNK N   1      33.264  14.250   4.843  0.00  0.00     0.037 A 
HETATM    9  C   UNK N   1      33.199  14.853   6.099  0.00  0.00     0.014 A 
HETATM   10  C   UNK N   1      32.047  15.531   6.537  0.00  0.00    -0.011 A 
HETATM   11  C   UNK N   1      31.961  16.233   7.921  0.00  0.00     0.091 C 
HETATM   12  C   UNK N   1      30.737  17.163   8.008  0.00  0.00    -0.011 A 
HETATM   13  C   UNK N   1      30.600  18.156   8.990  0.00  0.00     0.014 A 
HETATM   14  C   UNK N   1      29.432  18.918   9.095  0.00  0.00     0.037 A 
ENDROOT
BRANCH  11  15
HETATM   15  C   UNK N   1      33.184  16.166   8.919  0.00  0.00    -0.028 A 
HETATM   16  C   UNK N   1      33.119  15.157   9.901  0.00  0.00     0.009 A 
HETATM   17  C   UNK N   1      34.102  14.944  10.858  0.00  0.00     0.001 A 
HETATM   18  C   UNK N   1      35.242  15.723  10.851  0.00  0.00     0.001 A 
HETATM   19  C   UNK N   1      35.370  16.734   9.910  0.00  0.00     0.019 A 
HETATM   20  C   UNK N   1      34.367  17.008   8.958  0.00  0.00     0.045 A 
BRANCH  20  21
HETATM   21  C   UNK N   1      34.630  18.218   8.146  0.00  0.00     0.176 C 
HETATM   22  O   UNK N   1      34.385  18.205   6.945  0.00  0.00    -0.646 OA
BRANCH  21  23
HETATM   23  O   UNK N   1      35.308  19.258   8.657  0.00  0.00    -0.773 OA
HETATM   24  H   UNK N   1      35.739  20.014   8.309  0.00  0.00     0.167 HD
ENDBRANCH  21  23
ENDBRANCH  20  21
ENDBRANCH  11  15
BRANCH   7  25
HETATM   25  O   UNK N   1      32.222  13.728   2.782  0.00  0.00    -0.361 OA
HETATM   26  H   UNK N   1      32.595  14.197   2.062  0.00  0.00     0.217 HD
ENDBRANCH   7  25
BRANCH   1  27
HETATM   27  O   UNK N   1      27.247  19.425   8.313  0.00  0.00    -0.361 OA
HETATM   28  H   UNK N   1      26.520  19.236   7.753  0.00  0.00     0.217 HD
ENDBRANCH   1  27
TORSDOF 5
ENDMDL
MODEL 2
REMARK VINA RESULT:      -7.8      0.722      4.533
REMARK  5 active torsions:
REMARK  status: ('A' for Active; 'I' for Inactive)
REMARK    1  A    between atoms: C_1  and  O_2 
REMARK    2  A    between atoms: C_8  and  O_9 
REMARK    3  A    between atoms: C_13  and  C_17 
REMARK    4  A    between atoms: C_22  and  C_23 
REMARK    5  A    between atoms: C_23  and  O_25 
ROOT
HETATM    1  C   UNK N   1      30.974  13.859   3.868  0.00  0.00     0.068 A 
HETATM    2  C   UNK N   1      30.164  14.949   4.166  0.00  0.00     0.074 A 
HETATM    3  C   UNK N   1      30.371  15.685   5.334  0.00  0.00     0.086 A 
HETATM    4  O   UNK N   1      29.514  16.693   5.603  0.00  0.00    -0.309 OA
HETATM    5  C   UNK N   1      29.473  17.345   6.777  0.00  0.00     0.086 A 
HETATM    6  C   UNK N   1      28.372  18.176   7.037  0.00  0.00     0.074 A 
HETATM    7  C   UNK N   1      28.265  18.852   8.248  0.00  0.00     0.068 A 
HETATM    8  C   UNK N   1      29.264  18.718   9.206  0.00  0.00     0.037 A 
HETATM    9  C   UNK N   1      30.366  17.902   8.948  0.00  0.00     0.014 A 
HETATM   10  C   UNK N   1      30.493  17.190   7.743  0.00  0.00    -0.011 A 
HETATM   11  C   UNK N   1      31.699  16.254   7.444  0.00  0.00     0.091 C 
HETATM   12  C   UNK N   1      31.429  15.358   6.222  0.00  0.00    -0.011 A 
HETATM   13  C   UNK N   1      32.183  14.210   5.934  0.00  0.00     0.014 A 
HETATM   14  C   UNK N   1      31.969  13.474   4.764  0.00  0.00     0.037 A 
ENDROOT
BRANCH  11  15
HETATM   15  C   UNK N   1      32.866  16.107   8.498  0.00  0.00    -0.028 A 
HETATM   16  C   UNK N   1      32.712  15.073   9.443  0.00  0.00     0.009 A 
HETATM   17  C   UNK N   1      33.636  14.792  10.440  0.00  0.00     0.001 A 
HETATM   18  C   UNK N   1      34.805  15.523  10.514  0.00  0.00     0.001 A 
HETATM   19  C   UNK N   1      35.020  16.555   9.613  0.00  0.00     0.019 A 
HETATM   20  C   UNK N   1      34.078  16.898   8.622  0.00  0.00     0.045 A 
BRANCH  20  21
HETATM   21  C   UNK N   1      34.429  18.120   7.862  0.00  0.00     0.176 C 
HETATM   22  O   UNK N   1      34.369  18.108   6.638  0.00  0.00    -0.646 OA
BRANCH  21  23
HETATM   23  O   UNK N   1      34.994  19.173   8.474  0.00  0.00    -0.773 OA
HETATM   24  H   UNK N   1      35.712  19.749   8.292  0.00  0.00     0.167 HD
ENDBRANCH  21  23
ENDBRANCH  20  21
ENDBRANCH  11  15
BRANCH   7  25
HETATM   25  O   UNK N   1      27.197  19.629   8.495  0.00  0.00    -0.361 OA
HETATM   26  H   UNK N   1      26.784  19.604   9.336  0.00  0.00     0.217 HD
ENDBRANCH   7  25
BRANCH   1  27
HETATM   27  O   UNK N   1      30.786  13.176   2.726  0.00  0.00    -0.361 OA
HETATM   28  H   UNK N   1      31.224  13.445   1.942  0.00  0.00     0.217 HD
ENDBRANCH   1  27
TORSDOF 5
ENDMDL
MODEL 3
REMARK VINA RESULT:      -7.5      3.991      6.660
REMARK  5 active torsions:
REMARK  status: ('A' for Active; 'I' for Inactive)
REMARK    1  A    between atoms: C_1  and  O_2 
REMARK    2  A    between atoms: C_8  and  O_9 
REMARK    3  A    between atoms: C_13  and  C_17 
REMARK    4  A    between atoms: C_22  and  C_23 
REMARK    5  A    between atoms: C_23  and  O_25 
ROOT
HETATM    1  C   UNK N   1      23.974  14.195   6.759  0.00  0.00     0.068 A 
HETATM    2  C   UNK N   1      23.819  15.102   5.717  0.00  0.00     0.074 A 
HETATM    3  C   UNK N   1      24.828  16.022   5.425  0.00  0.00     0.086 A 
HETATM    4  O   UNK N   1      24.596  16.920   4.444  0.00  0.00    -0.309 OA
HETATM    5  C   UNK N   1      25.387  17.978   4.198  0.00  0.00     0.086 A 
HETATM    6  C   UNK N   1      24.905  18.983   3.345  0.00  0.00     0.074 A 
HETATM    7  C   UNK N   1      25.670  20.114   3.079  0.00  0.00     0.068 A 
HETATM    8  C   UNK N   1      26.932  20.246   3.649  0.00  0.00     0.037 A 
HETATM    9  C   UNK N   1      27.420  19.244   4.489  0.00  0.00     0.014 A 
HETATM   10  C   UNK N   1      26.664  18.099   4.793  0.00  0.00    -0.011 A 
HETATM   11  C   UNK N   1      27.176  16.982   5.747  0.00  0.00     0.091 C 
HETATM   12  C   UNK N   1      26.041  16.029   6.162  0.00  0.00    -0.011 A 
HETATM   13  C   UNK N   1      26.139  15.154   7.255  0.00  0.00     0.014 A 
HETATM   14  C   UNK N   1      25.125  14.237   7.544  0.00  0.00     0.037 A 
ENDROOT
BRANCH  11  15
HETATM   15  C   UNK N   1      28.618  17.087   6.383  0.00  0.00    -0.028 A 
HETATM   16  C   UNK N   1      29.679  16.633   5.573  0.00  0.00     0.009 A 
HETATM   17  C   UNK N   1      31.012  16.652   5.961  0.00  0.00     0.001 A 
HETATM   18  C   UNK N   1      31.357  17.176   7.191  0.00  0.00     0.001 A 
HETATM   19  C   UNK N   1      30.361  17.640   8.037  0.00  0.00     0.019 A 
HETATM   20  C   UNK N   1      28.996  17.588   7.693  0.00  0.00     0.045 A 
BRANCH  20  21
HETATM   21  C   UNK N   1      28.087  17.993   8.790  0.00  0.00     0.176 C 
HETATM   22  O   UNK N   1      27.864  17.214   9.709  0.00  0.00    -0.646 OA
BRANCH  21  23
HETATM   23  O   UNK N   1      27.354  19.115   8.699  0.00  0.00    -0.773 OA
HETATM   24  H   UNK N   1      27.495  20.024   8.877  0.00  0.00     0.167 HD
ENDBRANCH  21  23
ENDBRANCH  20  21
ENDBRANCH  11  15
BRANCH   7  25
HETATM   25  O   UNK N   1      25.191  21.080   2.278  0.00  0.00    -0.361 OA
HETATM   26  H   UNK N   1      25.225  21.975   2.553  0.00  0.00     0.217 HD
ENDBRANCH   7  25
BRANCH   1  27
HETATM   27  O   UNK N   1      23.010  13.293   7.012  0.00  0.00    -0.361 OA
HETATM   28  H   UNK N   1      22.231  13.554   7.461  0.00  0.00     0.217 HD
ENDBRANCH   1  27
TORSDOF 5
ENDMDL
MODEL 4
REMARK VINA RESULT:      -7.4     14.410     16.681
REMARK  5 active torsions:
REMARK  status: ('A' for Active; 'I' for Inactive)
REMARK    1  A    between atoms: C_1  and  O_2 
REMARK    2  A    between atoms: C_8  and  O_9 
REMARK    3  A    between atoms: C_13  and  C_17 
REMARK    4  A    between atoms: C_22  and  C_23 
REMARK    5  A    between atoms: C_23  and  O_25 
ROOT
HETATM    1  C   UNK N   1      30.845  22.634  -3.225  0.00  0.00     0.068 A 
HETATM    2  C   UNK N   1      30.182  22.057  -4.303  0.00  0.00     0.074 A 
HETATM    3  C   UNK N   1      29.305  22.814  -5.080  0.00  0.00     0.086 A 
HETATM    4  O   UNK N   1      28.641  22.185  -6.074  0.00  0.00    -0.309 OA
HETATM    5  C   UNK N   1      27.628  22.737  -6.762  0.00  0.00     0.086 A 
HETATM    6  C   UNK N   1      26.844  21.901  -7.573  0.00  0.00     0.074 A 
HETATM    7  C   UNK N   1      25.763  22.415  -8.284  0.00  0.00     0.068 A 
HETATM    8  C   UNK N   1      25.465  23.771  -8.205  0.00  0.00     0.037 A 
HETATM    9  C   UNK N   1      26.248  24.607  -7.409  0.00  0.00     0.014 A 
HETATM   10  C   UNK N   1      27.333  24.116  -6.663  0.00  0.00    -0.011 A 
HETATM   11  C   UNK N   1      28.204  25.023  -5.748  0.00  0.00     0.091 C 
HETATM   12  C   UNK N   1      29.094  24.191  -4.808  0.00  0.00    -0.011 A 
HETATM   13  C   UNK N   1      29.716  24.728  -3.671  0.00  0.00     0.014 A 
HETATM   14  C   UNK N   1      30.593  23.964  -2.894  0.00  0.00     0.037 A 
ENDROOT
BRANCH  11  15
HETATM   15  C   UNK N   1      27.911  26.574  -5.664  0.00  0.00    -0.028 A 
HETATM   16  C   UNK N   1      28.592  27.377  -6.600  0.00  0.00     0.009 A 
HETATM   17  C   UNK N   1      28.457  28.757  -6.680  0.00  0.00     0.001 A 
HETATM   18  C   UNK N   1      27.581  29.407  -5.833  0.00  0.00     0.001 A 
HETATM   19  C   UNK N   1      26.879  28.674  -4.888  0.00  0.00     0.019 A 
HETATM   20  C   UNK N   1      27.033  27.280  -4.749  0.00  0.00     0.045 A 
BRANCH  20  21
HETATM   21  C   UNK N   1      26.310  26.712  -3.587  0.00  0.00     0.176 C 
HETATM   22  O   UNK N   1      25.904  27.459  -2.704  0.00  0.00    -0.646 OA
BRANCH  21  23
HETATM   23  O   UNK N   1      26.260  25.385  -3.388  0.00  0.00    -0.773 OA
HETATM   24  H   UNK N   1      26.881  24.715  -3.180  0.00  0.00     0.167 HD
ENDBRANCH  21  23
ENDBRANCH  20  21
ENDBRANCH  11  15
BRANCH   7  25
HETATM   25  O   UNK N   1      25.006  21.604  -9.041  0.00  0.00    -0.361 OA
HETATM   26  H   UNK N   1      24.072  21.650  -8.987  0.00  0.00     0.217 HD
ENDBRANCH   7  25
BRANCH   1  27
HETATM   27  O   UNK N   1      31.711  21.905  -2.502  0.00  0.00    -0.361 OA
HETATM   28  H   UNK N   1      31.660  21.909  -1.567  0.00  0.00     0.217 HD
ENDBRANCH   1  27
TORSDOF 5
ENDMDL
MODEL 5
REMARK VINA RESULT:      -7.2     14.239     17.142
REMARK  5 active torsions:
REMARK  status: ('A' for Active; 'I' for Inactive)
REMARK    1  A    between atoms: C_1  and  O_2 
REMARK    2  A    between atoms: C_8  and  O_9 
REMARK    3  A    between atoms: C_13  and  C_17 
REMARK    4  A    between atoms: C_22  and  C_23 
REMARK    5  A    between atoms: C_23  and  O_25 
ROOT
HETATM    1  C   UNK N   1      30.624  22.297  -3.151  0.00  0.00     0.068 A 
HETATM    2  C   UNK N   1      29.658  23.237  -2.808  0.00  0.00     0.074 A 
HETATM    3  C   UNK N   1      28.734  23.677  -3.757  0.00  0.00     0.086 A 
HETATM    4  O   UNK N   1      27.859  24.638  -3.386  0.00  0.00    -0.309 OA
HETATM    5  C   UNK N   1      27.059  25.291  -4.243  0.00  0.00     0.086 A 
HETATM    6  C   UNK N   1      26.400  26.444  -3.789  0.00  0.00     0.074 A 
HETATM    7  C   UNK N   1      25.582  27.176  -4.645  0.00  0.00     0.068 A 
HETATM    8  C   UNK N   1      25.399  26.754  -5.957  0.00  0.00     0.037 A 
HETATM    9  C   UNK N   1      26.043  25.602  -6.410  0.00  0.00     0.014 A 
HETATM   10  C   UNK N   1      26.892  24.853  -5.577  0.00  0.00    -0.011 A 
HETATM   11  C   UNK N   1      27.641  23.580  -6.066  0.00  0.00     0.091 C 
HETATM   12  C   UNK N   1      28.740  23.155  -5.076  0.00  0.00    -0.011 A 
HETATM   13  C   UNK N   1      29.771  22.265  -5.415  0.00  0.00     0.014 A 
HETATM   14  C   UNK N   1      30.696  21.829  -4.461  0.00  0.00     0.037 A 
ENDROOT
BRANCH  11  15
HETATM   15  C   UNK N   1      27.428  23.057  -7.542  0.00  0.00    -0.028 A 
HETATM   16  C   UNK N   1      28.510  23.251  -8.423  0.00  0.00     0.009 A 
HETATM   17  C   UNK N   1      28.507  22.852  -9.753  0.00  0.00     0.001 A 
HETATM   18  C   UNK N   1      27.409  22.188 -10.264  0.00  0.00     0.001 A 
HETATM   19  C   UNK N   1      26.309  21.965  -9.449  0.00  0.00     0.019 A 
HETATM   20  C   UNK N   1      26.263  22.402  -8.110  0.00  0.00     0.045 A 
BRANCH  20  21
HETATM   21  C   UNK N   1      24.947  22.198  -7.461  0.00  0.00     0.176 C 
HETATM   22  O   UNK N   1      24.886  22.082  -6.242  0.00  0.00    -0.646 OA
BRANCH  21  23
HETATM   23  O   UNK N   1      23.850  21.943  -8.192  0.00  0.00    -0.773 OA
HETATM   24  H   UNK N   1      23.157  21.311  -8.165  0.00  0.00     0.167 HD
ENDBRANCH  21  23
ENDBRANCH  20  21
ENDBRANCH  11  15
BRANCH   7  25
HETATM   25  O   UNK N   1      24.972  28.290  -4.207  0.00  0.00    -0.361 OA
HETATM   26  H   UNK N   1      24.434  28.259  -3.440  0.00  0.00     0.217 HD
ENDBRANCH   7  25
BRANCH   1  27
HETATM   27  O   UNK N   1      31.489  21.856  -2.223  0.00  0.00    -0.361 OA
HETATM   28  H   UNK N   1      32.124  21.205  -2.446  0.00  0.00     0.217 HD
ENDBRANCH   1  27
TORSDOF 5
ENDMDL
MODEL 6
REMARK VINA RESULT:      -7.2     14.557     17.062
REMARK  5 active torsions:
REMARK  status: ('A' for Active; 'I' for Inactive)
REMARK    1  A    between atoms: C_1  and  O_2 
REMARK    2  A    between atoms: C_8  and  O_9 
REMARK    3  A    between atoms: C_13  and  C_17 
REMARK    4  A    between atoms: C_22  and  C_23 
REMARK    5  A    between atoms: C_23  and  O_25 
ROOT
HETATM    1  C   UNK N   1      25.776  27.281  -4.054  0.00  0.00     0.068 A 
HETATM    2  C   UNK N   1      26.859  26.552  -3.575  0.00  0.00     0.074 A 
HETATM    3  C   UNK N   1      27.418  25.531  -4.345  0.00  0.00     0.086 A 
HETATM    4  O   UNK N   1      28.427  24.815  -3.803  0.00  0.00    -0.309 OA
HETATM    5  C   UNK N   1      28.916  23.686  -4.343  0.00  0.00     0.086 A 
HETATM    6  C   UNK N   1      29.765  22.889  -3.560  0.00  0.00     0.074 A 
HETATM    7  C   UNK N   1      30.277  21.696  -4.059  0.00  0.00     0.068 A 
HETATM    8  C   UNK N   1      29.960  21.294  -5.353  0.00  0.00     0.037 A 
HETATM    9  C   UNK N   1      29.125  22.089  -6.139  0.00  0.00     0.014 A 
HETATM   10  C   UNK N   1      28.576  23.289  -5.656  0.00  0.00    -0.011 A 
HETATM   11  C   UNK N   1      27.623  24.178  -6.505  0.00  0.00     0.091 C 
HETATM   12  C   UNK N   1      26.916  25.236  -5.639  0.00  0.00    -0.011 A 
HETATM   13  C   UNK N   1      25.777  25.936  -6.065  0.00  0.00     0.014 A 
HETATM   14  C   UNK N   1      25.218  26.957  -5.290  0.00  0.00     0.037 A 
ENDROOT
BRANCH  11  15
HETATM   15  C   UNK N   1      27.271  23.766  -7.989  0.00  0.00    -0.028 A 
HETATM   16  C   UNK N   1      28.141  24.255  -8.984  0.00  0.00     0.009 A 
HETATM   17  C   UNK N   1      27.994  23.993 -10.339  0.00  0.00     0.001 A 
HETATM   18  C   UNK N   1      26.967  23.176 -10.768  0.00  0.00     0.001 A 
HETATM   19  C   UNK N   1      26.074  22.661  -9.841  0.00  0.00     0.019 A 
HETATM   20  C   UNK N   1      26.167  22.950  -8.464  0.00  0.00     0.045 A 
BRANCH  20  21
HETATM   21  C   UNK N   1      25.035  22.427  -7.666  0.00  0.00     0.176 C 
HETATM   22  O   UNK N   1      25.156  22.305  -6.452  0.00  0.00    -0.646 OA
BRANCH  21  23
HETATM   23  O   UNK N   1      23.952  21.905  -8.265  0.00  0.00    -0.773 OA
HETATM   24  H   UNK N   1      23.025  22.029  -8.201  0.00  0.00     0.167 HD
ENDBRANCH  21  23
ENDBRANCH  20  21
ENDBRANCH  11  15
BRANCH   7  25
HETATM   25  O   UNK N   1      31.072  20.929  -3.294  0.00  0.00    -0.361 OA
HETATM   26  H   UNK N   1      31.996  21.085  -3.277  0.00  0.00     0.217 HD
ENDBRANCH   7  25
BRANCH   1  27
HETATM   27  O   UNK N   1      25.264  28.283  -3.319  0.00  0.00    -0.361 OA
HETATM   28  H   UNK N   1      25.798  29.020  -3.096  0.00  0.00     0.217 HD
ENDBRANCH   1  27
TORSDOF 5
ENDMDL
MODEL 7
REMARK VINA RESULT:      -7.1      3.040      6.704
REMARK  5 active torsions:
REMARK  status: ('A' for Active; 'I' for Inactive)
REMARK    1  A    between atoms: C_1  and  O_2 
REMARK    2  A    between atoms: C_8  and  O_9 
REMARK    3  A    between atoms: C_13  and  C_17 
REMARK    4  A    between atoms: C_22  and  C_23 
REMARK    5  A    between atoms: C_23  and  O_25 
ROOT
HETATM    1  C   UNK N   1      29.391  17.933   9.661  0.00  0.00     0.068 A 
HETATM    2  C   UNK N   1      30.397  17.556   8.779  0.00  0.00     0.074 A 
HETATM    3  C   UNK N   1      30.165  17.551   7.403  0.00  0.00     0.086 A 
HETATM    4  O   UNK N   1      31.158  17.114   6.598  0.00  0.00    -0.309 OA
HETATM    5  C   UNK N   1      31.003  16.867   5.287  0.00  0.00     0.086 A 
HETATM    6  C   UNK N   1      32.017  16.164   4.620  0.00  0.00     0.074 A 
HETATM    7  C   UNK N   1      31.895  15.855   3.269  0.00  0.00     0.068 A 
HETATM    8  C   UNK N   1      30.765  16.261   2.566  0.00  0.00     0.037 A 
HETATM    9  C   UNK N   1      29.759  16.970   3.222  0.00  0.00     0.014 A 
HETATM   10  C   UNK N   1      29.843  17.279   4.591  0.00  0.00    -0.011 A 
HETATM   11  C   UNK N   1      28.723  18.046   5.350  0.00  0.00     0.091 C 
HETATM   12  C   UNK N   1      28.912  17.959   6.875  0.00  0.00    -0.011 A 
HETATM   13  C   UNK N   1      27.893  18.262   7.790  0.00  0.00     0.014 A 
HETATM   14  C   UNK N   1      28.130  18.263   9.168  0.00  0.00     0.037 A 
ENDROOT
BRANCH  11  15
HETATM   15  C   UNK N   1      27.443  18.549   4.572  0.00  0.00    -0.028 A 
HETATM   16  C   UNK N   1      27.518  19.857   4.051  0.00  0.00     0.009 A 
HETATM   17  C   UNK N   1      26.495  20.464   3.336  0.00  0.00     0.001 A 
HETATM   18  C   UNK N   1      25.338  19.761   3.068  0.00  0.00     0.001 A 
HETATM   19  C   UNK N   1      25.200  18.469   3.551  0.00  0.00     0.019 A 
HETATM   20  C   UNK N   1      26.199  17.842   4.323  0.00  0.00     0.045 A 
BRANCH  20  21
HETATM   21  C   UNK N   1      25.797  16.524   4.866  0.00  0.00     0.176 C 
HETATM   22  O   UNK N   1      25.704  15.563   4.112  0.00  0.00    -0.646 OA
BRANCH  21  23
HETATM   23  O   UNK N   1      25.345  16.406   6.125  0.00  0.00    -0.773 OA
HETATM   24  H   UNK N   1      25.052  15.702   6.669  0.00  0.00     0.167 HD
ENDBRANCH  21  23
ENDBRANCH  20  21
ENDBRANCH  11  15
BRANCH   7  25
HETATM   25  O   UNK N   1      32.862  15.163   2.644  0.00  0.00    -0.361 OA
HETATM   26  H   UNK N   1      33.661  14.967   3.091  0.00  0.00     0.217 HD
ENDBRANCH   7  25
BRANCH   1  27
HETATM   27  O   UNK N   1      29.634  17.965  10.982  0.00  0.00    -0.361 OA
HETATM   28  H   UNK N   1      29.706  18.787  11.425  0.00  0.00     0.217 HD
ENDBRANCH   1  27
TORSDOF 5
ENDMDL
MODEL 8
REMARK VINA RESULT:      -7.1     14.135     16.930
REMARK  5 active torsions:
REMARK  status: ('A' for Active; 'I' for Inactive)
REMARK    1  A    between atoms: C_1  and  O_2 
REMARK    2  A    between atoms: C_8  and  O_9 
REMARK    3  A    between atoms: C_13  and  C_17 
REMARK    4  A    between atoms: C_22  and  C_23 
REMARK    5  A    between atoms: C_23  and  O_25 
ROOT
HETATM    1  C   UNK N   1      30.629  22.440  -3.077  0.00  0.00     0.068 A 
HETATM    2  C   UNK N   1      29.758  23.459  -2.707  0.00  0.00     0.074 A 
HETATM    3  C   UNK N   1      28.725  23.850  -3.560  0.00  0.00     0.086 A 
HETATM    4  O   UNK N   1      27.950  24.888  -3.176  0.00  0.00    -0.309 OA
HETATM    5  C   UNK N   1      27.061  25.494  -3.979  0.00  0.00     0.086 A 
HETATM    6  C   UNK N   1      26.518  26.719  -3.564  0.00  0.00     0.074 A 
HETATM    7  C   UNK N   1      25.615  27.404  -4.371  0.00  0.00     0.068 A 
HETATM    8  C   UNK N   1      25.231  26.864  -5.594  0.00  0.00     0.037 A 
HETATM    9  C   UNK N   1      25.760  25.640  -6.006  0.00  0.00     0.014 A 
HETATM   10  C   UNK N   1      26.690  24.934  -5.223  0.00  0.00    -0.011 A 
HETATM   11  C   UNK N   1      27.312  23.582  -5.674  0.00  0.00     0.091 C 
HETATM   12  C   UNK N   1      28.523  23.200  -4.805  0.00  0.00    -0.011 A 
HETATM   13  C   UNK N   1      29.461  22.228  -5.186  0.00  0.00     0.014 A 
HETATM   14  C   UNK N   1      30.495  21.840  -4.328  0.00  0.00     0.037 A 
ENDROOT
BRANCH  11  15
HETATM   15  C   UNK N   1      26.871  22.926  -7.042  0.00  0.00    -0.028 A 
HETATM   16  C   UNK N   1      25.714  22.122  -6.992  0.00  0.00     0.009 A 
HETATM   17  C   UNK N   1      25.176  21.471  -8.093  0.00  0.00     0.001 A 
HETATM   18  C   UNK N   1      25.760  21.630  -9.334  0.00  0.00     0.001 A 
HETATM   19  C   UNK N   1      26.902  22.409  -9.453  0.00  0.00     0.019 A 
HETATM   20  C   UNK N   1      27.501  23.041  -8.345  0.00  0.00     0.045 A 
BRANCH  20  21
HETATM   21  C   UNK N   1      28.791  23.699  -8.659  0.00  0.00     0.176 C 
HETATM   22  O   UNK N   1      29.821  23.035  -8.668  0.00  0.00    -0.646 OA
BRANCH  21  23
HETATM   23  O   UNK N   1      28.881  25.036  -8.741  0.00  0.00    -0.773 OA
HETATM   24  H   UNK N   1      28.553  25.762  -8.246  0.00  0.00     0.167 HD
ENDBRANCH  21  23
ENDBRANCH  20  21
ENDBRANCH  11  15
BRANCH   7  25
HETATM   25  O   UNK N   1      25.116  28.587  -3.973  0.00  0.00    -0.361 OA
HETATM   26  H   UNK N   1      25.254  29.352  -4.496  0.00  0.00     0.217 HD
ENDBRANCH   7  25
BRANCH   1  27
HETATM   27  O   UNK N   1      31.600  22.049  -2.236  0.00  0.00    -0.361 OA
HETATM   28  H   UNK N   1      31.458  21.322  -1.662  0.00  0.00     0.217 HD
ENDBRANCH   1  27
TORSDOF 5
ENDMDL
MODEL 9
REMARK VINA RESULT:      -7.1      1.868      2.471
REMARK  5 active torsions:
REMARK  status: ('A' for Active; 'I' for Inactive)
REMARK    1  A    between atoms: C_1  and  O_2 
REMARK    2  A    between atoms: C_8  and  O_9 
REMARK    3  A    between atoms: C_13  and  C_17 
REMARK    4  A    between atoms: C_22  and  C_23 
REMARK    5  A    between atoms: C_23  and  O_25 
ROOT
HETATM    1  C   UNK N   1      28.713  18.509   8.273  0.00  0.00     0.068 A 
HETATM    2  C   UNK N   1      29.052  17.956   7.043  0.00  0.00     0.074 A 
HETATM    3  C   UNK N   1      30.264  17.282   6.881  0.00  0.00     0.086 A 
HETATM    4  O   UNK N   1      30.568  16.821   5.648  0.00  0.00    -0.309 OA
HETATM    5  C   UNK N   1      31.775  16.340   5.308  0.00  0.00     0.086 A 
HETATM    6  C   UNK N   1      32.053  16.149   3.945  0.00  0.00     0.074 A 
HETATM    7  C   UNK N   1      33.297  15.681   3.535  0.00  0.00     0.068 A 
HETATM    8  C   UNK N   1      34.271  15.381   4.482  0.00  0.00     0.037 A 
HETATM    9  C   UNK N   1      33.995  15.558   5.838  0.00  0.00     0.014 A 
HETATM   10  C   UNK N   1      32.755  16.049   6.284  0.00  0.00    -0.011 A 
HETATM   11  C   UNK N   1      32.434  16.279   7.788  0.00  0.00     0.091 C 
HETATM   12  C   UNK N   1      31.158  17.120   7.971  0.00  0.00    -0.011 A 
HETATM   13  C   UNK N   1      30.825  17.752   9.179  0.00  0.00     0.014 A 
HETATM   14  C   UNK N   1      29.611  18.428   9.336  0.00  0.00     0.037 A 
ENDROOT
BRANCH  11  15
HETATM   15  C   UNK N   1      33.507  15.917   8.890  0.00  0.00    -0.028 A 
HETATM   16  C   UNK N   1      34.233  17.003   9.419  0.00  0.00     0.009 A 
HETATM   17  C   UNK N   1      35.210  16.877  10.396  0.00  0.00     0.001 A 
HETATM   18  C   UNK N   1      35.485  15.635  10.932  0.00  0.00     0.001 A 
HETATM   19  C   UNK N   1      34.806  14.523  10.456  0.00  0.00     0.019 A 
HETATM   20  C   UNK N   1      33.844  14.611   9.428  0.00  0.00     0.045 A 
BRANCH  20  21
HETATM   21  C   UNK N   1      33.346  13.296   8.963  0.00  0.00     0.176 C 
HETATM   22  O   UNK N   1      33.962  12.689   8.094  0.00  0.00    -0.646 OA
BRANCH  21  23
HETATM   23  O   UNK N   1      32.135  12.849   9.331  0.00  0.00    -0.773 OA
HETATM   24  H   UNK N   1      31.652  12.802  10.134  0.00  0.00     0.167 HD
ENDBRANCH  21  23
ENDBRANCH  20  21
ENDBRANCH  11  15
BRANCH   7  25
HETATM   25  O   UNK N   1      33.561  15.521   2.227  0.00  0.00    -0.361 OA
HETATM   26  H   UNK N   1      34.324  15.048   1.958  0.00  0.00     0.217 HD
ENDBRANCH   7  25
BRANCH   1  27
HETATM   27  O   UNK N   1      27.531  19.128   8.427  0.00  0.00    -0.361 OA
HETATM   28  H   UNK N   1      27.347  19.911   7.947  0.00  0.00     0.217 HD
ENDBRANCH   1  27
TORSDOF 5
ENDMDL
