MODEL 1
REMARK VINA RESULT:      -8.7      0.000      0.000
REMARK  7 active torsions:
REMARK  status: ('A' for Active; 'I' for Inactive)
REMARK       I    between atoms: C_2  and  N_3 
REMARK    1  A    between atoms: C_2  and  C_13 
REMARK    2  A    between atoms: C_8  and  C_9 
REMARK    3  A    between atoms: C_9  and  O_11 
REMARK    4  A    between atoms: C_16  and  N_19 
REMARK    5  A    between atoms: N_19  and  C_21 
REMARK    6  A    between atoms: C_21  and  C_22 
REMARK    7  A    between atoms: C_30  and  N_31 
REMARK       I    between atoms: C_34  and  N_37 
ROOT
HETATM    1  C   UNK N   1      26.141  20.380   3.725  0.00  0.00     0.181 C 
ENDROOT
BRANCH   1   2
HETATM    2  N   UNK N   1      26.914  20.543   4.935  0.00  0.00    -0.380 N 
HETATM    3  C   UNK N   1      26.422  21.434   5.966  0.00  0.00     0.150 C 
BRANCH   2   4
HETATM    4  C   UNK N   1      27.842  19.519   5.285  0.00  0.00     0.030 A 
HETATM    5  C   UNK N   1      27.853  19.028   6.590  0.00  0.00     0.030 A 
HETATM    6  C   UNK N   1      28.617  17.925   6.911  0.00  0.00     0.019 A 
HETATM    7  C   UNK N   1      29.424  17.296   5.957  0.00  0.00     0.032 A 
HETATM    8  C   UNK N   1      29.500  17.829   4.664  0.00  0.00     0.019 A 
HETATM    9  C   UNK N   1      28.681  18.919   4.319  0.00  0.00     0.030 A 
BRANCH   7  10
HETATM   10  C   UNK N   1      30.167  16.086   6.382  0.00  0.00     0.253 C 
HETATM   11  O   UNK N   1      30.050  15.046   5.749  0.00  0.00    -0.267 OA
HETATM   12  N   UNK N   1      31.008  16.152   7.461  0.00  0.00    -0.348 N 
HETATM   13  C   UNK N   1      31.988  15.128   7.741  0.00  0.00     0.127 C 
HETATM   14  C   UNK N   1      30.932  17.263   8.386  0.00  0.00     0.127 C 
HETATM   15  C   UNK N   1      33.373  15.808   7.796  0.00  0.00     0.034 C 
HETATM   16  C   UNK N   1      33.361  17.006   8.774  0.00  0.00     0.088 C 
HETATM   17  C   UNK N   1      32.251  17.986   8.410  0.00  0.00     0.034 C 
BRANCH  16  18
HETATM   18  C   UNK N   1      34.674  17.740   8.825  0.00  0.00     0.262 C 
HETATM   19  O   UNK N   1      34.892  18.641   8.030  0.00  0.00    -0.265 OA
BRANCH  18  20
HETATM   20  O   UNK N   1      35.629  17.361   9.717  0.00  0.00    -0.326 OA
HETATM   21  C   UNK N   1      35.345  16.664  10.868  0.00  0.00     0.213 C 
ENDBRANCH  18  20
ENDBRANCH  16  18
ENDBRANCH   7  10
ENDBRANCH   2   4
ENDBRANCH   1   2
BRANCH   1  22
HETATM   22  C   UNK N   1      24.886  19.592   3.888  0.00  0.00     0.043 A 
HETATM   23  N   UNK N   1      23.715  20.126   3.458  0.00  0.00    -0.351 N 
HETATM   24  C   UNK N   1      22.576  19.386   3.457  0.00  0.00     0.122 A 
ATOM     25  HN  UNK N   1      23.690  21.092   3.134  1.00  0.00     0.166 HD
HETATM   26  C   UNK N   1      22.608  18.058   3.907  0.00  0.00     0.151 A 
HETATM   27  C   UNK N   1      21.371  19.909   2.990  0.00  0.00     0.145 A 
HETATM   28  N   UNK N   1      23.775  17.526   4.350  0.00  0.00    -0.348 N 
HETATM   29  N   UNK N   1      21.477  17.308   3.875  0.00  0.00    -0.174 N 
HETATM   30  C   UNK N   1      24.919  18.264   4.336  0.00  0.00     0.116 A 
ATOM     31  HN  UNK N   1      23.796  16.568   4.696  1.00  0.00     0.167 HD
HETATM   32  C   UNK N   1      20.313  17.831   3.405  0.00  0.00     0.679 A 
ATOM     33  HN  UNK N   1      21.501  16.343   4.206  1.00  0.00     0.186 HD
HETATM   34  N   UNK N   1      20.264  19.121   2.970  0.00  0.00    -0.175 N 
HETATM   35  N   UNK N   1      19.155  17.032   3.356  0.00  0.00    -0.234 N 
ATOM     36  HN  UNK N   1      19.384  19.501   2.624  1.00  0.00     0.186 HD
HETATM   37  H   UNK N   1      18.295  17.413   3.062  0.00  0.00     0.174 HD
HETATM   38  H   UNK N   1      19.204  16.084   3.617  0.00  0.00     0.174 HD
BRANCH  27  39
HETATM   39  N   UNK N   1      21.297  21.238   2.522  0.00  0.00    -0.383 N 
HETATM   40  H   UNK N   1      20.631  21.858   2.898  0.00  0.00     0.157 HD
HETATM   41  H   UNK N   1      21.913  21.545   1.819  0.00  0.00     0.157 HD
ENDBRANCH  27  39
ENDBRANCH   1  22
TORSDOF 7
ENDMDL
MODEL 2
REMARK VINA RESULT:      -8.5      4.581      8.110
REMARK  7 active torsions:
REMARK  status: ('A' for Active; 'I' for Inactive)
REMARK       I    between atoms: C_2  and  N_3 
REMARK    1  A    between atoms: C_2  and  C_13 
REMARK    2  A    between atoms: C_8  and  C_9 
REMARK    3  A    between atoms: C_9  and  O_11 
REMARK    4  A    between atoms: C_16  and  N_19 
REMARK    5  A    between atoms: N_19  and  C_21 
REMARK    6  A    between atoms: C_21  and  C_22 
REMARK    7  A    between atoms: C_30  and  N_31 
REMARK       I    between atoms: C_34  and  N_37 
ROOT
HETATM    1  C   UNK N   1      19.771  15.931   7.006  0.00  0.00     0.181 C 
ENDROOT
BRANCH   1   2
HETATM    2  N   UNK N   1      20.128  15.849   5.608  0.00  0.00    -0.380 N 
HETATM    3  C   UNK N   1      19.370  14.971   4.741  0.00  0.00     0.150 C 
BRANCH   2   4
HETATM    4  C   UNK N   1      20.859  16.931   5.035  0.00  0.00     0.030 A 
HETATM    5  C   UNK N   1      21.781  17.620   5.822  0.00  0.00     0.030 A 
HETATM    6  C   UNK N   1      22.622  18.554   5.250  0.00  0.00     0.019 A 
HETATM    7  C   UNK N   1      22.550  18.860   3.887  0.00  0.00     0.032 A 
HETATM    8  C   UNK N   1      21.569  18.247   3.097  0.00  0.00     0.019 A 
HETATM    9  C   UNK N   1      20.748  17.255   3.664  0.00  0.00     0.030 A 
BRANCH   7  10
HETATM   10  C   UNK N   1      23.530  19.835   3.354  0.00  0.00     0.253 C 
HETATM   11  O   UNK N   1      23.157  20.948   3.011  0.00  0.00    -0.267 OA
HETATM   12  N   UNK N   1      24.855  19.494   3.284  0.00  0.00    -0.348 N 
HETATM   13  C   UNK N   1      25.896  20.474   3.081  0.00  0.00     0.127 C 
HETATM   14  C   UNK N   1      25.266  18.109   3.398  0.00  0.00     0.127 C 
HETATM   15  C   UNK N   1      26.887  20.358   4.260  0.00  0.00     0.034 C 
HETATM   16  C   UNK N   1      27.369  18.899   4.433  0.00  0.00     0.088 C 
HETATM   17  C   UNK N   1      26.181  17.955   4.581  0.00  0.00     0.034 C 
BRANCH  16  18
HETATM   18  C   UNK N   1      28.296  18.719   5.604  0.00  0.00     0.262 C 
HETATM   19  O   UNK N   1      29.252  17.964   5.506  0.00  0.00    -0.265 OA
BRANCH  18  20
HETATM   20  O   UNK N   1      28.035  19.352   6.780  0.00  0.00    -0.326 OA
HETATM   21  C   UNK N   1      28.369  18.824   8.005  0.00  0.00     0.213 C 
ENDBRANCH  18  20
ENDBRANCH  16  18
ENDBRANCH   7  10
ENDBRANCH   2   4
ENDBRANCH   1   2
BRANCH   1  22
HETATM   22  C   UNK N   1      20.561  15.041   7.904  0.00  0.00     0.043 A 
HETATM   23  N   UNK N   1      21.801  14.651   7.515  0.00  0.00    -0.351 N 
HETATM   24  C   UNK N   1      22.607  13.961   8.363  0.00  0.00     0.122 A 
ATOM     25  HN  UNK N   1      22.130  14.876   6.577  1.00  0.00     0.166 HD
HETATM   26  C   UNK N   1      22.154  13.646   9.653  0.00  0.00     0.151 A 
HETATM   27  C   UNK N   1      23.895  13.579   7.992  0.00  0.00     0.145 A 
HETATM   28  N   UNK N   1      20.909  14.025  10.039  0.00  0.00    -0.348 N 
HETATM   29  N   UNK N   1      22.971  12.986  10.512  0.00  0.00    -0.174 N 
HETATM   30  C   UNK N   1      20.109  14.729   9.194  0.00  0.00     0.116 A 
ATOM     31  HN  UNK N   1      20.571  13.779  10.969  1.00  0.00     0.167 HD
HETATM   32  C   UNK N   1      24.229  12.631  10.136  0.00  0.00     0.679 A 
ATOM     33  HN  UNK N   1      22.639  12.755  11.450  1.00  0.00     0.186 HD
HETATM   34  N   UNK N   1      24.682  12.924   8.886  0.00  0.00    -0.175 N 
HETATM   35  N   UNK N   1      25.073  11.969  11.048  0.00  0.00    -0.234 N 
ATOM     36  HN  UNK N   1      25.626  12.649   8.616  1.00  0.00     0.186 HD
HETATM   37  H   UNK N   1      25.969  11.666  10.772  0.00  0.00     0.174 HD
HETATM   38  H   UNK N   1      24.766  11.809  11.970  0.00  0.00     0.174 HD
BRANCH  27  39
HETATM   39  N   UNK N   1      24.392  13.882   6.706  0.00  0.00    -0.383 N 
HETATM   40  H   UNK N   1      23.850  14.414   6.080  0.00  0.00     0.157 HD
HETATM   41  H   UNK N   1      25.282  13.561   6.436  0.00  0.00     0.157 HD
ENDBRANCH  27  39
ENDBRANCH   1  22
TORSDOF 7
ENDMDL
MODEL 3
REMARK VINA RESULT:      -8.4      5.274     10.535
REMARK  7 active torsions:
REMARK  status: ('A' for Active; 'I' for Inactive)
REMARK       I    between atoms: C_2  and  N_3 
REMARK    1  A    between atoms: C_2  and  C_13 
REMARK    2  A    between atoms: C_8  and  C_9 
REMARK    3  A    between atoms: C_9  and  O_11 
REMARK    4  A    between atoms: C_16  and  N_19 
REMARK    5  A    between atoms: N_19  and  C_21 
REMARK    6  A    between atoms: C_21  and  C_22 
REMARK    7  A    between atoms: C_30  and  N_31 
REMARK       I    between atoms: C_34  and  N_37 
ROOT
HETATM    1  C   UNK N   1      28.979  15.366   4.663  0.00  0.00     0.181 C 
ENDROOT
BRANCH   1   2
HETATM    2  N   UNK N   1      27.699  15.853   5.125  0.00  0.00    -0.380 N 
HETATM    3  C   UNK N   1      27.091  16.978   4.444  0.00  0.00     0.150 C 
BRANCH   2   4
HETATM    4  C   UNK N   1      26.875  14.971   5.883  0.00  0.00     0.030 A 
HETATM    5  C   UNK N   1      26.305  15.426   7.072  0.00  0.00     0.030 A 
HETATM    6  C   UNK N   1      25.371  14.656   7.734  0.00  0.00     0.019 A 
HETATM    7  C   UNK N   1      24.999  13.393   7.259  0.00  0.00     0.032 A 
HETATM    8  C   UNK N   1      25.629  12.877   6.118  0.00  0.00     0.019 A 
HETATM    9  C   UNK N   1      26.540  13.682   5.410  0.00  0.00     0.030 A 
BRANCH   7  10
HETATM   10  C   UNK N   1      23.950  12.664   8.008  0.00  0.00     0.253 C 
HETATM   11  O   UNK N   1      24.261  11.755   8.765  0.00  0.00    -0.267 OA
HETATM   12  N   UNK N   1      22.639  13.038   7.874  0.00  0.00    -0.348 N 
HETATM   13  C   UNK N   1      21.612  12.599   8.790  0.00  0.00     0.127 C 
HETATM   14  C   UNK N   1      22.225  13.892   6.779  0.00  0.00     0.127 C 
HETATM   15  C   UNK N   1      20.943  13.858   9.383  0.00  0.00     0.034 C 
HETATM   16  C   UNK N   1      20.472  14.812   8.262  0.00  0.00     0.088 C 
HETATM   17  C   UNK N   1      21.628  15.158   7.330  0.00  0.00     0.034 C 
BRANCH  16  18
HETATM   18  C   UNK N   1      19.860  16.083   8.786  0.00  0.00     0.262 C 
HETATM   19  O   UNK N   1      20.535  17.101   8.836  0.00  0.00    -0.265 OA
BRANCH  18  20
HETATM   20  O   UNK N   1      18.581  16.080   9.251  0.00  0.00    -0.326 OA
HETATM   21  C   UNK N   1      17.667  17.056   8.934  0.00  0.00     0.213 C 
ENDBRANCH  18  20
ENDBRANCH  16  18
ENDBRANCH   7  10
ENDBRANCH   2   4
ENDBRANCH   1   2
BRANCH   1  22
HETATM   22  C   UNK N   1      30.156  16.126   5.173  0.00  0.00     0.043 A 
HETATM   23  N   UNK N   1      30.232  16.407   6.498  0.00  0.00    -0.351 N 
HETATM   24  C   UNK N   1      31.351  16.968   7.024  0.00  0.00     0.122 A 
ATOM     25  HN  UNK N   1      29.441  16.194   7.105  1.00  0.00     0.166 HD
HETATM   26  C   UNK N   1      32.439  17.265   6.189  0.00  0.00     0.151 A 
HETATM   27  C   UNK N   1      31.458  17.235   8.387  0.00  0.00     0.145 A 
HETATM   28  N   UNK N   1      32.359  16.997   4.861  0.00  0.00    -0.348 N 
HETATM   29  N   UNK N   1      33.570  17.796   6.719  0.00  0.00    -0.174 N 
HETATM   30  C   UNK N   1      31.244  16.420   4.339  0.00  0.00     0.116 A 
ATOM     31  HN  UNK N   1      33.142  17.230   4.250  1.00  0.00     0.167 HD
HETATM   32  C   UNK N   1      33.661  18.039   8.054  0.00  0.00     0.679 A 
ATOM     33  HN  UNK N   1      34.360  18.014   6.110  1.00  0.00     0.186 HD
HETATM   34  N   UNK N   1      32.611  17.762   8.877  0.00  0.00    -0.175 N 
HETATM   35  N   UNK N   1      34.851  18.567   8.591  0.00  0.00    -0.234 N 
ATOM     36  HN  UNK N   1      32.692  17.952   9.875  1.00  0.00     0.186 HD
HETATM   37  H   UNK N   1      34.911  18.791   9.549  0.00  0.00     0.174 HD
HETATM   38  H   UNK N   1      35.628  18.713   8.005  0.00  0.00     0.174 HD
BRANCH  27  39
HETATM   39  N   UNK N   1      30.390  16.946   9.263  0.00  0.00    -0.383 N 
HETATM   40  H   UNK N   1      30.556  16.456  10.100  0.00  0.00     0.157 HD
HETATM   41  H   UNK N   1      29.477  17.235   9.035  0.00  0.00     0.157 HD
ENDBRANCH  27  39
ENDBRANCH   1  22
TORSDOF 7
ENDMDL
MODEL 4
REMARK VINA RESULT:      -8.4      4.243      6.590
REMARK  7 active torsions:
REMARK  status: ('A' for Active; 'I' for Inactive)
REMARK       I    between atoms: C_2  and  N_3 
REMARK    1  A    between atoms: C_2  and  C_13 
REMARK    2  A    between atoms: C_8  and  C_9 
REMARK    3  A    between atoms: C_9  and  O_11 
REMARK    4  A    between atoms: C_16  and  N_19 
REMARK    5  A    between atoms: N_19  and  C_21 
REMARK    6  A    between atoms: C_21  and  C_22 
REMARK    7  A    between atoms: C_30  and  N_31 
REMARK       I    between atoms: C_34  and  N_37 
ROOT
HETATM    1  C   UNK N   1      29.889  14.662   5.139  0.00  0.00     0.181 C 
ENDROOT
BRANCH   1   2
HETATM    2  N   UNK N   1      31.324  14.648   4.958  0.00  0.00    -0.380 N 
HETATM    3  C   UNK N   1      31.860  14.439   3.629  0.00  0.00     0.150 C 
BRANCH   2   4
HETATM    4  C   UNK N   1      32.133  15.285   5.944  0.00  0.00     0.030 A 
HETATM    5  C   UNK N   1      31.836  15.096   7.293  0.00  0.00     0.030 A 
HETATM    6  C   UNK N   1      32.699  15.557   8.266  0.00  0.00     0.019 A 
HETATM    7  C   UNK N   1      33.867  16.252   7.933  0.00  0.00     0.032 A 
HETATM    8  C   UNK N   1      34.137  16.534   6.587  0.00  0.00     0.019 A 
HETATM    9  C   UNK N   1      33.289  16.018   5.591  0.00  0.00     0.030 A 
BRANCH   7  10
HETATM   10  C   UNK N   1      34.759  16.660   9.043  0.00  0.00     0.253 C 
HETATM   11  O   UNK N   1      34.853  17.841   9.346  0.00  0.00    -0.267 OA
HETATM   12  N   UNK N   1      35.444  15.706   9.747  0.00  0.00    -0.348 N 
HETATM   13  C   UNK N   1      36.072  15.984  11.018  0.00  0.00     0.127 C 
HETATM   14  C   UNK N   1      35.580  14.362   9.224  0.00  0.00     0.127 C 
HETATM   15  C   UNK N   1      35.488  14.999  12.055  0.00  0.00     0.034 C 
HETATM   16  C   UNK N   1      35.606  13.540  11.557  0.00  0.00     0.088 C 
HETATM   17  C   UNK N   1      34.958  13.386  10.186  0.00  0.00     0.034 C 
BRANCH  16  18
HETATM   18  C   UNK N   1      35.002  12.542  12.507  0.00  0.00     0.262 C 
HETATM   19  O   UNK N   1      34.578  12.919  13.589  0.00  0.00    -0.265 OA
BRANCH  18  20
HETATM   20  O   UNK N   1      34.980  11.221  12.180  0.00  0.00    -0.326 OA
HETATM   21  C   UNK N   1      34.040  10.344  12.668  0.00  0.00     0.213 C 
ENDBRANCH  18  20
ENDBRANCH  16  18
ENDBRANCH   7  10
ENDBRANCH   2   4
ENDBRANCH   1   2
BRANCH   1  22
HETATM   22  C   UNK N   1      29.266  16.014   5.070  0.00  0.00     0.043 A 
HETATM   23  N   UNK N   1      28.765  16.565   6.205  0.00  0.00    -0.351 N 
HETATM   24  C   UNK N   1      28.320  17.848   6.214  0.00  0.00     0.122 A 
ATOM     25  HN  UNK N   1      28.722  16.009   7.059  1.00  0.00     0.166 HD
HETATM   26  C   UNK N   1      28.375  18.612   5.039  0.00  0.00     0.151 A 
HETATM   27  C   UNK N   1      27.832  18.439   7.378  0.00  0.00     0.145 A 
HETATM   28  N   UNK N   1      28.863  18.058   3.900  0.00  0.00    -0.348 N 
HETATM   29  N   UNK N   1      27.961  19.904   5.055  0.00  0.00    -0.174 N 
HETATM   30  C   UNK N   1      29.323  16.778   3.896  0.00  0.00     0.116 A 
ATOM     31  HN  UNK N   1      28.884  18.606   3.040  1.00  0.00     0.167 HD
HETATM   32  C   UNK N   1      27.498  20.468   6.203  0.00  0.00     0.679 A 
ATOM     33  HN  UNK N   1      27.999  20.458   4.199  1.00  0.00     0.186 HD
HETATM   34  N   UNK N   1      27.434  19.738   7.351  0.00  0.00    -0.175 N 
HETATM   35  N   UNK N   1      27.097  21.818   6.209  0.00  0.00    -0.234 N 
ATOM     36  HN  UNK N   1      27.082  20.173   8.203  1.00  0.00     0.186 HD
HETATM   37  H   UNK N   1      26.716  22.223   7.022  0.00  0.00     0.174 HD
HETATM   38  H   UNK N   1      27.197  22.360   5.394  0.00  0.00     0.174 HD
BRANCH  27  39
HETATM   39  N   UNK N   1      27.767  17.708   8.583  0.00  0.00    -0.383 N 
HETATM   40  H   UNK N   1      27.557  16.746   8.566  0.00  0.00     0.157 HD
HETATM   41  H   UNK N   1      27.932  18.160   9.441  0.00  0.00     0.157 HD
ENDBRANCH  27  39
ENDBRANCH   1  22
TORSDOF 7
ENDMDL
MODEL 5
REMARK VINA RESULT:      -8.3      3.910     11.139
REMARK  7 active torsions:
REMARK  status: ('A' for Active; 'I' for Inactive)
REMARK       I    between atoms: C_2  and  N_3 
REMARK    1  A    between atoms: C_2  and  C_13 
REMARK    2  A    between atoms: C_8  and  C_9 
REMARK    3  A    between atoms: C_9  and  O_11 
REMARK    4  A    between atoms: C_16  and  N_19 
REMARK    5  A    between atoms: N_19  and  C_21 
REMARK    6  A    between atoms: C_21  and  C_22 
REMARK    7  A    between atoms: C_30  and  N_31 
REMARK       I    between atoms: C_34  and  N_37 
ROOT
HETATM    1  C   UNK N   1      29.192  15.888   5.631  0.00  0.00     0.181 C 
ENDROOT
BRANCH   1   2
HETATM    2  N   UNK N   1      29.184  16.754   4.473  0.00  0.00    -0.380 N 
HETATM    3  C   UNK N   1      30.116  16.490   3.396  0.00  0.00     0.150 C 
BRANCH   2   4
HETATM    4  C   UNK N   1      28.006  17.510   4.205  0.00  0.00     0.030 A 
HETATM    5  C   UNK N   1      27.990  18.872   4.504  0.00  0.00     0.030 A 
HETATM    6  C   UNK N   1      26.931  19.659   4.100  0.00  0.00     0.019 A 
HETATM    7  C   UNK N   1      25.837  19.115   3.418  0.00  0.00     0.032 A 
HETATM    8  C   UNK N   1      25.790  17.733   3.190  0.00  0.00     0.019 A 
HETATM    9  C   UNK N   1      26.891  16.937   3.552  0.00  0.00     0.030 A 
BRANCH   7  10
HETATM   10  C   UNK N   1      24.774  20.048   2.977  0.00  0.00     0.253 C 
HETATM   11  O   UNK N   1      25.050  20.976   2.230  0.00  0.00    -0.267 OA
HETATM   12  N   UNK N   1      23.481  19.841   3.380  0.00  0.00    -0.348 N 
HETATM   13  C   UNK N   1      22.361  20.502   2.752  0.00  0.00     0.127 C 
HETATM   14  C   UNK N   1      23.188  18.948   4.482  0.00  0.00     0.127 C 
HETATM   15  C   UNK N   1      21.396  19.409   2.245  0.00  0.00     0.034 C 
HETATM   16  C   UNK N   1      21.037  18.421   3.379  0.00  0.00     0.088 C 
HETATM   17  C   UNK N   1      22.300  17.833   3.999  0.00  0.00     0.034 C 
BRANCH  16  18
HETATM   18  C   UNK N   1      20.140  17.301   2.925  0.00  0.00     0.262 C 
HETATM   19  O   UNK N   1      19.928  16.358   3.673  0.00  0.00    -0.265 OA
BRANCH  18  20
HETATM   20  O   UNK N   1      19.616  17.317   1.670  0.00  0.00    -0.326 OA
HETATM   21  C   UNK N   1      19.974  16.414   0.698  0.00  0.00     0.213 C 
ENDBRANCH  18  20
ENDBRANCH  16  18
ENDBRANCH   7  10
ENDBRANCH   2   4
ENDBRANCH   1   2
BRANCH   1  22
HETATM   22  C   UNK N   1      30.173  16.270   6.687  0.00  0.00     0.043 A 
HETATM   23  N   UNK N   1      31.315  15.547   6.814  0.00  0.00    -0.351 N 
HETATM   24  C   UNK N   1      32.296  15.947   7.663  0.00  0.00     0.122 A 
ATOM     25  HN  UNK N   1      31.437  14.696   6.266  1.00  0.00     0.166 HD
HETATM   26  C   UNK N   1      32.128  17.116   8.421  0.00  0.00     0.151 A 
HETATM   27  C   UNK N   1      33.488  15.234   7.783  0.00  0.00     0.145 A 
HETATM   28  N   UNK N   1      30.981  17.832   8.305  0.00  0.00    -0.348 N 
HETATM   29  N   UNK N   1      33.122  17.533   9.246  0.00  0.00    -0.174 N 
HETATM   30  C   UNK N   1      30.006  17.439   7.442  0.00  0.00     0.116 A 
ATOM     31  HN  UNK N   1      30.849  18.671   8.870  1.00  0.00     0.167 HD
HETATM   32  C   UNK N   1      34.283  16.831   9.341  0.00  0.00     0.679 A 
ATOM     33  HN  UNK N   1      32.997  18.383   9.798  1.00  0.00     0.186 HD
HETATM   34  N   UNK N   1      34.459  15.691   8.617  0.00  0.00    -0.175 N 
HETATM   35  N   UNK N   1      35.313  17.292  10.183  0.00  0.00    -0.234 N 
ATOM     36  HN  UNK N   1      35.333  15.173   8.701  1.00  0.00     0.186 HD
HETATM   37  H   UNK N   1      36.139  16.767  10.296  0.00  0.00     0.174 HD
HETATM   38  H   UNK N   1      35.207  18.146  10.661  0.00  0.00     0.174 HD
BRANCH  27  39
HETATM   39  N   UNK N   1      33.700  14.057   7.035  0.00  0.00    -0.383 N 
HETATM   40  H   UNK N   1      33.237  13.224   7.282  0.00  0.00     0.157 HD
HETATM   41  H   UNK N   1      34.312  14.070   6.264  0.00  0.00     0.157 HD
ENDBRANCH  27  39
ENDBRANCH   1  22
TORSDOF 7
ENDMDL
MODEL 6
REMARK VINA RESULT:      -8.3      4.746     11.979
REMARK  7 active torsions:
REMARK  status: ('A' for Active; 'I' for Inactive)
REMARK       I    between atoms: C_2  and  N_3 
REMARK    1  A    between atoms: C_2  and  C_13 
REMARK    2  A    between atoms: C_8  and  C_9 
REMARK    3  A    between atoms: C_9  and  O_11 
REMARK    4  A    between atoms: C_16  and  N_19 
REMARK    5  A    between atoms: N_19  and  C_21 
REMARK    6  A    between atoms: C_21  and  C_22 
REMARK    7  A    between atoms: C_30  and  N_31 
REMARK       I    between atoms: C_34  and  N_37 
ROOT
HETATM    1  C   UNK N   1      35.216  14.161   8.096  0.00  0.00     0.181 C 
ENDROOT
BRANCH   1   2
HETATM    2  N   UNK N   1      34.737  15.324   7.384  0.00  0.00    -0.380 N 
HETATM    3  C   UNK N   1      35.055  15.465   5.978  0.00  0.00     0.150 C 
BRANCH   2   4
HETATM    4  C   UNK N   1      33.617  16.028   7.917  0.00  0.00     0.030 A 
HETATM    5  C   UNK N   1      33.551  17.413   7.769  0.00  0.00     0.030 A 
HETATM    6  C   UNK N   1      32.405  18.096   8.122  0.00  0.00     0.019 A 
HETATM    7  C   UNK N   1      31.300  17.431   8.667  0.00  0.00     0.032 A 
HETATM    8  C   UNK N   1      31.380  16.054   8.910  0.00  0.00     0.019 A 
HETATM    9  C   UNK N   1      32.525  15.347   8.502  0.00  0.00     0.030 A 
BRANCH   7  10
HETATM   10  C   UNK N   1      30.096  18.240   8.963  0.00  0.00     0.253 C 
HETATM   11  O   UNK N   1      30.110  19.037   9.891  0.00  0.00    -0.267 OA
HETATM   12  N   UNK N   1      28.985  18.117   8.171  0.00  0.00    -0.348 N 
HETATM   13  C   UNK N   1      27.906  19.077   8.196  0.00  0.00     0.127 C 
HETATM   14  C   UNK N   1      28.842  16.988   7.275  0.00  0.00     0.127 C 
HETATM   15  C   UNK N   1      27.726  19.617   6.761  0.00  0.00     0.034 C 
HETATM   16  C   UNK N   1      27.563  18.458   5.752  0.00  0.00     0.088 C 
HETATM   17  C   UNK N   1      28.732  17.484   5.859  0.00  0.00     0.034 C 
BRANCH  16  18
HETATM   18  C   UNK N   1      27.439  18.928   4.327  0.00  0.00     0.262 C 
HETATM   19  O   UNK N   1      27.725  18.168   3.414  0.00  0.00    -0.265 OA
BRANCH  18  20
HETATM   20  O   UNK N   1      27.063  20.210   4.066  0.00  0.00    -0.326 OA
HETATM   21  C   UNK N   1      26.221  20.547   3.034  0.00  0.00     0.213 C 
ENDBRANCH  18  20
ENDBRANCH  16  18
ENDBRANCH   7  10
ENDBRANCH   2   4
ENDBRANCH   1   2
BRANCH   1  22
HETATM   22  C   UNK N   1      35.487  14.386   9.545  0.00  0.00     0.043 A 
HETATM   23  N   UNK N   1      35.069  13.457  10.442  0.00  0.00    -0.351 N 
HETATM   24  C   UNK N   1      35.420  13.551  11.750  0.00  0.00     0.122 A 
ATOM     25  HN  UNK N   1      34.485  12.682  10.131  1.00  0.00     0.166 HD
HETATM   26  C   UNK N   1      36.220  14.620  12.181  0.00  0.00     0.151 A 
HETATM   27  C   UNK N   1      35.025  12.591  12.679  0.00  0.00     0.145 A 
HETATM   28  N   UNK N   1      36.628  15.557  11.288  0.00  0.00    -0.348 N 
HETATM   29  N   UNK N   1      36.599  14.697  13.482  0.00  0.00    -0.174 N 
HETATM   30  C   UNK N   1      36.289  15.452   9.974  0.00  0.00     0.116 A 
ATOM     31  HN  UNK N   1      37.193  16.345  11.603  1.00  0.00     0.167 HD
HETATM   32  C   UNK N   1      36.214  13.744  14.373  0.00  0.00     0.679 A 
ATOM     33  HN  UNK N   1      37.179  15.477  13.795  1.00  0.00     0.186 HD
HETATM   34  N   UNK N   1      35.432  12.703  13.971  0.00  0.00    -0.175 N 
HETATM   35  N   UNK N   1      36.636  13.825  15.713  0.00  0.00    -0.234 N 
ATOM     36  HN  UNK N   1      35.148  11.998  14.650  1.00  0.00     0.186 HD
HETATM   37  H   UNK N   1      36.325  13.167  16.377  0.00  0.00     0.174 HD
HETATM   38  H   UNK N   1      37.247  14.546  15.989  0.00  0.00     0.174 HD
BRANCH  27  39
HETATM   39  N   UNK N   1      34.226  11.496  12.286  0.00  0.00    -0.383 N 
HETATM   40  H   UNK N   1      34.508  10.922  11.538  0.00  0.00     0.157 HD
HETATM   41  H   UNK N   1      33.386  11.306  12.762  0.00  0.00     0.157 HD
ENDBRANCH  27  39
ENDBRANCH   1  22
TORSDOF 7
ENDMDL
MODEL 7
REMARK VINA RESULT:      -8.3      8.111     13.633
REMARK  7 active torsions:
REMARK  status: ('A' for Active; 'I' for Inactive)
REMARK       I    between atoms: C_2  and  N_3 
REMARK    1  A    between atoms: C_2  and  C_13 
REMARK    2  A    between atoms: C_8  and  C_9 
REMARK    3  A    between atoms: C_9  and  O_11 
REMARK    4  A    between atoms: C_16  and  N_19 
REMARK    5  A    between atoms: N_19  and  C_21 
REMARK    6  A    between atoms: C_21  and  C_22 
REMARK    7  A    between atoms: C_30  and  N_31 
REMARK       I    between atoms: C_34  and  N_37 
ROOT
HETATM    1  C   UNK N   1      36.385  13.665  11.873  0.00  0.00     0.181 C 
ENDROOT
BRANCH   1   2
HETATM    2  N   UNK N   1      35.591  12.720  12.626  0.00  0.00    -0.380 N 
HETATM    3  C   UNK N   1      35.343  11.409  12.063  0.00  0.00     0.150 C 
BRANCH   2   4
HETATM    4  C   UNK N   1      35.480  12.906  14.035  0.00  0.00     0.030 A 
HETATM    5  C   UNK N   1      34.458  12.257  14.728  0.00  0.00     0.030 A 
HETATM    6  C   UNK N   1      34.430  12.281  16.107  0.00  0.00     0.019 A 
HETATM    7  C   UNK N   1      35.394  12.979  16.843  0.00  0.00     0.032 A 
HETATM    8  C   UNK N   1      36.375  13.714  16.165  0.00  0.00     0.019 A 
HETATM    9  C   UNK N   1      36.439  13.647  14.761  0.00  0.00     0.030 A 
BRANCH   7  10
HETATM   10  C   UNK N   1      35.313  12.901  18.320  0.00  0.00     0.253 C 
HETATM   11  O   UNK N   1      35.188  13.924  18.978  0.00  0.00    -0.267 OA
HETATM   12  N   UNK N   1      35.341  11.678  18.937  0.00  0.00    -0.348 N 
HETATM   13  C   UNK N   1      34.956  11.498  20.317  0.00  0.00     0.127 C 
HETATM   14  C   UNK N   1      35.783  10.501  18.217  0.00  0.00     0.127 C 
HETATM   15  C   UNK N   1      33.820  10.453  20.354  0.00  0.00     0.034 C 
HETATM   16  C   UNK N   1      34.231   9.165  19.604  0.00  0.00     0.088 C 
HETATM   17  C   UNK N   1      34.670   9.490  18.180  0.00  0.00     0.034 C 
BRANCH  16  18
HETATM   18  C   UNK N   1      33.139   8.131  19.563  0.00  0.00     0.262 C 
HETATM   19  O   UNK N   1      33.430   6.952  19.430  0.00  0.00    -0.265 OA
BRANCH  18  20
HETATM   20  O   UNK N   1      31.835   8.518  19.617  0.00  0.00    -0.326 OA
HETATM   21  C   UNK N   1      30.813   7.660  19.944  0.00  0.00     0.213 C 
ENDBRANCH  18  20
ENDBRANCH  16  18
ENDBRANCH   7  10
ENDBRANCH   2   4
ENDBRANCH   1   2
BRANCH   1  22
HETATM   22  C   UNK N   1      35.597  14.617  11.038  0.00  0.00     0.043 A 
HETATM   23  N   UNK N   1      34.659  14.124  10.190  0.00  0.00    -0.351 N 
HETATM   24  C   UNK N   1      33.823  14.960   9.521  0.00  0.00     0.122 A 
ATOM     25  HN  UNK N   1      34.581  13.117  10.053  1.00  0.00     0.166 HD
HETATM   26  C   UNK N   1      33.932  16.347   9.705  0.00  0.00     0.151 A 
HETATM   27  C   UNK N   1      32.835  14.471   8.670  0.00  0.00     0.145 A 
HETATM   28  N   UNK N   1      34.878  16.841  10.543  0.00  0.00    -0.348 N 
HETATM   29  N   UNK N   1      33.076  17.181   9.063  0.00  0.00    -0.174 N 
HETATM   30  C   UNK N   1      35.704  16.002  11.225  0.00  0.00     0.116 A 
ATOM     31  HN  UNK N   1      34.971  17.850  10.663  1.00  0.00     0.167 HD
HETATM   32  C   UNK N   1      32.109  16.685   8.245  0.00  0.00     0.679 A 
ATOM     33  HN  UNK N   1      33.158  18.190   9.195  1.00  0.00     0.186 HD
HETATM   34  N   UNK N   1      31.995  15.341   8.051  0.00  0.00    -0.175 N 
HETATM   35  N   UNK N   1      31.213  17.563   7.605  0.00  0.00    -0.234 N 
ATOM     36  HN  UNK N   1      31.268  14.983   7.432  1.00  0.00     0.186 HD
HETATM   37  H   UNK N   1      30.540  17.218   6.974  0.00  0.00     0.174 HD
HETATM   38  H   UNK N   1      31.261  18.528   7.790  0.00  0.00     0.174 HD
BRANCH  27  39
HETATM   39  N   UNK N   1      32.687  13.083   8.463  0.00  0.00    -0.383 N 
HETATM   40  H   UNK N   1      31.833  12.721   8.133  0.00  0.00     0.157 HD
HETATM   41  H   UNK N   1      33.440  12.476   8.647  0.00  0.00     0.157 HD
ENDBRANCH  27  39
ENDBRANCH   1  22
TORSDOF 7
ENDMDL
MODEL 8
REMARK VINA RESULT:      -8.2      4.325     11.878
REMARK  7 active torsions:
REMARK  status: ('A' for Active; 'I' for Inactive)
REMARK       I    between atoms: C_2  and  N_3 
REMARK    1  A    between atoms: C_2  and  C_13 
REMARK    2  A    between atoms: C_8  and  C_9 
REMARK    3  A    between atoms: C_9  and  O_11 
REMARK    4  A    between atoms: C_16  and  N_19 
REMARK    5  A    between atoms: N_19  and  C_21 
REMARK    6  A    between atoms: C_21  and  C_22 
REMARK    7  A    between atoms: C_30  and  N_31 
REMARK       I    between atoms: C_34  and  N_37 
ROOT
HETATM    1  C   UNK N   1      33.447  14.639   8.469  0.00  0.00     0.181 C 
ENDROOT
BRANCH   1   2
HETATM    2  N   UNK N   1      33.472  15.787   7.591  0.00  0.00    -0.380 N 
HETATM    3  C   UNK N   1      34.553  15.916   6.637  0.00  0.00     0.150 C 
BRANCH   2   4
HETATM    4  C   UNK N   1      32.249  16.482   7.356  0.00  0.00     0.030 A 
HETATM    5  C   UNK N   1      31.894  16.809   6.047  0.00  0.00     0.030 A 
HETATM    6  C   UNK N   1      30.643  17.324   5.775  0.00  0.00     0.019 A 
HETATM    7  C   UNK N   1      29.717  17.567   6.796  0.00  0.00     0.032 A 
HETATM    8  C   UNK N   1      30.087  17.333   8.127  0.00  0.00     0.019 A 
HETATM    9  C   UNK N   1      31.340  16.756   8.403  0.00  0.00     0.030 A 
BRANCH   7  10
HETATM   10  C   UNK N   1      28.381  18.070   6.401  0.00  0.00     0.253 C 
HETATM   11  O   UNK N   1      28.102  19.249   6.564  0.00  0.00    -0.267 OA
HETATM   12  N   UNK N   1      27.481  17.217   5.820  0.00  0.00    -0.348 N 
HETATM   13  C   UNK N   1      26.302  17.688   5.131  0.00  0.00     0.127 C 
HETATM   14  C   UNK N   1      27.673  15.783   5.893  0.00  0.00     0.127 C 
HETATM   15  C   UNK N   1      26.348  17.132   3.691  0.00  0.00     0.034 C 
HETATM   16  C   UNK N   1      26.548  15.599   3.698  0.00  0.00     0.088 C 
HETATM   17  C   UNK N   1      27.788  15.223   4.501  0.00  0.00     0.034 C 
BRANCH  16  18
HETATM   18  C   UNK N   1      26.654  15.011   2.317  0.00  0.00     0.262 C 
HETATM   19  O   UNK N   1      25.975  15.472   1.411  0.00  0.00    -0.265 OA
BRANCH  18  20
HETATM   20  O   UNK N   1      27.461  13.938   2.096  0.00  0.00    -0.326 OA
HETATM   21  C   UNK N   1      26.982  12.658   1.950  0.00  0.00     0.213 C 
ENDBRANCH  18  20
ENDBRANCH  16  18
ENDBRANCH   7  10
ENDBRANCH   2   4
ENDBRANCH   1   2
BRANCH   1  22
HETATM   22  C   UNK N   1      34.130  14.841   9.779  0.00  0.00     0.043 A 
HETATM   23  N   UNK N   1      34.188  13.806  10.655  0.00  0.00    -0.351 N 
HETATM   24  C   UNK N   1      34.921  13.903  11.793  0.00  0.00     0.122 A 
ATOM     25  HN  UNK N   1      33.675  12.947  10.456  1.00  0.00     0.166 HD
HETATM   26  C   UNK N   1      35.624  15.085  12.070  0.00  0.00     0.151 A 
HETATM   27  C   UNK N   1      35.017  12.839  12.689  0.00  0.00     0.145 A 
HETATM   28  N   UNK N   1      35.556  16.126  11.202  0.00  0.00    -0.348 N 
HETATM   29  N   UNK N   1      36.384  15.171  13.192  0.00  0.00    -0.174 N 
HETATM   30  C   UNK N   1      34.834  16.021  10.054  0.00  0.00     0.116 A 
ATOM     31  HN  UNK N   1      36.050  16.993  11.411  1.00  0.00     0.167 HD
HETATM   32  C   UNK N   1      36.475  14.119  14.048  0.00  0.00     0.679 A 
ATOM     33  HN  UNK N   1      36.892  16.033  13.393  1.00  0.00     0.186 HD
HETATM   34  N   UNK N   1      35.794  12.966  13.797  0.00  0.00    -0.175 N 
HETATM   35  N   UNK N   1      37.287  14.216  15.194  0.00  0.00    -0.234 N 
ATOM     36  HN  UNK N   1      35.869  12.186  14.449  1.00  0.00     0.186 HD
HETATM   37  H   UNK N   1      37.324  13.478  15.846  0.00  0.00     0.174 HD
HETATM   38  H   UNK N   1      37.823  15.027  15.345  0.00  0.00     0.174 HD
BRANCH  27  39
HETATM   39  N   UNK N   1      34.332  11.630  12.445  0.00  0.00    -0.383 N 
HETATM   40  H   UNK N   1      34.155  11.005  13.184  0.00  0.00     0.157 HD
HETATM   41  H   UNK N   1      34.031  11.412  11.534  0.00  0.00     0.157 HD
ENDBRANCH  27  39
ENDBRANCH   1  22
TORSDOF 7
ENDMDL
MODEL 9
REMARK VINA RESULT:      -8.2      4.338      8.434
REMARK  7 active torsions:
REMARK  status: ('A' for Active; 'I' for Inactive)
REMARK       I    between atoms: C_2  and  N_3 
REMARK    1  A    between atoms: C_2  and  C_13 
REMARK    2  A    between atoms: C_8  and  C_9 
REMARK    3  A    between atoms: C_9  and  O_11 
REMARK    4  A    between atoms: C_16  and  N_19 
REMARK    5  A    between atoms: N_19  and  C_21 
REMARK    6  A    between atoms: C_21  and  C_22 
REMARK    7  A    between atoms: C_30  and  N_31 
REMARK       I    between atoms: C_34  and  N_37 
ROOT
HETATM    1  C   UNK N   1      32.108  16.021   8.647  0.00  0.00     0.181 C 
ENDROOT
BRANCH   1   2
HETATM    2  N   UNK N   1      33.471  16.491   8.540  0.00  0.00    -0.380 N 
HETATM    3  C   UNK N   1      33.710  17.907   8.349  0.00  0.00     0.150 C 
BRANCH   2   4
HETATM    4  C   UNK N   1      34.509  15.677   9.080  0.00  0.00     0.030 A 
HETATM    5  C   UNK N   1      35.110  16.049  10.282  0.00  0.00     0.030 A 
HETATM    6  C   UNK N   1      35.993  15.195  10.911  0.00  0.00     0.019 A 
HETATM    7  C   UNK N   1      36.335  13.959  10.350  0.00  0.00     0.032 A 
HETATM    8  C   UNK N   1      35.814  13.606   9.099  0.00  0.00     0.019 A 
HETATM    9  C   UNK N   1      34.873  14.449   8.481  0.00  0.00     0.030 A 
BRANCH   7  10
HETATM   10  C   UNK N   1      37.248  13.088  11.126  0.00  0.00     0.253 C 
HETATM   11  O   UNK N   1      38.448  13.102  10.894  0.00  0.00    -0.267 OA
HETATM   12  N   UNK N   1      36.744  12.297  12.125  0.00  0.00    -0.348 N 
HETATM   13  C   UNK N   1      37.587  11.672  13.117  0.00  0.00     0.127 C 
HETATM   14  C   UNK N   1      35.320  12.042  12.214  0.00  0.00     0.127 C 
HETATM   15  C   UNK N   1      37.098  12.134  14.507  0.00  0.00     0.034 C 
HETATM   16  C   UNK N   1      35.581  11.885  14.668  0.00  0.00     0.088 C 
HETATM   17  C   UNK N   1      34.804  12.544  13.535  0.00  0.00     0.034 C 
BRANCH  16  18
HETATM   18  C   UNK N   1      35.040  12.368  15.987  0.00  0.00     0.262 C 
HETATM   19  O   UNK N   1      34.153  13.208  16.004  0.00  0.00    -0.265 OA
BRANCH  18  20
HETATM   20  O   UNK N   1      35.577  11.909  17.150  0.00  0.00    -0.326 OA
HETATM   21  C   UNK N   1      35.266  12.440  18.379  0.00  0.00     0.213 C 
ENDBRANCH  18  20
ENDBRANCH  16  18
ENDBRANCH   7  10
ENDBRANCH   2   4
ENDBRANCH   1   2
BRANCH   1  22
HETATM   22  C   UNK N   1      31.191  16.518   7.582  0.00  0.00     0.043 A 
HETATM   23  N   UNK N   1      30.074  17.198   7.942  0.00  0.00    -0.351 N 
HETATM   24  C   UNK N   1      29.290  17.790   7.004  0.00  0.00     0.122 A 
ATOM     25  HN  UNK N   1      29.819  17.264   8.927  1.00  0.00     0.166 HD
HETATM   26  C   UNK N   1      29.637  17.697   5.648  0.00  0.00     0.151 A 
HETATM   27  C   UNK N   1      28.156  18.517   7.359  0.00  0.00     0.145 A 
HETATM   28  N   UNK N   1      30.748  17.007   5.285  0.00  0.00    -0.348 N 
HETATM   29  N   UNK N   1      28.873  18.316   4.713  0.00  0.00    -0.174 N 
HETATM   30  C   UNK N   1      31.540  16.427   6.227  0.00  0.00     0.116 A 
ATOM     31  HN  UNK N   1      30.990  16.922   4.298  1.00  0.00     0.167 HD
HETATM   32  C   UNK N   1      27.776  19.032   5.078  0.00  0.00     0.679 A 
ATOM     33  HN  UNK N   1      29.125  18.245   3.726  1.00  0.00     0.186 HD
HETATM   34  N   UNK N   1      27.422  19.127   6.390  0.00  0.00    -0.175 N 
HETATM   35  N   UNK N   1      27.009  19.689   4.098  0.00  0.00    -0.234 N 
ATOM     36  HN  UNK N   1      26.595  19.663   6.650  1.00  0.00     0.186 HD
HETATM   37  H   UNK N   1      26.186  20.170   4.346  0.00  0.00     0.174 HD
HETATM   38  H   UNK N   1      27.297  19.667   3.157  0.00  0.00     0.174 HD
BRANCH  27  39
HETATM   39  N   UNK N   1      27.775  18.642   8.712  0.00  0.00    -0.383 N 
HETATM   40  H   UNK N   1      26.823  18.622   8.961  0.00  0.00     0.157 HD
HETATM   41  H   UNK N   1      28.463  18.748   9.407  0.00  0.00     0.157 HD
ENDBRANCH  27  39
ENDBRANCH   1  22
TORSDOF 7
ENDMDL
