REMARK  7 active torsions:
REMARK  status: ('A' for Active; 'I' for Inactive)
REMARK       I    between atoms: C_2  and  N_3 
REMARK    1  A    between atoms: C_2  and  C_13 
REMARK    2  A    between atoms: C_8  and  C_9 
REMARK    3  A    between atoms: C_9  and  O_11 
REMARK    4  A    between atoms: C_16  and  N_19 
REMARK    5  A    between atoms: N_19  and  C_21 
REMARK    6  A    between atoms: C_21  and  C_22 
REMARK    7  A    between atoms: C_30  and  N_31 
REMARK       I    between atoms: C_34  and  N_37 
ROOT
HETATM    1  C   UNK N   1       2.264   0.482  -0.879  0.00  0.00     0.181 C 
ENDROOT
BRANCH   1   2
HETATM    2  N   UNK N   1       1.185   0.835   0.016  0.00  0.00    -0.380 N 
HETATM    3  C   UNK N   1       0.959   2.232   0.323  0.00  0.00     0.150 C 
BRANCH   2   4
HETATM    4  C   UNK N   1       0.120  -0.097   0.188  0.00  0.00     0.030 A 
HETATM    5  C   UNK N   1      -1.155   0.377   0.496  0.00  0.00     0.030 A 
HETATM    6  C   UNK N   1      -2.234  -0.483   0.499  0.00  0.00     0.019 A 
HETATM    7  C   UNK N   1      -2.078  -1.848   0.232  0.00  0.00     0.032 A 
HETATM    8  C   UNK N   1      -0.793  -2.361   0.012  0.00  0.00     0.019 A 
HETATM    9  C   UNK N   1       0.301  -1.479  -0.046  0.00  0.00     0.030 A 
BRANCH   7  10
HETATM   10  C   UNK N   1      -3.302  -2.682   0.204  0.00  0.00     0.253 C 
HETATM   11  O   UNK N   1      -3.299  -3.786   0.730  0.00  0.00    -0.267 OA
HETATM   12  N   UNK N   1      -4.441  -2.194  -0.380  0.00  0.00    -0.348 N 
HETATM   13  C   UNK N   1      -5.736  -2.799  -0.174  0.00  0.00     0.127 C 
HETATM   14  C   UNK N   1      -4.383  -1.041  -1.255  0.00  0.00     0.127 C 
HETATM   15  C   UNK N   1      -6.676  -1.713   0.393  0.00  0.00     0.034 C 
HETATM   16  C   UNK N   1      -6.664  -0.452  -0.501  0.00  0.00     0.088 C 
HETATM   17  C   UNK N   1      -5.240   0.059  -0.690  0.00  0.00     0.034 C 
BRANCH  16  18
HETATM   18  C   UNK N   1      -7.523   0.661   0.036  0.00  0.00     0.262 C 
HETATM   19  O   UNK N   1      -8.714   0.465   0.227  0.00  0.00    -0.265 OA
BRANCH  18  20
HETATM   20  O   UNK N   1      -6.983   1.891   0.253  0.00  0.00    -0.326 OA
HETATM   21  C   UNK N   1      -7.729   2.978   0.642  0.00  0.00     0.213 C 
ENDBRANCH  18  20
ENDBRANCH  16  18
ENDBRANCH   7  10
ENDBRANCH   2   4
ENDBRANCH   1   2
BRANCH   1  22
HETATM   22  C   UNK N   1       3.604   0.993  -0.472  0.00  0.00     0.043 A 
HETATM   23  N   UNK N   1       4.626   0.112  -0.327  0.00  0.00    -0.351 N 
HETATM   24  C   UNK N   1       5.891   0.550  -0.099  0.00  0.00     0.122 A 
ATOM     25  HN  UNK N   1       4.442  -0.889  -0.389  1.00  0.00     0.166 HD
HETATM   26  C   UNK N   1       6.145   1.927  -0.009  0.00  0.00     0.151 A 
HETATM   27  C   UNK N   1       6.957  -0.339   0.022  0.00  0.00     0.145 A 
HETATM   28  N   UNK N   1       5.122   2.809  -0.141  0.00  0.00    -0.348 N 
HETATM   29  N   UNK N   1       7.414   2.367   0.186  0.00  0.00    -0.174 N 
HETATM   30  C   UNK N   1       3.858   2.369  -0.385  0.00  0.00     0.116 A 
ATOM     31  HN  UNK N   1       5.302   3.809  -0.056  1.00  0.00     0.167 HD
HETATM   32  C   UNK N   1       8.444   1.485   0.290  0.00  0.00     0.679 A 
ATOM     33  HN  UNK N   1       7.597   3.369   0.254  1.00  0.00     0.186 HD
HETATM   34  N   UNK N   1       8.213   0.145   0.211  0.00  0.00    -0.175 N 
HETATM   35  N   UNK N   1       9.758   1.959   0.467  0.00  0.00    -0.234 N 
ATOM     36  HN  UNK N   1       8.994  -0.505   0.294  1.00  0.00     0.186 HD
HETATM   37  H   UNK N   1      10.505   1.329   0.591  0.00  0.00     0.174 HD
HETATM   38  H   UNK N   1       9.931   2.928   0.467  0.00  0.00     0.174 HD
BRANCH  27  39
HETATM   39  N   UNK N   1       6.746  -1.731  -0.069  0.00  0.00    -0.383 N 
HETATM   40  H   UNK N   1       5.831  -2.089  -0.133  0.00  0.00     0.157 HD
HETATM   41  H   UNK N   1       7.515  -2.345  -0.069  0.00  0.00     0.157 HD
ENDBRANCH  27  39
ENDBRANCH   1  22
TORSDOF 7
