REMARK  7 active torsions:
REMARK  status: ('A' for Active; 'I' for Inactive)
REMARK    1  A    between atoms: N_20  and  O_22 
REMARK    2  A    between atoms: O_22  and  C_23 
REMARK    3  A    between atoms: C_23  and  C_24 
REMARK    4  A    between atoms: C_24  and  C_25 
REMARK    5  A    between atoms: C_25  and  O_26 
REMARK    6  A    between atoms: C_25  and  C_27 
REMARK    7  A    between atoms: C_27  and  O_28 
ROOT
HETATM    1  O   UNK N   1      23.156  36.018   0.026  0.00  0.00    -0.267 OA
HETATM    2  C   UNK N   1      23.274  34.805   0.016  0.00  0.00     0.259 A 
HETATM    3  C   UNK N   1      24.546  34.057  -0.033  0.00  0.00     0.073 A 
HETATM    4  C   UNK N   1      24.117  32.649  -0.023  0.00  0.00     0.009 A 
HETATM    5  C   UNK N   1      24.827  31.449  -0.051  0.00  0.00     0.015 A 
HETATM    6  C   UNK N   1      24.107  30.242  -0.022  0.00  0.00     0.001 A 
HETATM    7  C   UNK N   1      22.698  30.253   0.034  0.00  0.00     0.002 A 
HETATM    8  C   UNK N   1      21.998  31.471   0.061  0.00  0.00     0.030 A 
HETATM    9  C   UNK N   1      22.736  32.651   0.031  0.00  0.00     0.046 A 
HETATM   10  N   UNK N   1      22.220  33.961   0.053  0.00  0.00    -0.322 N 
HETATM   11  C   UNK N   1      25.786  34.599  -0.068  0.00  0.00     0.079 A 
HETATM   12  C   UNK N   1      27.098  33.923  -0.102  0.00  0.00     0.094 A 
HETATM   13  C   UNK N   1      28.094  34.991  -0.101  0.00  0.00     0.021 A 
HETATM   14  C   UNK N   1      29.487  34.942  -0.099  0.00  0.00     0.016 A 
HETATM   15  C   UNK N   1      30.191  36.157  -0.061  0.00  0.00     0.001 A 
HETATM   16  C   UNK N   1      29.495  37.384  -0.022  0.00  0.00     0.002 A 
HETATM   17  C   UNK N   1      28.088  37.407  -0.024  0.00  0.00     0.030 A 
HETATM   18  C   UNK N   1      27.415  36.189  -0.066  0.00  0.00     0.045 A 
HETATM   19  N   UNK N   1      26.015  36.000  -0.055  0.00  0.00    -0.353 N 
HETATM   20  N   UNK N   1      27.326  32.660  -0.059  0.00  0.00    -0.264 N 
ATOM     21  HN  UNK N   1      26.542  32.010  -0.012  1.00  0.00     0.194 HD
HETATM   22  H   UNK N   1      21.269  34.215   0.090  0.00  0.00     0.169 HD
HETATM   23  H   UNK N   1      25.328  36.706  -0.041  0.00  0.00     0.166 HD
ENDROOT
BRANCH  20  24
HETATM   24  O   UNK N   1      28.555  32.192  -0.074  0.00  0.00    -0.280 OA
BRANCH  24  25
HETATM   25  C   UNK N   1      28.868  31.076   0.657  0.00  0.00     0.204 C 
BRANCH  25  26
HETATM   26  C   UNK N   1      30.263  30.551   0.324  0.00  0.00     0.062 C 
BRANCH  26  27
HETATM   27  C   UNK N   1      31.310  31.627   0.044  0.00  0.00     0.143 C 
BRANCH  27  28
HETATM   28  O   UNK N   1      31.387  32.525   1.111  0.00  0.00    -0.393 OA
HETATM   29  H   UNK N   1      31.954  32.790   1.852  0.00  0.00     0.210 HD
ENDBRANCH  27  28
BRANCH  27  30
HETATM   30  C   UNK N   1      32.652  30.941  -0.145  0.00  0.00     0.195 C 
BRANCH  30  31
HETATM   31  O   UNK N   1      33.637  31.876  -0.463  0.00  0.00    -0.398 OA
HETATM   32  H   UNK N   1      34.543  31.608  -0.684  0.00  0.00     0.209 HD
ENDBRANCH  30  31
ENDBRANCH  27  30
ENDBRANCH  26  27
ENDBRANCH  25  26
ENDBRANCH  24  25
ENDBRANCH  20  24
TORSDOF 7
