MODEL 1
REMARK VINA RESULT:      -7.6      0.000      0.000
REMARK  7 active torsions:
REMARK  status: ('A' for Active; 'I' for Inactive)
REMARK    1  A    between atoms: N_20  and  O_22 
REMARK    2  A    between atoms: O_22  and  C_23 
REMARK    3  A    between atoms: C_23  and  C_24 
REMARK    4  A    between atoms: C_24  and  C_25 
REMARK    5  A    between atoms: C_25  and  O_26 
REMARK    6  A    between atoms: C_25  and  C_27 
REMARK    7  A    between atoms: C_27  and  O_28 
ROOT
HETATM    1  O   UNK N   1      24.945  22.996  -8.505  0.00  0.00    -0.267 OA
HETATM    2  C   UNK N   1      25.982  22.480  -8.128  0.00  0.00     0.259 A 
HETATM    3  C   UNK N   1      26.889  23.012  -7.091  0.00  0.00     0.073 A 
HETATM    4  C   UNK N   1      27.967  22.011  -7.032  0.00  0.00     0.009 A 
HETATM    5  C   UNK N   1      29.124  21.919  -6.259  0.00  0.00     0.015 A 
HETATM    6  C   UNK N   1      29.966  20.808  -6.440  0.00  0.00     0.001 A 
HETATM    7  C   UNK N   1      29.641  19.813  -7.385  0.00  0.00     0.002 A 
HETATM    8  C   UNK N   1      28.471  19.921  -8.156  0.00  0.00     0.030 A 
HETATM    9  C   UNK N   1      27.656  21.032  -7.956  0.00  0.00     0.046 A 
HETATM   10  N   UNK N   1      26.450  21.315  -8.626  0.00  0.00    -0.322 N 
HETATM   11  C   UNK N   1      26.709  24.154  -6.388  0.00  0.00     0.079 A 
HETATM   12  C   UNK N   1      27.557  24.741  -5.330  0.00  0.00     0.094 A 
HETATM   13  C   UNK N   1      26.871  25.957  -4.903  0.00  0.00     0.021 A 
HETATM   14  C   UNK N   1      27.195  26.892  -3.921  0.00  0.00     0.016 A 
HETATM   15  C   UNK N   1      26.308  27.961  -3.708  0.00  0.00     0.001 A 
HETATM   16  C   UNK N   1      25.126  28.070  -4.471  0.00  0.00     0.002 A 
HETATM   17  C   UNK N   1      24.821  27.113  -5.456  0.00  0.00     0.030 A 
HETATM   18  C   UNK N   1      25.718  26.066  -5.649  0.00  0.00     0.045 A 
HETATM   19  N   UNK N   1      25.584  25.001  -6.568  0.00  0.00    -0.353 N 
HETATM   20  N   UNK N   1      28.631  24.248  -4.829  0.00  0.00    -0.264 N 
ATOM     21  HN  UNK N   1      28.987  23.360  -5.180  1.00  0.00     0.194 HD
HETATM   22  H   UNK N   1      26.026  20.766  -9.325  0.00  0.00     0.169 HD
HETATM   23  H   UNK N   1      24.850  24.871  -7.212  0.00  0.00     0.166 HD
ENDROOT
BRANCH  20  24
HETATM   24  O   UNK N   1      29.279  24.870  -3.868  0.00  0.00    -0.280 OA
BRANCH  24  25
HETATM   25  C   UNK N   1      30.641  24.998  -3.937  0.00  0.00     0.204 C 
BRANCH  25  26
HETATM   26  C   UNK N   1      31.337  23.640  -4.007  0.00  0.00     0.062 C 
BRANCH  26  27
HETATM   27  C   UNK N   1      31.078  22.718  -2.817  0.00  0.00     0.143 C 
BRANCH  27  28
HETATM   28  O   UNK N   1      29.715  22.436  -2.703  0.00  0.00    -0.393 OA
HETATM   29  H   UNK N   1      28.921  22.260  -3.231  0.00  0.00     0.210 HD
ENDBRANCH  27  28
BRANCH  27  30
HETATM   30  C   UNK N   1      31.851  21.430  -3.043  0.00  0.00     0.195 C 
BRANCH  30  31
HETATM   31  O   UNK N   1      32.755  21.215  -2.002  0.00  0.00    -0.398 OA
HETATM   32  H   UNK N   1      33.417  20.507  -2.040  0.00  0.00     0.209 HD
ENDBRANCH  30  31
ENDBRANCH  27  30
ENDBRANCH  26  27
ENDBRANCH  25  26
ENDBRANCH  24  25
ENDBRANCH  20  24
TORSDOF 7
ENDMDL
MODEL 2
REMARK VINA RESULT:      -7.2      1.719      5.059
REMARK  7 active torsions:
REMARK  status: ('A' for Active; 'I' for Inactive)
REMARK    1  A    between atoms: N_20  and  O_22 
REMARK    2  A    between atoms: O_22  and  C_23 
REMARK    3  A    between atoms: C_23  and  C_24 
REMARK    4  A    between atoms: C_24  and  C_25 
REMARK    5  A    between atoms: C_25  and  O_26 
REMARK    6  A    between atoms: C_25  and  C_27 
REMARK    7  A    between atoms: C_27  and  O_28 
ROOT
HETATM    1  O   UNK N   1      29.967  23.483  -1.931  0.00  0.00    -0.267 OA
HETATM    2  C   UNK N   1      30.051  22.840  -2.963  0.00  0.00     0.259 A 
HETATM    3  C   UNK N   1      29.269  23.070  -4.194  0.00  0.00     0.073 A 
HETATM    4  C   UNK N   1      29.761  22.030  -5.112  0.00  0.00     0.009 A 
HETATM    5  C   UNK N   1      29.433  21.706  -6.428  0.00  0.00     0.015 A 
HETATM    6  C   UNK N   1      30.105  20.635  -7.043  0.00  0.00     0.001 A 
HETATM    7  C   UNK N   1      31.087  19.909  -6.337  0.00  0.00     0.002 A 
HETATM    8  C   UNK N   1      31.404  20.248  -5.011  0.00  0.00     0.030 A 
HETATM    9  C   UNK N   1      30.724  21.313  -4.427  0.00  0.00     0.046 A 
HETATM   10  N   UNK N   1      30.901  21.802  -3.119  0.00  0.00    -0.322 N 
HETATM   11  C   UNK N   1      28.338  24.036  -4.376  0.00  0.00     0.079 A 
HETATM   12  C   UNK N   1      27.531  24.338  -5.574  0.00  0.00     0.094 A 
HETATM   13  C   UNK N   1      26.716  25.497  -5.221  0.00  0.00     0.021 A 
HETATM   14  C   UNK N   1      25.792  26.227  -5.967  0.00  0.00     0.016 A 
HETATM   15  C   UNK N   1      25.179  27.335  -5.358  0.00  0.00     0.001 A 
HETATM   16  C   UNK N   1      25.501  27.689  -4.031  0.00  0.00     0.002 A 
HETATM   17  C   UNK N   1      26.437  26.936  -3.298  0.00  0.00     0.030 A 
HETATM   18  C   UNK N   1      27.028  25.841  -3.924  0.00  0.00     0.045 A 
HETATM   19  N   UNK N   1      27.998  24.978  -3.369  0.00  0.00    -0.353 N 
HETATM   20  N   UNK N   1      27.586  23.759  -6.719  0.00  0.00    -0.264 N 
ATOM     21  HN  UNK N   1      28.236  22.986  -6.859  1.00  0.00     0.194 HD
HETATM   22  H   UNK N   1      31.529  21.455  -2.444  0.00  0.00     0.169 HD
HETATM   23  H   UNK N   1      28.369  25.020  -2.458  0.00  0.00     0.166 HD
ENDROOT
BRANCH  20  24
HETATM   24  O   UNK N   1      26.819  24.148  -7.714  0.00  0.00    -0.280 OA
BRANCH  24  25
HETATM   25  C   UNK N   1      27.073  23.702  -8.984  0.00  0.00     0.204 C 
BRANCH  25  26
HETATM   26  C   UNK N   1      26.853  22.196  -9.113  0.00  0.00     0.062 C 
BRANCH  26  27
HETATM   27  C   UNK N   1      25.395  21.747  -9.052  0.00  0.00     0.143 C 
BRANCH  27  28
HETATM   28  O   UNK N   1      25.136  20.787 -10.034  0.00  0.00    -0.393 OA
HETATM   29  H   UNK N   1      25.557  20.297 -10.758  0.00  0.00     0.210 HD
ENDBRANCH  27  28
BRANCH  27  30
HETATM   30  C   UNK N   1      25.141  21.152  -7.678  0.00  0.00     0.195 C 
BRANCH  30  31
HETATM   31  O   UNK N   1      24.851  22.159  -6.757  0.00  0.00    -0.398 OA
HETATM   32  H   UNK N   1      24.125  22.073  -6.119  0.00  0.00     0.209 HD
ENDBRANCH  30  31
ENDBRANCH  27  30
ENDBRANCH  26  27
ENDBRANCH  25  26
ENDBRANCH  24  25
ENDBRANCH  20  24
TORSDOF 7
ENDMDL
MODEL 3
REMARK VINA RESULT:      -7.1     12.465     14.387
REMARK  7 active torsions:
REMARK  status: ('A' for Active; 'I' for Inactive)
REMARK    1  A    between atoms: N_20  and  O_22 
REMARK    2  A    between atoms: O_22  and  C_23 
REMARK    3  A    between atoms: C_23  and  C_24 
REMARK    4  A    between atoms: C_24  and  C_25 
REMARK    5  A    between atoms: C_25  and  O_26 
REMARK    6  A    between atoms: C_25  and  C_27 
REMARK    7  A    between atoms: C_27  and  O_28 
ROOT
HETATM    1  O   UNK N   1      27.119  16.339   6.021  0.00  0.00    -0.267 OA
HETATM    2  C   UNK N   1      26.603  17.226   5.363  0.00  0.00     0.259 A 
HETATM    3  C   UNK N   1      25.155  17.418   5.147  0.00  0.00     0.073 A 
HETATM    4  C   UNK N   1      25.091  18.616   4.295  0.00  0.00     0.009 A 
HETATM    5  C   UNK N   1      24.022  19.320   3.741  0.00  0.00     0.015 A 
HETATM    6  C   UNK N   1      24.298  20.456   2.961  0.00  0.00     0.001 A 
HETATM    7  C   UNK N   1      25.630  20.869   2.749  0.00  0.00     0.002 A 
HETATM    8  C   UNK N   1      26.695  20.149   3.314  0.00  0.00     0.030 A 
HETATM    9  C   UNK N   1      26.393  19.027   4.082  0.00  0.00     0.046 A 
HETATM   10  N   UNK N   1      27.316  18.183   4.728  0.00  0.00    -0.322 N 
HETATM   11  C   UNK N   1      24.167  16.642   5.651  0.00  0.00     0.079 A 
HETATM   12  C   UNK N   1      22.705  16.776   5.495  0.00  0.00     0.094 A 
HETATM   13  C   UNK N   1      22.122  15.687   6.273  0.00  0.00     0.021 A 
HETATM   14  C   UNK N   1      20.792  15.341   6.509  0.00  0.00     0.016 A 
HETATM   15  C   UNK N   1      20.533  14.242   7.344  0.00  0.00     0.001 A 
HETATM   16  C   UNK N   1      21.598  13.521   7.925  0.00  0.00     0.002 A 
HETATM   17  C   UNK N   1      22.932  13.890   7.673  0.00  0.00     0.030 A 
HETATM   18  C   UNK N   1      23.161  14.980   6.838  0.00  0.00     0.045 A 
HETATM   19  N   UNK N   1      24.418  15.517   6.480  0.00  0.00    -0.353 N 
HETATM   20  N   UNK N   1      22.069  17.702   4.873  0.00  0.00    -0.264 N 
ATOM     21  HN  UNK N   1      22.591  18.442   4.404  1.00  0.00     0.194 HD
HETATM   22  H   UNK N   1      28.296  18.273   4.721  0.00  0.00     0.169 HD
HETATM   23  H   UNK N   1      25.301  15.176   6.754  0.00  0.00     0.166 HD
ENDROOT
BRANCH  20  24
HETATM   24  O   UNK N   1      20.755  17.711   4.832  0.00  0.00    -0.280 OA
BRANCH  24  25
HETATM   25  C   UNK N   1      20.109  17.474   3.647  0.00  0.00     0.204 C 
BRANCH  25  26
HETATM   26  C   UNK N   1      20.639  18.361   2.522  0.00  0.00     0.062 C 
BRANCH  26  27
HETATM   27  C   UNK N   1      20.191  19.820   2.581  0.00  0.00     0.143 C 
BRANCH  27  28
HETATM   28  O   UNK N   1      20.517  20.383   3.817  0.00  0.00    -0.393 OA
HETATM   29  H   UNK N   1      20.962  21.145   4.220  0.00  0.00     0.210 HD
ENDBRANCH  27  28
BRANCH  27  30
HETATM   30  C   UNK N   1      20.900  20.577   1.472  0.00  0.00     0.195 C 
BRANCH  30  31
HETATM   31  O   UNK N   1      20.623  19.998   0.233  0.00  0.00    -0.398 OA
HETATM   32  H   UNK N   1      20.777  19.056   0.063  0.00  0.00     0.209 HD
ENDBRANCH  30  31
ENDBRANCH  27  30
ENDBRANCH  26  27
ENDBRANCH  25  26
ENDBRANCH  24  25
ENDBRANCH  20  24
TORSDOF 7
ENDMDL
MODEL 4
REMARK VINA RESULT:      -7.0     15.425     16.857
REMARK  7 active torsions:
REMARK  status: ('A' for Active; 'I' for Inactive)
REMARK    1  A    between atoms: N_20  and  O_22 
REMARK    2  A    between atoms: O_22  and  C_23 
REMARK    3  A    between atoms: C_23  and  C_24 
REMARK    4  A    between atoms: C_24  and  C_25 
REMARK    5  A    between atoms: C_25  and  O_26 
REMARK    6  A    between atoms: C_25  and  C_27 
REMARK    7  A    between atoms: C_27  and  O_28 
ROOT
HETATM    1  O   UNK N   1      19.425  14.362   9.192  0.00  0.00    -0.267 OA
HETATM    2  C   UNK N   1      20.524  13.926   9.490  0.00  0.00     0.259 A 
HETATM    3  C   UNK N   1      21.783  14.174   8.760  0.00  0.00     0.073 A 
HETATM    4  C   UNK N   1      22.784  13.425   9.537  0.00  0.00     0.009 A 
HETATM    5  C   UNK N   1      24.159  13.252   9.381  0.00  0.00     0.015 A 
HETATM    6  C   UNK N   1      24.847  12.464  10.321  0.00  0.00     0.001 A 
HETATM    7  C   UNK N   1      24.154  11.865  11.393  0.00  0.00     0.002 A 
HETATM    8  C   UNK N   1      22.769  12.049  11.535  0.00  0.00     0.030 A 
HETATM    9  C   UNK N   1      22.113  12.834  10.591  0.00  0.00     0.046 A 
HETATM   10  N   UNK N   1      20.737  13.135  10.564  0.00  0.00    -0.322 N 
HETATM   11  C   UNK N   1      21.920  14.932   7.647  0.00  0.00     0.079 A 
HETATM   12  C   UNK N   1      23.140  15.239   6.873  0.00  0.00     0.094 A 
HETATM   13  C   UNK N   1      22.711  16.122   5.792  0.00  0.00     0.021 A 
HETATM   14  C   UNK N   1      23.436  16.745   4.777  0.00  0.00     0.016 A 
HETATM   15  C   UNK N   1      22.743  17.581   3.887  0.00  0.00     0.001 A 
HETATM   16  C   UNK N   1      21.353  17.781   4.030  0.00  0.00     0.002 A 
HETATM   17  C   UNK N   1      20.643  17.141   5.063  0.00  0.00     0.030 A 
HETATM   18  C   UNK N   1      21.354  16.314   5.929  0.00  0.00     0.045 A 
HETATM   19  N   UNK N   1      20.831  15.605   7.033  0.00  0.00    -0.353 N 
HETATM   20  N   UNK N   1      24.343  14.876   7.136  0.00  0.00    -0.264 N 
ATOM     21  HN  UNK N   1      24.523  14.294   7.954  1.00  0.00     0.194 HD
HETATM   22  H   UNK N   1      20.058  12.829  11.208  0.00  0.00     0.169 HD
HETATM   23  H   UNK N   1      19.890  15.581   7.323  0.00  0.00     0.166 HD
ENDROOT
BRANCH  20  24
HETATM   24  O   UNK N   1      25.345  15.242   6.368  0.00  0.00    -0.280 OA
BRANCH  24  25
HETATM   25  C   UNK N   1      26.526  15.644   6.935  0.00  0.00     0.204 C 
BRANCH  25  26
HETATM   26  C   UNK N   1      27.161  16.801   6.166  0.00  0.00     0.062 C 
BRANCH  26  27
HETATM   27  C   UNK N   1      27.972  17.777   7.017  0.00  0.00     0.143 C 
BRANCH  27  28
HETATM   28  O   UNK N   1      27.383  19.043   7.005  0.00  0.00    -0.393 OA
HETATM   29  H   UNK N   1      27.583  19.982   6.864  0.00  0.00     0.210 HD
ENDBRANCH  27  28
BRANCH  27  30
HETATM   30  C   UNK N   1      28.009  17.244   8.439  0.00  0.00     0.195 C 
BRANCH  30  31
HETATM   31  O   UNK N   1      27.434  18.161   9.318  0.00  0.00    -0.398 OA
HETATM   32  H   UNK N   1      26.924  17.875  10.093  0.00  0.00     0.209 HD
ENDBRANCH  30  31
ENDBRANCH  27  30
ENDBRANCH  26  27
ENDBRANCH  25  26
ENDBRANCH  24  25
ENDBRANCH  20  24
TORSDOF 7
ENDMDL
MODEL 5
REMARK VINA RESULT:      -6.9     12.596     14.364
REMARK  7 active torsions:
REMARK  status: ('A' for Active; 'I' for Inactive)
REMARK    1  A    between atoms: N_20  and  O_22 
REMARK    2  A    between atoms: O_22  and  C_23 
REMARK    3  A    between atoms: C_23  and  C_24 
REMARK    4  A    between atoms: C_24  and  C_25 
REMARK    5  A    between atoms: C_25  and  O_26 
REMARK    6  A    between atoms: C_25  and  C_27 
REMARK    7  A    between atoms: C_27  and  O_28 
ROOT
HETATM    1  O   UNK N   1      20.794  17.549   4.652  0.00  0.00    -0.267 OA
HETATM    2  C   UNK N   1      21.852  18.083   4.368  0.00  0.00     0.259 A 
HETATM    3  C   UNK N   1      23.190  17.655   4.822  0.00  0.00     0.073 A 
HETATM    4  C   UNK N   1      24.094  18.632   4.195  0.00  0.00     0.009 A 
HETATM    5  C   UNK N   1      25.480  18.784   4.223  0.00  0.00     0.015 A 
HETATM    6  C   UNK N   1      26.055  19.840   3.494  0.00  0.00     0.001 A 
HETATM    7  C   UNK N   1      25.241  20.722   2.755  0.00  0.00     0.002 A 
HETATM    8  C   UNK N   1      23.846  20.556   2.738  0.00  0.00     0.030 A 
HETATM    9  C   UNK N   1      23.303  19.502   3.468  0.00  0.00     0.046 A 
HETATM   10  N   UNK N   1      21.938  19.172   3.573  0.00  0.00    -0.322 N 
HETATM   11  C   UNK N   1      23.456  16.594   5.620  0.00  0.00     0.079 A 
HETATM   12  C   UNK N   1      24.759  16.095   6.102  0.00  0.00     0.094 A 
HETATM   13  C   UNK N   1      24.458  14.911   6.902  0.00  0.00     0.021 A 
HETATM   14  C   UNK N   1      25.298  14.025   7.575  0.00  0.00     0.016 A 
HETATM   15  C   UNK N   1      24.712  12.937   8.243  0.00  0.00     0.001 A 
HETATM   16  C   UNK N   1      23.312  12.756   8.221  0.00  0.00     0.002 A 
HETATM   17  C   UNK N   1      22.486  13.664   7.533  0.00  0.00     0.030 A 
HETATM   18  C   UNK N   1      23.092  14.736   6.883  0.00  0.00     0.045 A 
HETATM   19  N   UNK N   1      22.444  15.738   6.127  0.00  0.00    -0.353 N 
HETATM   20  N   UNK N   1      25.924  16.552   5.815  0.00  0.00    -0.264 N 
ATOM     21  HN  UNK N   1      26.008  17.362   5.201  1.00  0.00     0.194 HD
HETATM   22  H   UNK N   1      21.187  19.645   3.146  0.00  0.00     0.169 HD
HETATM   23  H   UNK N   1      21.474  15.826   5.980  0.00  0.00     0.166 HD
ENDROOT
BRANCH  20  24
HETATM   24  O   UNK N   1      27.011  15.992   6.300  0.00  0.00    -0.280 OA
BRANCH  24  25
HETATM   25  C   UNK N   1      28.243  16.469   5.937  0.00  0.00     0.204 C 
BRANCH  25  26
HETATM   26  C   UNK N   1      29.054  16.930   7.146  0.00  0.00     0.062 C 
BRANCH  26  27
HETATM   27  C   UNK N   1      28.617  18.264   7.748  0.00  0.00     0.143 C 
BRANCH  27  28
HETATM   28  O   UNK N   1      27.560  18.809   7.015  0.00  0.00    -0.393 OA
HETATM   29  H   UNK N   1      27.178  18.838   6.124  0.00  0.00     0.210 HD
ENDBRANCH  27  28
BRANCH  27  30
HETATM   30  C   UNK N   1      28.173  18.013   9.178  0.00  0.00     0.195 C 
BRANCH  30  31
HETATM   31  O   UNK N   1      27.323  16.909   9.238  0.00  0.00    -0.398 OA
HETATM   32  H   UNK N   1      27.666  16.001   9.237  0.00  0.00     0.209 HD
ENDBRANCH  30  31
ENDBRANCH  27  30
ENDBRANCH  26  27
ENDBRANCH  25  26
ENDBRANCH  24  25
ENDBRANCH  20  24
TORSDOF 7
ENDMDL
MODEL 6
REMARK VINA RESULT:      -6.7     11.934     15.308
REMARK  7 active torsions:
REMARK  status: ('A' for Active; 'I' for Inactive)
REMARK    1  A    between atoms: N_20  and  O_22 
REMARK    2  A    between atoms: O_22  and  C_23 
REMARK    3  A    between atoms: C_23  and  C_24 
REMARK    4  A    between atoms: C_24  and  C_25 
REMARK    5  A    between atoms: C_25  and  O_26 
REMARK    6  A    between atoms: C_25  and  C_27 
REMARK    7  A    between atoms: C_27  and  O_28 
ROOT
HETATM    1  O   UNK N   1      29.308  18.645   9.841  0.00  0.00    -0.267 OA
HETATM    2  C   UNK N   1      28.916  18.636   8.687  0.00  0.00     0.259 A 
HETATM    3  C   UNK N   1      29.412  17.758   7.609  0.00  0.00     0.073 A 
HETATM    4  C   UNK N   1      28.608  18.158   6.443  0.00  0.00     0.009 A 
HETATM    5  C   UNK N   1      28.583  17.715   5.121  0.00  0.00     0.015 A 
HETATM    6  C   UNK N   1      27.671  18.309   4.231  0.00  0.00     0.001 A 
HETATM    7  C   UNK N   1      26.804  19.330   4.673  0.00  0.00     0.002 A 
HETATM    8  C   UNK N   1      26.843  19.764   6.009  0.00  0.00     0.030 A 
HETATM    9  C   UNK N   1      27.755  19.159   6.868  0.00  0.00     0.046 A 
HETATM   10  N   UNK N   1      27.942  19.454   8.233  0.00  0.00    -0.322 N 
HETATM   11  C   UNK N   1      30.378  16.817   7.731  0.00  0.00     0.079 A 
HETATM   12  C   UNK N   1      30.915  15.895   6.711  0.00  0.00     0.094 A 
HETATM   13  C   UNK N   1      31.914  15.082   7.399  0.00  0.00     0.021 A 
HETATM   14  C   UNK N   1      32.716  14.038   6.941  0.00  0.00     0.016 A 
HETATM   15  C   UNK N   1      33.574  13.411   7.860  0.00  0.00     0.001 A 
HETATM   16  C   UNK N   1      33.610  13.835   9.206  0.00  0.00     0.002 A 
HETATM   17  C   UNK N   1      32.790  14.891   9.644  0.00  0.00     0.030 A 
HETATM   18  C   UNK N   1      31.952  15.497   8.712  0.00  0.00     0.045 A 
HETATM   19  N   UNK N   1      31.045  16.553   8.956  0.00  0.00    -0.353 N 
HETATM   20  N   UNK N   1      30.531  15.771   5.492  0.00  0.00    -0.264 N 
ATOM     21  HN  UNK N   1      29.784  16.368   5.138  1.00  0.00     0.194 HD
HETATM   22  H   UNK N   1      27.452  20.128   8.758  0.00  0.00     0.169 HD
HETATM   23  H   UNK N   1      30.903  17.017   9.813  0.00  0.00     0.166 HD
ENDROOT
BRANCH  20  24
HETATM   24  O   UNK N   1      31.086  14.886   4.693  0.00  0.00    -0.280 OA
BRANCH  24  25
HETATM   25  C   UNK N   1      31.616  15.288   3.495  0.00  0.00     0.204 C 
BRANCH  25  26
HETATM   26  C   UNK N   1      33.007  15.894   3.663  0.00  0.00     0.062 C 
BRANCH  26  27
HETATM   27  C   UNK N   1      33.030  17.394   3.949  0.00  0.00     0.143 C 
BRANCH  27  28
HETATM   28  O   UNK N   1      31.743  17.929   3.861  0.00  0.00    -0.393 OA
HETATM   29  H   UNK N   1      31.081  18.424   4.369  0.00  0.00     0.210 HD
ENDBRANCH  27  28
BRANCH  27  30
HETATM   30  C   UNK N   1      33.575  17.599   5.352  0.00  0.00     0.195 C 
BRANCH  30  31
HETATM   31  O   UNK N   1      34.555  16.648   5.637  0.00  0.00    -0.398 OA
HETATM   32  H   UNK N   1      35.445  16.904   5.927  0.00  0.00     0.209 HD
ENDBRANCH  30  31
ENDBRANCH  27  30
ENDBRANCH  26  27
ENDBRANCH  25  26
ENDBRANCH  24  25
ENDBRANCH  20  24
TORSDOF 7
ENDMDL
MODEL 7
REMARK VINA RESULT:      -6.6      2.002      4.944
REMARK  7 active torsions:
REMARK  status: ('A' for Active; 'I' for Inactive)
REMARK    1  A    between atoms: N_20  and  O_22 
REMARK    2  A    between atoms: O_22  and  C_23 
REMARK    3  A    between atoms: C_23  and  C_24 
REMARK    4  A    between atoms: C_24  and  C_25 
REMARK    5  A    between atoms: C_25  and  O_26 
REMARK    6  A    between atoms: C_25  and  C_27 
REMARK    7  A    between atoms: C_27  and  O_28 
ROOT
HETATM    1  O   UNK N   1      30.531  24.061  -2.989  0.00  0.00    -0.267 OA
HETATM    2  C   UNK N   1      30.261  23.307  -3.908  0.00  0.00     0.259 A 
HETATM    3  C   UNK N   1      29.104  23.427  -4.817  0.00  0.00     0.073 A 
HETATM    4  C   UNK N   1      29.259  22.276  -5.722  0.00  0.00     0.009 A 
HETATM    5  C   UNK N   1      28.503  21.821  -6.803  0.00  0.00     0.015 A 
HETATM    6  C   UNK N   1      28.931  20.667  -7.482  0.00  0.00     0.001 A 
HETATM    7  C   UNK N   1      30.100  19.991  -7.074  0.00  0.00     0.002 A 
HETATM    8  C   UNK N   1      30.849  20.463  -5.983  0.00  0.00     0.030 A 
HETATM    9  C   UNK N   1      30.402  21.607  -5.328  0.00  0.00     0.046 A 
HETATM   10  N   UNK N   1      31.013  22.231  -4.223  0.00  0.00    -0.322 N 
HETATM   11  C   UNK N   1      28.161  24.397  -4.781  0.00  0.00     0.079 A 
HETATM   12  C   UNK N   1      26.991  24.593  -5.660  0.00  0.00     0.094 A 
HETATM   13  C   UNK N   1      26.338  25.810  -5.185  0.00  0.00     0.021 A 
HETATM   14  C   UNK N   1      25.211  26.485  -5.651  0.00  0.00     0.016 A 
HETATM   15  C   UNK N   1      24.836  27.672  -5.001  0.00  0.00     0.001 A 
HETATM   16  C   UNK N   1      25.590  28.159  -3.912  0.00  0.00     0.002 A 
HETATM   17  C   UNK N   1      26.725  27.460  -3.461  0.00  0.00     0.030 A 
HETATM   18  C   UNK N   1      27.072  26.284  -4.120  0.00  0.00     0.045 A 
HETATM   19  N   UNK N   1      28.180  25.454  -3.834  0.00  0.00    -0.353 N 
HETATM   20  N   UNK N   1      26.656  23.890  -6.681  0.00  0.00    -0.264 N 
ATOM     21  HN  UNK N   1      27.223  23.085  -6.944  1.00  0.00     0.194 HD
HETATM   22  H   UNK N   1      31.835  21.938  -3.767  0.00  0.00     0.169 HD
HETATM   23  H   UNK N   1      28.839  25.584  -3.114  0.00  0.00     0.166 HD
ENDROOT
BRANCH  20  24
HETATM   24  O   UNK N   1      25.592  24.193  -7.393  0.00  0.00    -0.280 OA
BRANCH  24  25
HETATM   25  C   UNK N   1      25.515  23.798  -8.703  0.00  0.00     0.204 C 
BRANCH  25  26
HETATM   26  C   UNK N   1      25.513  24.990  -9.657  0.00  0.00     0.062 C 
BRANCH  26  27
HETATM   27  C   UNK N   1      26.839  25.742  -9.757  0.00  0.00     0.143 C 
BRANCH  27  28
HETATM   28  O   UNK N   1      27.065  26.492  -8.601  0.00  0.00    -0.393 OA
HETATM   29  H   UNK N   1      26.626  26.820  -7.800  0.00  0.00     0.210 HD
ENDBRANCH  27  28
BRANCH  27  30
HETATM   30  C   UNK N   1      27.948  24.719  -9.928  0.00  0.00     0.195 C 
BRANCH  30  31
HETATM   31  O   UNK N   1      28.801  24.734  -8.824  0.00  0.00    -0.398 OA
HETATM   32  H   UNK N   1      28.781  25.455  -8.174  0.00  0.00     0.209 HD
ENDBRANCH  30  31
ENDBRANCH  27  30
ENDBRANCH  26  27
ENDBRANCH  25  26
ENDBRANCH  24  25
ENDBRANCH  20  24
TORSDOF 7
ENDMDL
MODEL 8
REMARK VINA RESULT:      -6.6     14.080     18.183
REMARK  7 active torsions:
REMARK  status: ('A' for Active; 'I' for Inactive)
REMARK    1  A    between atoms: N_20  and  O_22 
REMARK    2  A    between atoms: O_22  and  C_23 
REMARK    3  A    between atoms: C_23  and  C_24 
REMARK    4  A    between atoms: C_24  and  C_25 
REMARK    5  A    between atoms: C_25  and  O_26 
REMARK    6  A    between atoms: C_25  and  C_27 
REMARK    7  A    between atoms: C_27  and  O_28 
ROOT
HETATM    1  O   UNK N   1      34.941  18.484   8.734  0.00  0.00    -0.267 OA
HETATM    2  C   UNK N   1      34.938  17.419   9.327  0.00  0.00     0.259 A 
HETATM    3  C   UNK N   1      34.381  16.147   8.825  0.00  0.00     0.073 A 
HETATM    4  C   UNK N   1      34.642  15.202   9.923  0.00  0.00     0.009 A 
HETATM    5  C   UNK N   1      34.367  13.843  10.080  0.00  0.00     0.015 A 
HETATM    6  C   UNK N   1      34.761  13.212  11.273  0.00  0.00     0.001 A 
HETATM    7  C   UNK N   1      35.418  13.943  12.284  0.00  0.00     0.002 A 
HETATM    8  C   UNK N   1      35.686  15.312  12.110  0.00  0.00     0.030 A 
HETATM    9  C   UNK N   1      35.285  15.911  10.919  0.00  0.00     0.046 A 
HETATM   10  N   UNK N   1      35.465  17.261  10.561  0.00  0.00    -0.322 N 
HETATM   11  C   UNK N   1      33.790  15.958   7.622  0.00  0.00     0.079 A 
HETATM   12  C   UNK N   1      33.226  14.721   7.045  0.00  0.00     0.094 A 
HETATM   13  C   UNK N   1      32.748  15.087   5.715  0.00  0.00     0.021 A 
HETATM   14  C   UNK N   1      32.152  14.321   4.715  0.00  0.00     0.016 A 
HETATM   15  C   UNK N   1      31.825  14.954   3.504  0.00  0.00     0.001 A 
HETATM   16  C   UNK N   1      32.102  16.325   3.318  0.00  0.00     0.002 A 
HETATM   17  C   UNK N   1      32.705  17.077   4.343  0.00  0.00     0.030 A 
HETATM   18  C   UNK N   1      33.015  16.427   5.534  0.00  0.00     0.045 A 
HETATM   19  N   UNK N   1      33.637  16.997   6.667  0.00  0.00    -0.353 N 
HETATM   20  N   UNK N   1      33.227  13.547   7.565  0.00  0.00    -0.264 N 
ATOM     21  HN  UNK N   1      33.637  13.407   8.488  1.00  0.00     0.194 HD
HETATM   22  H   UNK N   1      35.896  17.959  11.106  0.00  0.00     0.169 HD
HETATM   23  H   UNK N   1      33.912  17.937   6.774  0.00  0.00     0.166 HD
ENDROOT
BRANCH  20  24
HETATM   24  O   UNK N   1      32.706  12.522   6.926  0.00  0.00    -0.280 OA
BRANCH  24  25
HETATM   25  C   UNK N   1      33.427  11.365   6.792  0.00  0.00     0.204 C 
BRANCH  25  26
HETATM   26  C   UNK N   1      33.999  10.893   8.127  0.00  0.00     0.062 C 
BRANCH  26  27
HETATM   27  C   UNK N   1      32.982  10.276   9.085  0.00  0.00     0.143 C 
BRANCH  27  28
HETATM   28  O   UNK N   1      32.059  11.236   9.505  0.00  0.00    -0.393 OA
HETATM   29  H   UNK N   1      31.536  11.989   9.187  0.00  0.00     0.210 HD
ENDBRANCH  27  28
BRANCH  27  30
HETATM   30  C   UNK N   1      32.261   9.159   8.351  0.00  0.00     0.195 C 
BRANCH  30  31
HETATM   31  O   UNK N   1      30.880   9.330   8.438  0.00  0.00    -0.398 OA
HETATM   32  H   UNK N   1      30.262   8.606   8.249  0.00  0.00     0.209 HD
ENDBRANCH  30  31
ENDBRANCH  27  30
ENDBRANCH  26  27
ENDBRANCH  25  26
ENDBRANCH  24  25
ENDBRANCH  20  24
TORSDOF 7
ENDMDL
MODEL 9
REMARK VINA RESULT:      -6.5     12.128     13.637
REMARK  7 active torsions:
REMARK  status: ('A' for Active; 'I' for Inactive)
REMARK    1  A    between atoms: N_20  and  O_22 
REMARK    2  A    between atoms: O_22  and  C_23 
REMARK    3  A    between atoms: C_23  and  C_24 
REMARK    4  A    between atoms: C_24  and  C_25 
REMARK    5  A    between atoms: C_25  and  O_26 
REMARK    6  A    between atoms: C_25  and  C_27 
REMARK    7  A    between atoms: C_27  and  O_28 
ROOT
HETATM    1  O   UNK N   1      26.693  20.926   3.073  0.00  0.00    -0.267 OA
HETATM    2  C   UNK N   1      26.886  19.941   3.764  0.00  0.00     0.259 A 
HETATM    3  C   UNK N   1      25.853  19.000   4.241  0.00  0.00     0.073 A 
HETATM    4  C   UNK N   1      26.621  18.013   5.018  0.00  0.00     0.009 A 
HETATM    5  C   UNK N   1      26.242  16.872   5.724  0.00  0.00     0.015 A 
HETATM    6  C   UNK N   1      27.239  16.120   6.369  0.00  0.00     0.001 A 
HETATM    7  C   UNK N   1      28.590  16.517   6.298  0.00  0.00     0.002 A 
HETATM    8  C   UNK N   1      28.955  17.670   5.583  0.00  0.00     0.030 A 
HETATM    9  C   UNK N   1      27.947  18.396   4.954  0.00  0.00     0.046 A 
HETATM   10  N   UNK N   1      28.112  19.570   4.194  0.00  0.00    -0.322 N 
HETATM   11  C   UNK N   1      24.527  19.077   3.982  0.00  0.00     0.079 A 
HETATM   12  C   UNK N   1      23.440  18.173   4.407  0.00  0.00     0.094 A 
HETATM   13  C   UNK N   1      22.219  18.718   3.819  0.00  0.00     0.021 A 
HETATM   14  C   UNK N   1      20.902  18.264   3.863  0.00  0.00     0.016 A 
HETATM   15  C   UNK N   1      19.928  18.991   3.158  0.00  0.00     0.001 A 
HETATM   16  C   UNK N   1      20.289  20.143   2.428  0.00  0.00     0.002 A 
HETATM   17  C   UNK N   1      21.626  20.581   2.398  0.00  0.00     0.030 A 
HETATM   18  C   UNK N   1      22.570  19.844   3.108  0.00  0.00     0.045 A 
HETATM   19  N   UNK N   1      23.956  20.106   3.187  0.00  0.00    -0.353 N 
HETATM   20  N   UNK N   1      23.549  17.087   5.083  0.00  0.00    -0.264 N 
ATOM     21  HN  UNK N   1      24.469  16.783   5.399  1.00  0.00     0.194 HD
HETATM   22  H   UNK N   1      28.961  20.033   4.008  0.00  0.00     0.169 HD
HETATM   23  H   UNK N   1      24.435  20.859   2.770  0.00  0.00     0.166 HD
ENDROOT
BRANCH  20  24
HETATM   24  O   UNK N   1      22.491  16.361   5.375  0.00  0.00    -0.280 OA
BRANCH  24  25
HETATM   25  C   UNK N   1      22.399  15.752   6.599  0.00  0.00     0.204 C 
BRANCH  25  26
HETATM   26  C   UNK N   1      20.972  15.781   7.142  0.00  0.00     0.062 C 
BRANCH  26  27
HETATM   27  C   UNK N   1      20.634  16.989   8.013  0.00  0.00     0.143 C 
BRANCH  27  28
HETATM   28  O   UNK N   1      20.889  18.177   7.323  0.00  0.00    -0.393 OA
HETATM   29  H   UNK N   1      20.594  18.701   6.562  0.00  0.00     0.210 HD
ENDBRANCH  27  28
BRANCH  27  30
HETATM   30  C   UNK N   1      19.161  16.913   8.374  0.00  0.00     0.195 C 
BRANCH  30  31
HETATM   31  O   UNK N   1      18.769  18.057   9.068  0.00  0.00    -0.398 OA
HETATM   32  H   UNK N   1      18.342  18.805   8.621  0.00  0.00     0.209 HD
ENDBRANCH  30  31
ENDBRANCH  27  30
ENDBRANCH  26  27
ENDBRANCH  25  26
ENDBRANCH  24  25
ENDBRANCH  20  24
TORSDOF 7
ENDMDL
