MODEL 1
REMARK VINA RESULT:      -7.7      0.000      0.000
REMARK  8 active torsions:
REMARK  status: ('A' for Active; 'I' for Inactive)
REMARK    1  A    between atoms: C_7  and  O_8 
REMARK    2  A    between atoms: O_8  and  C_9 
REMARK    3  A    between atoms: C_9  and  C_10 
REMARK    4  A    between atoms: C_10  and  O_11 
REMARK    5  A    between atoms: C_10  and  C_13 
REMARK       I    between atoms: C_13  and  N_15 
REMARK    6  A    between atoms: N_15  and  C_16 
REMARK    7  A    between atoms: C_20  and  N_21 
REMARK    8  A    between atoms: C_24  and  C_25 
ROOT
HETATM    1  C   UNK N   1      35.073  13.798  11.917  0.00  0.00     0.258 C 
HETATM    2  O   UNK N   1      35.664  14.869  11.978  0.00  0.00    -0.270 OA
HETATM    3  N   UNK N   1      34.258  13.509  10.862  0.00  0.00    -0.325 N 
HETATM    4  H   UNK N   1      33.697  12.700  10.917  0.00  0.00     0.169 HD
ENDROOT
BRANCH   1   5
HETATM    5  C   UNK N   1      35.271  12.804  13.021  0.00  0.00     0.156 C 
HETATM    6  C   UNK N   1      36.437  11.899  12.664  0.00  0.00     0.059 C 
BRANCH   5   7
HETATM    7  C   UNK N   1      35.608  13.543  14.319  0.00  0.00     0.223 C 
BRANCH   7   8
HETATM    8  O   UNK N   1      34.642  13.319  15.275  0.00  0.00    -0.348 OA
BRANCH   8   9
HETATM    9  C   UNK N   1      34.947  12.796  16.484  0.00  0.00     0.069 A 
HETATM   10  C   UNK N   1      34.951  13.632  17.605  0.00  0.00     0.040 A 
HETATM   11  C   UNK N   1      35.211  13.103  18.872  0.00  0.00     0.045 A 
HETATM   12  C   UNK N   1      35.475  11.738  19.022  0.00  0.00     0.116 A 
HETATM   13  F   UNK N   1      35.717  11.227  20.251  0.00  0.00    -0.206 F 
HETATM   14  C   UNK N   1      35.487  10.900  17.905  0.00  0.00     0.045 A 
HETATM   15  C   UNK N   1      35.220  11.425  16.640  0.00  0.00     0.040 A 
ENDBRANCH   8   9
ENDBRANCH   7   8
ENDBRANCH   5   7
BRANCH   5  16
HETATM   16  O   UNK N   1      34.130  12.004  13.170  0.00  0.00    -0.378 OA
HETATM   17  H   UNK N   1      34.055  11.160  13.642  0.00  0.00     0.211 HD
ENDBRANCH   5  16
ENDBRANCH   1   5
BRANCH   3  18
HETATM   18  C   UNK N   1      34.169  14.306   9.686  0.00  0.00     0.035 A 
HETATM   19  C   UNK N   1      33.087  15.157   9.491  0.00  0.00     0.048 A 
HETATM   20  C   UNK N   1      32.971  16.017   8.399  0.00  0.00     0.083 A 
HETATM   21  C   UNK N   1      34.041  16.013   7.426  0.00  0.00     0.118 A 
HETATM   22  C   UNK N   1      35.131  15.143   7.644  0.00  0.00     0.039 A 
HETATM   23  C   UNK N   1      35.204  14.308   8.761  0.00  0.00     0.032 A 
BRANCH  20  24
HETATM   24  C   UNK N   1      31.687  16.838   8.451  0.00  0.00     0.419 C 
HETATM   25  F   UNK N   1      32.026  18.161   8.684  0.00  0.00    -0.166 F 
HETATM   26  F   UNK N   1      30.741  16.496   9.382  0.00  0.00    -0.166 F 
HETATM   27  F   UNK N   1      31.077  16.766   7.210  0.00  0.00    -0.166 F 
ENDBRANCH  20  24
BRANCH  21  28
HETATM   28  N   UNK N   1      34.100  16.831   6.247  0.00  0.00    -0.115 N 
HETATM   29  O   UNK N   1      34.291  18.001   6.298  0.00  0.00    -0.532 OA
HETATM   30  O   UNK N   1      33.959  16.268   5.064  0.00  0.00    -0.532 OA
ENDBRANCH  21  28
ENDBRANCH   3  18
TORSDOF 8
ENDMDL
MODEL 2
REMARK VINA RESULT:      -7.7      2.672      9.646
REMARK  8 active torsions:
REMARK  status: ('A' for Active; 'I' for Inactive)
REMARK    1  A    between atoms: C_7  and  O_8 
REMARK    2  A    between atoms: O_8  and  C_9 
REMARK    3  A    between atoms: C_9  and  C_10 
REMARK    4  A    between atoms: C_10  and  O_11 
REMARK    5  A    between atoms: C_10  and  C_13 
REMARK       I    between atoms: C_13  and  N_15 
REMARK    6  A    between atoms: N_15  and  C_16 
REMARK    7  A    between atoms: C_20  and  N_21 
REMARK    8  A    between atoms: C_24  and  C_25 
ROOT
HETATM    1  C   UNK N   1      35.752  14.449  11.916  0.00  0.00     0.258 C 
HETATM    2  O   UNK N   1      34.598  14.133  12.175  0.00  0.00    -0.270 OA
HETATM    3  N   UNK N   1      36.782  14.053  12.718  0.00  0.00    -0.325 N 
HETATM    4  H   UNK N   1      37.673  14.440  12.554  0.00  0.00     0.169 HD
ENDROOT
BRANCH   1   5
HETATM    5  C   UNK N   1      36.015  15.272  10.691  0.00  0.00     0.156 C 
HETATM    6  C   UNK N   1      36.343  14.343   9.536  0.00  0.00     0.059 C 
BRANCH   5   7
HETATM    7  C   UNK N   1      34.757  16.068  10.332  0.00  0.00     0.223 C 
BRANCH   7   8
HETATM    8  O   UNK N   1      34.938  16.767   9.159  0.00  0.00    -0.348 OA
BRANCH   8   9
HETATM    9  C   UNK N   1      33.957  16.869   8.234  0.00  0.00     0.069 A 
HETATM   10  C   UNK N   1      32.649  16.530   8.591  0.00  0.00     0.040 A 
HETATM   11  C   UNK N   1      31.610  16.677   7.667  0.00  0.00     0.045 A 
HETATM   12  C   UNK N   1      31.878  17.157   6.381  0.00  0.00     0.116 A 
HETATM   13  F   UNK N   1      30.869  17.308   5.492  0.00  0.00    -0.206 F 
HETATM   14  C   UNK N   1      33.184  17.484   6.013  0.00  0.00     0.045 A 
HETATM   15  C   UNK N   1      34.221  17.345   6.937  0.00  0.00     0.040 A 
ENDBRANCH   8   9
ENDBRANCH   7   8
ENDBRANCH   5   7
BRANCH   5  16
HETATM   16  O   UNK N   1      37.114  16.117  10.895  0.00  0.00    -0.378 OA
HETATM   17  H   UNK N   1      37.619  16.605  10.226  0.00  0.00     0.211 HD
ENDBRANCH   5  16
ENDBRANCH   1   5
BRANCH   3  18
HETATM   18  C   UNK N   1      36.646  13.115  13.779  0.00  0.00     0.035 A 
HETATM   19  C   UNK N   1      36.073  13.494  14.988  0.00  0.00     0.048 A 
HETATM   20  C   UNK N   1      35.843  12.612  16.043  0.00  0.00     0.083 A 
HETATM   21  C   UNK N   1      36.226  11.230  15.856  0.00  0.00     0.118 A 
HETATM   22  C   UNK N   1      36.804  10.864  14.620  0.00  0.00     0.039 A 
HETATM   23  C   UNK N   1      37.003  11.787  13.591  0.00  0.00     0.032 A 
BRANCH  20  24
HETATM   24  C   UNK N   1      35.195  13.303  17.238  0.00  0.00     0.419 C 
HETATM   25  F   UNK N   1      35.915  14.453  17.517  0.00  0.00    -0.166 F 
HETATM   26  F   UNK N   1      35.092  12.599  18.410  0.00  0.00    -0.166 F 
HETATM   27  F   UNK N   1      33.913  13.679  16.876  0.00  0.00    -0.166 F 
ENDBRANCH  20  24
BRANCH  21  28
HETATM   28  N   UNK N   1      36.062  10.180  16.821  0.00  0.00    -0.115 N 
HETATM   29  O   UNK N   1      36.980   9.714  17.411  0.00  0.00    -0.532 OA
HETATM   30  O   UNK N   1      34.852   9.728  17.083  0.00  0.00    -0.532 OA
ENDBRANCH  21  28
ENDBRANCH   3  18
TORSDOF 8
ENDMDL
MODEL 3
REMARK VINA RESULT:      -7.6      1.701      2.064
REMARK  8 active torsions:
REMARK  status: ('A' for Active; 'I' for Inactive)
REMARK    1  A    between atoms: C_7  and  O_8 
REMARK    2  A    between atoms: O_8  and  C_9 
REMARK    3  A    between atoms: C_9  and  C_10 
REMARK    4  A    between atoms: C_10  and  O_11 
REMARK    5  A    between atoms: C_10  and  C_13 
REMARK       I    between atoms: C_13  and  N_15 
REMARK    6  A    between atoms: N_15  and  C_16 
REMARK    7  A    between atoms: C_20  and  N_21 
REMARK    8  A    between atoms: C_24  and  C_25 
ROOT
HETATM    1  C   UNK N   1      35.151  12.612  11.665  0.00  0.00     0.258 C 
HETATM    2  O   UNK N   1      35.993  12.443  10.792  0.00  0.00    -0.270 OA
HETATM    3  N   UNK N   1      34.494  13.802  11.781  0.00  0.00    -0.325 N 
HETATM    4  H   UNK N   1      33.927  13.944  12.575  0.00  0.00     0.169 HD
ENDROOT
BRANCH   1   5
HETATM    5  C   UNK N   1      34.844  11.480  12.598  0.00  0.00     0.156 C 
HETATM    6  C   UNK N   1      36.053  10.565  12.675  0.00  0.00     0.059 C 
BRANCH   5   7
HETATM    7  C   UNK N   1      34.565  12.035  13.998  0.00  0.00     0.223 C 
BRANCH   7   8
HETATM    8  O   UNK N   1      35.530  11.622  14.890  0.00  0.00    -0.348 OA
BRANCH   8   9
HETATM    9  C   UNK N   1      35.455  11.920  16.207  0.00  0.00     0.069 A 
HETATM   10  C   UNK N   1      35.285  13.253  16.593  0.00  0.00     0.040 A 
HETATM   11  C   UNK N   1      35.152  13.579  17.946  0.00  0.00     0.045 A 
HETATM   12  C   UNK N   1      35.195  12.573  18.917  0.00  0.00     0.116 A 
HETATM   13  F   UNK N   1      35.056  12.891  20.225  0.00  0.00    -0.206 F 
HETATM   14  C   UNK N   1      35.380  11.242  18.539  0.00  0.00     0.045 A 
HETATM   15  C   UNK N   1      35.505  10.914  17.189  0.00  0.00     0.040 A 
ENDBRANCH   8   9
ENDBRANCH   7   8
ENDBRANCH   5   7
BRANCH   5  16
HETATM   16  O   UNK N   1      33.761  10.731  12.120  0.00  0.00    -0.378 OA
HETATM   17  H   UNK N   1      33.497  10.594  11.197  0.00  0.00     0.211 HD
ENDBRANCH   5  16
ENDBRANCH   1   5
BRANCH   3  18
HETATM   18  C   UNK N   1      34.579  14.852  10.824  0.00  0.00     0.035 A 
HETATM   19  C   UNK N   1      33.797  14.824   9.675  0.00  0.00     0.048 A 
HETATM   20  C   UNK N   1      33.776  15.851   8.731  0.00  0.00     0.083 A 
HETATM   21  C   UNK N   1      34.617  17.002   8.975  0.00  0.00     0.118 A 
HETATM   22  C   UNK N   1      35.402  17.012  10.149  0.00  0.00     0.039 A 
HETATM   23  C   UNK N   1      35.378  15.961  11.067  0.00  0.00     0.032 A 
BRANCH  20  24
HETATM   24  C   UNK N   1      32.820  15.553   7.581  0.00  0.00     0.419 C 
HETATM   25  F   UNK N   1      33.573  15.276   6.452  0.00  0.00    -0.166 F 
HETATM   26  F   UNK N   1      31.912  16.519   7.232  0.00  0.00    -0.166 F 
HETATM   27  F   UNK N   1      32.098  14.416   7.902  0.00  0.00    -0.166 F 
ENDBRANCH  20  24
BRANCH  21  28
HETATM   28  N   UNK N   1      34.722  18.154   8.125  0.00  0.00    -0.115 N 
HETATM   29  O   UNK N   1      34.323  18.154   7.007  0.00  0.00    -0.532 OA
HETATM   30  O   UNK N   1      35.260  19.259   8.600  0.00  0.00    -0.532 OA
ENDBRANCH  21  28
ENDBRANCH   3  18
TORSDOF 8
ENDMDL
MODEL 4
REMARK VINA RESULT:      -7.5     11.469     13.193
REMARK  8 active torsions:
REMARK  status: ('A' for Active; 'I' for Inactive)
REMARK    1  A    between atoms: C_7  and  O_8 
REMARK    2  A    between atoms: O_8  and  C_9 
REMARK    3  A    between atoms: C_9  and  C_10 
REMARK    4  A    between atoms: C_10  and  O_11 
REMARK    5  A    between atoms: C_10  and  C_13 
REMARK       I    between atoms: C_13  and  N_15 
REMARK    6  A    between atoms: N_15  and  C_16 
REMARK    7  A    between atoms: C_20  and  N_21 
REMARK    8  A    between atoms: C_24  and  C_25 
ROOT
HETATM    1  C   UNK N   1      21.231  15.613   6.457  0.00  0.00     0.258 C 
HETATM    2  O   UNK N   1      20.891  16.592   7.109  0.00  0.00    -0.270 OA
HETATM    3  N   UNK N   1      21.811  15.759   5.230  0.00  0.00    -0.325 N 
HETATM    4  H   UNK N   1      21.944  14.951   4.681  0.00  0.00     0.169 HD
ENDROOT
BRANCH   1   5
HETATM    5  C   UNK N   1      21.009  14.249   7.037  0.00  0.00     0.156 C 
HETATM    6  C   UNK N   1      20.565  13.310   5.929  0.00  0.00     0.059 C 
BRANCH   5   7
HETATM    7  C   UNK N   1      22.323  13.724   7.621  0.00  0.00     0.223 C 
BRANCH   7   8
HETATM    8  O   UNK N   1      22.124  12.531   8.281  0.00  0.00    -0.348 OA
BRANCH   8   9
HETATM    9  C   UNK N   1      22.459  12.374   9.581  0.00  0.00     0.069 A 
HETATM   10  C   UNK N   1      21.451  12.387  10.549  0.00  0.00     0.040 A 
HETATM   11  C   UNK N   1      21.768  12.173  11.894  0.00  0.00     0.045 A 
HETATM   12  C   UNK N   1      23.095  11.954  12.276  0.00  0.00     0.116 A 
HETATM   13  F   UNK N   1      23.397  11.738  13.577  0.00  0.00    -0.206 F 
HETATM   14  C   UNK N   1      24.109  11.955  11.316  0.00  0.00     0.045 A 
HETATM   15  C   UNK N   1      23.794  12.160   9.972  0.00  0.00     0.040 A 
ENDBRANCH   8   9
ENDBRANCH   7   8
ENDBRANCH   5   7
BRANCH   5  16
HETATM   16  O   UNK N   1      19.998  14.288   8.006  0.00  0.00    -0.378 OA
HETATM   17  H   UNK N   1      20.101  14.384   8.966  0.00  0.00     0.211 HD
ENDBRANCH   5  16
ENDBRANCH   1   5
BRANCH   3  18
HETATM   18  C   UNK N   1      22.235  17.007   4.696  0.00  0.00     0.035 A 
HETATM   19  C   UNK N   1      23.552  17.429   4.848  0.00  0.00     0.048 A 
HETATM   20  C   UNK N   1      24.053  18.604   4.290  0.00  0.00     0.083 A 
HETATM   21  C   UNK N   1      23.145  19.419   3.514  0.00  0.00     0.118 A 
HETATM   22  C   UNK N   1      21.813  18.972   3.370  0.00  0.00     0.039 A 
HETATM   23  C   UNK N   1      21.364  17.780   3.941  0.00  0.00     0.032 A 
BRANCH  20  24
HETATM   24  C   UNK N   1      25.530  18.807   4.612  0.00  0.00     0.419 C 
HETATM   25  F   UNK N   1      25.666  20.005   5.294  0.00  0.00    -0.166 F 
HETATM   26  F   UNK N   1      26.418  18.835   3.568  0.00  0.00    -0.166 F 
HETATM   27  F   UNK N   1      25.932  17.787   5.458  0.00  0.00    -0.166 F 
ENDBRANCH  20  24
BRANCH  21  28
HETATM   28  N   UNK N   1      23.480  20.653   2.860  0.00  0.00    -0.115 N 
HETATM   29  O   UNK N   1      24.490  20.792   2.252  0.00  0.00    -0.532 OA
HETATM   30  O   UNK N   1      22.635  21.662   2.915  0.00  0.00    -0.532 OA
ENDBRANCH  21  28
ENDBRANCH   3  18
TORSDOF 8
ENDMDL
MODEL 5
REMARK VINA RESULT:      -7.5      2.263      2.897
REMARK  8 active torsions:
REMARK  status: ('A' for Active; 'I' for Inactive)
REMARK    1  A    between atoms: C_7  and  O_8 
REMARK    2  A    between atoms: O_8  and  C_9 
REMARK    3  A    between atoms: C_9  and  C_10 
REMARK    4  A    between atoms: C_10  and  O_11 
REMARK    5  A    between atoms: C_10  and  C_13 
REMARK       I    between atoms: C_13  and  N_15 
REMARK    6  A    between atoms: N_15  and  C_16 
REMARK    7  A    between atoms: C_20  and  N_21 
REMARK    8  A    between atoms: C_24  and  C_25 
ROOT
HETATM    1  C   UNK N   1      35.758  13.974  12.739  0.00  0.00     0.258 C 
HETATM    2  O   UNK N   1      34.575  13.722  12.549  0.00  0.00    -0.270 OA
HETATM    3  N   UNK N   1      36.482  14.668  11.814  0.00  0.00    -0.325 N 
HETATM    4  H   UNK N   1      37.457  14.732  11.941  0.00  0.00     0.169 HD
ENDROOT
BRANCH   1   5
HETATM    5  C   UNK N   1      36.395  13.517  14.017  0.00  0.00     0.156 C 
HETATM    6  C   UNK N   1      36.809  14.735  14.823  0.00  0.00     0.059 C 
BRANCH   5   7
HETATM    7  C   UNK N   1      35.379  12.715  14.834  0.00  0.00     0.223 C 
BRANCH   7   8
HETATM    8  O   UNK N   1      35.099  13.347  16.025  0.00  0.00    -0.348 OA
BRANCH   8   9
HETATM    9  C   UNK N   1      35.204  12.707  17.211  0.00  0.00     0.069 A 
HETATM   10  C   UNK N   1      35.421  11.327  17.222  0.00  0.00     0.040 A 
HETATM   11  C   UNK N   1      35.586  10.653  18.435  0.00  0.00     0.045 A 
HETATM   12  C   UNK N   1      35.525  11.356  19.643  0.00  0.00     0.116 A 
HETATM   13  F   UNK N   1      35.695  10.702  20.815  0.00  0.00    -0.206 F 
HETATM   14  C   UNK N   1      35.293  12.733  19.640  0.00  0.00     0.045 A 
HETATM   15  C   UNK N   1      35.137  13.409  18.429  0.00  0.00     0.040 A 
ENDBRANCH   8   9
ENDBRANCH   7   8
ENDBRANCH   5   7
BRANCH   5  16
HETATM   16  O   UNK N   1      37.544  12.762  13.747  0.00  0.00    -0.378 OA
HETATM   17  H   UNK N   1      38.436  13.090  13.553  0.00  0.00     0.211 HD
ENDBRANCH   5  16
ENDBRANCH   1   5
BRANCH   3  18
HETATM   18  C   UNK N   1      35.912  15.306  10.676  0.00  0.00     0.035 A 
HETATM   19  C   UNK N   1      35.856  14.647   9.453  0.00  0.00     0.048 A 
HETATM   20  C   UNK N   1      35.249  15.182   8.317  0.00  0.00     0.083 A 
HETATM   21  C   UNK N   1      34.650  16.493   8.432  0.00  0.00     0.118 A 
HETATM   22  C   UNK N   1      34.716  17.144   9.684  0.00  0.00     0.039 A 
HETATM   23  C   UNK N   1      35.327  16.559  10.794  0.00  0.00     0.032 A 
BRANCH  20  24
HETATM   24  C   UNK N   1      35.330  14.235   7.124  0.00  0.00     0.419 C 
HETATM   25  F   UNK N   1      34.043  13.992   6.676  0.00  0.00    -0.166 F 
HETATM   26  F   UNK N   1      35.929  13.017   7.310  0.00  0.00    -0.166 F 
HETATM   27  F   UNK N   1      36.021  14.876   6.110  0.00  0.00    -0.166 F 
ENDBRANCH  20  24
BRANCH  21  28
HETATM   28  N   UNK N   1      33.977  17.199   7.378  0.00  0.00    -0.115 N 
HETATM   29  O   UNK N   1      34.562  17.866   6.590  0.00  0.00    -0.532 OA
HETATM   30  O   UNK N   1      32.669  17.091   7.262  0.00  0.00    -0.532 OA
ENDBRANCH  21  28
ENDBRANCH   3  18
TORSDOF 8
ENDMDL
MODEL 6
REMARK VINA RESULT:      -7.3     12.244     14.004
REMARK  8 active torsions:
REMARK  status: ('A' for Active; 'I' for Inactive)
REMARK    1  A    between atoms: C_7  and  O_8 
REMARK    2  A    between atoms: O_8  and  C_9 
REMARK    3  A    between atoms: C_9  and  C_10 
REMARK    4  A    between atoms: C_10  and  O_11 
REMARK    5  A    between atoms: C_10  and  C_13 
REMARK       I    between atoms: C_13  and  N_15 
REMARK    6  A    between atoms: N_15  and  C_16 
REMARK    7  A    between atoms: C_20  and  N_21 
REMARK    8  A    between atoms: C_24  and  C_25 
ROOT
HETATM    1  C   UNK N   1      21.564  14.944   5.480  0.00  0.00     0.258 C 
HETATM    2  O   UNK N   1      22.219  14.552   4.522  0.00  0.00    -0.270 OA
HETATM    3  N   UNK N   1      21.560  16.262   5.831  0.00  0.00    -0.325 N 
HETATM    4  H   UNK N   1      21.134  16.514   6.683  0.00  0.00     0.169 HD
ENDROOT
BRANCH   1   5
HETATM    5  C   UNK N   1      20.754  13.948   6.253  0.00  0.00     0.156 C 
HETATM    6  C   UNK N   1      19.919  13.133   5.282  0.00  0.00     0.059 C 
BRANCH   5   7
HETATM    7  C   UNK N   1      21.693  12.999   7.002  0.00  0.00     0.223 C 
BRANCH   7   8
HETATM    8  O   UNK N   1      21.092  12.512   8.142  0.00  0.00    -0.348 OA
BRANCH   8   9
HETATM    9  C   UNK N   1      21.770  12.386   9.305  0.00  0.00     0.069 A 
HETATM   10  C   UNK N   1      21.065  12.424  10.511  0.00  0.00     0.040 A 
HETATM   11  C   UNK N   1      21.738  12.242  11.722  0.00  0.00     0.045 A 
HETATM   12  C   UNK N   1      23.120  12.030  11.732  0.00  0.00     0.116 A 
HETATM   13  F   UNK N   1      23.767  11.846  12.906  0.00  0.00    -0.206 F 
HETATM   14  C   UNK N   1      23.833  12.006  10.532  0.00  0.00     0.045 A 
HETATM   15  C   UNK N   1      23.162  12.179   9.321  0.00  0.00     0.040 A 
ENDBRANCH   8   9
ENDBRANCH   7   8
ENDBRANCH   5   7
BRANCH   5  16
HETATM   16  O   UNK N   1      19.882  14.604   7.133  0.00  0.00    -0.378 OA
HETATM   17  H   UNK N   1      19.725  15.558   7.210  0.00  0.00     0.211 HD
ENDBRANCH   5  16
ENDBRANCH   1   5
BRANCH   3  18
HETATM   18  C   UNK N   1      22.136  17.296   5.041  0.00  0.00     0.035 A 
HETATM   19  C   UNK N   1      21.354  18.021   4.149  0.00  0.00     0.048 A 
HETATM   20  C   UNK N   1      21.835  19.092   3.397  0.00  0.00     0.083 A 
HETATM   21  C   UNK N   1      23.224  19.459   3.565  0.00  0.00     0.118 A 
HETATM   22  C   UNK N   1      24.001  18.711   4.477  0.00  0.00     0.039 A 
HETATM   23  C   UNK N   1      23.466  17.653   5.214  0.00  0.00     0.032 A 
BRANCH  20  24
HETATM   24  C   UNK N   1      20.753  19.704   2.513  0.00  0.00     0.419 C 
HETATM   25  F   UNK N   1      19.743  18.770   2.355  0.00  0.00    -0.166 F 
HETATM   26  F   UNK N   1      21.110  20.126   1.259  0.00  0.00    -0.166 F 
HETATM   27  F   UNK N   1      20.223  20.799   3.173  0.00  0.00    -0.166 F 
ENDBRANCH  20  24
BRANCH  21  28
HETATM   28  N   UNK N   1      23.892  20.533   2.885  0.00  0.00    -0.115 N 
HETATM   29  O   UNK N   1      24.886  20.363   2.259  0.00  0.00    -0.532 OA
HETATM   30  O   UNK N   1      23.379  21.745   2.934  0.00  0.00    -0.532 OA
ENDBRANCH  21  28
ENDBRANCH   3  18
TORSDOF 8
ENDMDL
MODEL 7
REMARK VINA RESULT:      -7.3     18.418     22.555
REMARK  8 active torsions:
REMARK  status: ('A' for Active; 'I' for Inactive)
REMARK    1  A    between atoms: C_7  and  O_8 
REMARK    2  A    between atoms: O_8  and  C_9 
REMARK    3  A    between atoms: C_9  and  C_10 
REMARK    4  A    between atoms: C_10  and  O_11 
REMARK    5  A    between atoms: C_10  and  C_13 
REMARK       I    between atoms: C_13  and  N_15 
REMARK    6  A    between atoms: N_15  and  C_16 
REMARK    7  A    between atoms: C_20  and  N_21 
REMARK    8  A    between atoms: C_24  and  C_25 
ROOT
HETATM    1  C   UNK N   1      27.934  24.101  -8.118  0.00  0.00     0.258 C 
HETATM    2  O   UNK N   1      29.100  24.464  -8.208  0.00  0.00    -0.270 OA
HETATM    3  N   UNK N   1      27.512  23.363  -7.051  0.00  0.00    -0.325 N 
HETATM    4  H   UNK N   1      26.606  22.976  -7.083  0.00  0.00     0.169 HD
ENDROOT
BRANCH   1   5
HETATM    5  C   UNK N   1      26.972  24.494  -9.199  0.00  0.00     0.156 C 
HETATM    6  C   UNK N   1      25.921  23.408  -9.340  0.00  0.00     0.059 C 
BRANCH   5   7
HETATM    7  C   UNK N   1      26.273  25.799  -8.809  0.00  0.00     0.223 C 
BRANCH   7   8
HETATM    8  O   UNK N   1      25.730  25.705  -7.546  0.00  0.00    -0.348 OA
BRANCH   8   9
HETATM    9  C   UNK N   1      25.949  26.653  -6.606  0.00  0.00     0.069 A 
HETATM   10  C   UNK N   1      27.030  27.526  -6.760  0.00  0.00     0.040 A 
HETATM   11  C   UNK N   1      27.244  28.547  -5.830  0.00  0.00     0.045 A 
HETATM   12  C   UNK N   1      26.383  28.692  -4.737  0.00  0.00     0.116 A 
HETATM   13  F   UNK N   1      26.587  29.687  -3.843  0.00  0.00    -0.206 F 
HETATM   14  C   UNK N   1      25.310  27.814  -4.569  0.00  0.00     0.045 A 
HETATM   15  C   UNK N   1      25.090  26.800  -5.502  0.00  0.00     0.040 A 
ENDBRANCH   8   9
ENDBRANCH   7   8
ENDBRANCH   5   7
BRANCH   5  16
HETATM   16  O   UNK N   1      27.638  24.617 -10.425  0.00  0.00    -0.378 OA
HETATM   17  H   UNK N   1      27.388  24.227 -11.277  0.00  0.00     0.211 HD
ENDBRANCH   5  16
ENDBRANCH   1   5
BRANCH   3  18
HETATM   18  C   UNK N   1      28.304  23.116  -5.894  0.00  0.00     0.035 A 
HETATM   19  C   UNK N   1      29.244  22.092  -5.887  0.00  0.00     0.048 A 
HETATM   20  C   UNK N   1      30.101  21.840  -4.817  0.00  0.00     0.083 A 
HETATM   21  C   UNK N   1      29.997  22.700  -3.658  0.00  0.00     0.118 A 
HETATM   22  C   UNK N   1      29.038  23.736  -3.686  0.00  0.00     0.039 A 
HETATM   23  C   UNK N   1      28.209  23.951  -4.789  0.00  0.00     0.032 A 
BRANCH  20  24
HETATM   24  C   UNK N   1      31.031  20.663  -5.091  0.00  0.00     0.419 C 
HETATM   25  F   UNK N   1      30.548  19.976  -6.193  0.00  0.00    -0.166 F 
HETATM   26  F   UNK N   1      31.216  19.742  -4.093  0.00  0.00    -0.166 F 
HETATM   27  F   UNK N   1      32.280  21.165  -5.415  0.00  0.00    -0.166 F 
ENDBRANCH  20  24
BRANCH  21  28
HETATM   28  N   UNK N   1      30.797  22.599  -2.470  0.00  0.00    -0.115 N 
HETATM   29  O   UNK N   1      31.894  22.148  -2.482  0.00  0.00    -0.532 OA
HETATM   30  O   UNK N   1      30.311  23.040  -1.327  0.00  0.00    -0.532 OA
ENDBRANCH  21  28
ENDBRANCH   3  18
TORSDOF 8
ENDMDL
MODEL 8
REMARK VINA RESULT:      -7.2      8.308     12.144
REMARK  8 active torsions:
REMARK  status: ('A' for Active; 'I' for Inactive)
REMARK    1  A    between atoms: C_7  and  O_8 
REMARK    2  A    between atoms: O_8  and  C_9 
REMARK    3  A    between atoms: C_9  and  C_10 
REMARK    4  A    between atoms: C_10  and  O_11 
REMARK    5  A    between atoms: C_10  and  C_13 
REMARK       I    between atoms: C_13  and  N_15 
REMARK    6  A    between atoms: N_15  and  C_16 
REMARK    7  A    between atoms: C_20  and  N_21 
REMARK    8  A    between atoms: C_24  and  C_25 
ROOT
HETATM    1  C   UNK N   1      26.843  17.600   4.924  0.00  0.00     0.258 C 
HETATM    2  O   UNK N   1      26.895  17.201   3.768  0.00  0.00    -0.270 OA
HETATM    3  N   UNK N   1      25.926  18.538   5.299  0.00  0.00    -0.325 N 
HETATM    4  H   UNK N   1      26.006  18.931   6.200  0.00  0.00     0.169 HD
ENDROOT
BRANCH   1   5
HETATM    5  C   UNK N   1      27.799  17.027   5.926  0.00  0.00     0.156 C 
HETATM    6  C   UNK N   1      27.857  15.521   5.746  0.00  0.00     0.059 C 
BRANCH   5   7
HETATM    7  C   UNK N   1      29.198  17.600   5.681  0.00  0.00     0.223 C 
BRANCH   7   8
HETATM    8  O   UNK N   1      30.169  16.727   6.120  0.00  0.00    -0.348 OA
BRANCH   8   9
HETATM    9  C   UNK N   1      31.358  17.165   6.591  0.00  0.00     0.069 A 
HETATM   10  C   UNK N   1      31.452  17.576   7.923  0.00  0.00     0.040 A 
HETATM   11  C   UNK N   1      32.682  17.982   8.447  0.00  0.00     0.045 A 
HETATM   12  C   UNK N   1      33.823  17.986   7.636  0.00  0.00     0.116 A 
HETATM   13  F   UNK N   1      35.014  18.371   8.148  0.00  0.00    -0.206 F 
HETATM   14  C   UNK N   1      33.733  17.591   6.300  0.00  0.00     0.045 A 
HETATM   15  C   UNK N   1      32.507  17.177   5.779  0.00  0.00     0.040 A 
ENDBRANCH   8   9
ENDBRANCH   7   8
ENDBRANCH   5   7
BRANCH   5  16
HETATM   16  O   UNK N   1      27.360  17.293   7.230  0.00  0.00    -0.378 OA
HETATM   17  H   UNK N   1      27.754  16.988   8.062  0.00  0.00     0.211 HD
ENDBRANCH   5  16
ENDBRANCH   1   5
BRANCH   3  18
HETATM   18  C   UNK N   1      24.862  18.985   4.467  0.00  0.00     0.035 A 
HETATM   19  C   UNK N   1      23.672  18.269   4.399  0.00  0.00     0.048 A 
HETATM   20  C   UNK N   1      22.564  18.685   3.662  0.00  0.00     0.083 A 
HETATM   21  C   UNK N   1      22.671  19.931   2.935  0.00  0.00     0.118 A 
HETATM   22  C   UNK N   1      23.888  20.644   3.020  0.00  0.00     0.039 A 
HETATM   23  C   UNK N   1      24.965  20.187   3.781  0.00  0.00     0.032 A 
BRANCH  20  24
HETATM   24  C   UNK N   1      21.398  17.709   3.779  0.00  0.00     0.419 C 
HETATM   25  F   UNK N   1      20.371  18.339   4.462  0.00  0.00    -0.166 F 
HETATM   26  F   UNK N   1      21.622  16.511   4.407  0.00  0.00    -0.166 F 
HETATM   27  F   UNK N   1      20.947  17.419   2.502  0.00  0.00    -0.166 F 
ENDBRANCH  20  24
BRANCH  21  28
HETATM   28  N   UNK N   1      21.638  20.521   2.132  0.00  0.00    -0.115 N 
HETATM   29  O   UNK N   1      21.714  20.581   0.949  0.00  0.00    -0.532 OA
HETATM   30  O   UNK N   1      20.557  20.994   2.718  0.00  0.00    -0.532 OA
ENDBRANCH  21  28
ENDBRANCH   3  18
TORSDOF 8
ENDMDL
MODEL 9
REMARK VINA RESULT:      -7.2     18.480     21.905
REMARK  8 active torsions:
REMARK  status: ('A' for Active; 'I' for Inactive)
REMARK    1  A    between atoms: C_7  and  O_8 
REMARK    2  A    between atoms: O_8  and  C_9 
REMARK    3  A    between atoms: C_9  and  C_10 
REMARK    4  A    between atoms: C_10  and  O_11 
REMARK    5  A    between atoms: C_10  and  C_13 
REMARK       I    between atoms: C_13  and  N_15 
REMARK    6  A    between atoms: N_15  and  C_16 
REMARK    7  A    between atoms: C_20  and  N_21 
REMARK    8  A    between atoms: C_24  and  C_25 
ROOT
HETATM    1  C   UNK N   1      27.626  22.940  -8.072  0.00  0.00     0.258 C 
HETATM    2  O   UNK N   1      28.605  23.473  -8.581  0.00  0.00    -0.270 OA
HETATM    3  N   UNK N   1      27.748  22.197  -6.934  0.00  0.00    -0.325 N 
HETATM    4  H   UNK N   1      26.967  21.675  -6.635  0.00  0.00     0.169 HD
ENDROOT
BRANCH   1   5
HETATM    5  C   UNK N   1      26.287  23.131  -8.717  0.00  0.00     0.156 C 
HETATM    6  C   UNK N   1      25.459  21.875  -8.510  0.00  0.00     0.059 C 
BRANCH   5   7
HETATM    7  C   UNK N   1      25.564  24.305  -8.051  0.00  0.00     0.223 C 
BRANCH   7   8
HETATM    8  O   UNK N   1      25.505  24.133  -6.686  0.00  0.00    -0.348 OA
BRANCH   8   9
HETATM    9  C   UNK N   1      25.599  25.179  -5.834  0.00  0.00     0.069 A 
HETATM   10  C   UNK N   1      26.156  24.976  -4.568  0.00  0.00     0.040 A 
HETATM   11  C   UNK N   1      26.313  26.053  -3.690  0.00  0.00     0.045 A 
HETATM   12  C   UNK N   1      25.906  27.335  -4.073  0.00  0.00     0.116 A 
HETATM   13  F   UNK N   1      26.068  28.377  -3.225  0.00  0.00    -0.206 F 
HETATM   14  C   UNK N   1      25.336  27.542  -5.331  0.00  0.00     0.045 A 
HETATM   15  C   UNK N   1      25.186  26.470  -6.211  0.00  0.00     0.040 A 
ENDBRANCH   8   9
ENDBRANCH   7   8
ENDBRANCH   5   7
BRANCH   5  16
HETATM   16  O   UNK N   1      26.432  23.335 -10.096  0.00  0.00    -0.378 OA
HETATM   17  H   UNK N   1      27.241  23.561 -10.579  0.00  0.00     0.211 HD
ENDBRANCH   5  16
ENDBRANCH   1   5
BRANCH   3  18
HETATM   18  C   UNK N   1      28.936  22.128  -6.154  0.00  0.00     0.035 A 
HETATM   19  C   UNK N   1      29.247  23.141  -5.253  0.00  0.00     0.048 A 
HETATM   20  C   UNK N   1      30.355  23.105  -4.407  0.00  0.00     0.083 A 
HETATM   21  C   UNK N   1      31.217  21.946  -4.480  0.00  0.00     0.118 A 
HETATM   22  C   UNK N   1      30.882  20.929  -5.400  0.00  0.00     0.039 A 
HETATM   23  C   UNK N   1      29.754  21.009  -6.218  0.00  0.00     0.032 A 
BRANCH  20  24
HETATM   24  C   UNK N   1      30.440  24.344  -3.521  0.00  0.00     0.419 C 
HETATM   25  F   UNK N   1      30.394  23.936  -2.199  0.00  0.00    -0.166 F 
HETATM   26  F   UNK N   1      29.483  25.313  -3.677  0.00  0.00    -0.166 F 
HETATM   27  F   UNK N   1      31.667  24.948  -3.740  0.00  0.00    -0.166 F 
ENDBRANCH  20  24
BRANCH  21  28
HETATM   28  N   UNK N   1      32.394  21.730  -3.686  0.00  0.00    -0.115 N 
HETATM   29  O   UNK N   1      33.480  21.696  -4.162  0.00  0.00    -0.532 OA
HETATM   30  O   UNK N   1      32.274  21.585  -2.382  0.00  0.00    -0.532 OA
ENDBRANCH  21  28
ENDBRANCH   3  18
TORSDOF 8
ENDMDL
