MODEL 1
REMARK VINA RESULT:      -7.7      0.000      0.000
REMARK  6 active torsions:
REMARK  status: ('A' for Active; 'I' for Inactive)
REMARK    1  A    between atoms: C_5  and  C_10 
REMARK    2  A    between atoms: C_7  and  C_13 
REMARK    3  A    between atoms: C_8  and  N_16 
REMARK    4  A    between atoms: C_13  and  O_14 
REMARK    5  A    between atoms: N_16  and  S_17 
REMARK    6  A    between atoms: S_17  and  C_19 
ROOT
HETATM    1  C   UNK N   1      34.825  16.844   8.934  0.00  0.00     0.106 A 
HETATM    2  C   UNK N   1      34.571  15.526   8.516  0.00  0.00     0.067 A 
HETATM    3  C   UNK N   1      34.771  14.548   9.531  0.00  0.00     0.051 A 
HETATM    4  C   UNK N   1      35.172  15.115  10.749  0.00  0.00     0.018 A 
HETATM    5  S   UNK N   1      35.277  16.759  10.525  0.00  0.00    -0.081 SA
ENDROOT
BRANCH   2   6
HETATM    6  N   UNK N   1      34.158  15.213   7.199  0.00  0.00    -0.279 N 
HETATM    7  H   UNK N   1      34.853  15.075   6.515  0.00  0.00     0.179 HD
BRANCH   6   8
HETATM    8  S   UNK N   1      32.475  15.056   6.713  0.00  0.00     0.263 S 
HETATM    9  O   UNK N   1      32.116  13.623   7.132  0.00  0.00    -0.200 OA
HETATM   10  O   UNK N   1      32.575  14.852   5.194  0.00  0.00    -0.200 OA
BRANCH   8  11
HETATM   11  C   UNK N   1      31.093  16.145   7.077  0.00  0.00     0.079 A 
HETATM   12  C   UNK N   1      30.107  16.426   6.124  0.00  0.00     0.026 A 
HETATM   13  C   UNK N   1      29.120  17.384   6.400  0.00  0.00     0.008 A 
HETATM   14  C   UNK N   1      29.130  18.070   7.621  0.00  0.00    -0.062 A 
HETATM   15  C   UNK N   1      30.112  17.789   8.571  0.00  0.00     0.008 A 
HETATM   16  C   UNK N   1      28.108  19.113   7.903  0.00  0.00     0.048 C 
HETATM   17  C   UNK N   1      31.092  16.832   8.297  0.00  0.00     0.026 A 
ENDBRANCH   8  11
ENDBRANCH   6   8
ENDBRANCH   2   6
BRANCH   1  18
HETATM   18  C   UNK N   1      34.756  18.080   8.132  0.00  0.00     0.185 C 
HETATM   19  O   UNK N   1      34.255  18.067   7.018  0.00  0.00    -0.646 OA
BRANCH  18  20
HETATM   20  O   UNK N   1      35.270  19.226   8.615  0.00  0.00    -0.772 OA
HETATM   21  H   UNK N   1      34.720  19.845   9.053  0.00  0.00     0.167 HD
ENDBRANCH  18  20
ENDBRANCH   1  18
BRANCH   4  22
HETATM   22  C   UNK N   1      35.424  14.388  12.003  0.00  0.00    -0.019 A 
HETATM   23  C   UNK N   1      34.906  13.099  12.195  0.00  0.00     0.016 A 
HETATM   24  C   UNK N   1      35.163  12.408  13.383  0.00  0.00     0.043 A 
HETATM   25  C   UNK N   1      35.940  13.000  14.382  0.00  0.00     0.116 A 
HETATM   26  C   UNK N   1      36.458  14.283  14.196  0.00  0.00     0.043 A 
HETATM   27  F   UNK N   1      36.192  12.329  15.532  0.00  0.00    -0.206 F 
HETATM   28  C   UNK N   1      36.201  14.976  13.011  0.00  0.00     0.016 A 
ENDBRANCH   4  22
TORSDOF 6
ENDMDL
MODEL 2
REMARK VINA RESULT:      -7.6     12.938     14.702
REMARK  6 active torsions:
REMARK  status: ('A' for Active; 'I' for Inactive)
REMARK    1  A    between atoms: C_5  and  C_10 
REMARK    2  A    between atoms: C_7  and  C_13 
REMARK    3  A    between atoms: C_8  and  N_16 
REMARK    4  A    between atoms: C_13  and  O_14 
REMARK    5  A    between atoms: N_16  and  S_17 
REMARK    6  A    between atoms: S_17  and  C_19 
ROOT
HETATM    1  C   UNK N   1      20.697  18.868   3.359  0.00  0.00     0.106 A 
HETATM    2  C   UNK N   1      19.891  17.747   3.099  0.00  0.00     0.067 A 
HETATM    3  C   UNK N   1      19.867  16.793   4.154  0.00  0.00     0.051 A 
HETATM    4  C   UNK N   1      20.652  17.185   5.248  0.00  0.00     0.018 A 
HETATM    5  S   UNK N   1      21.341  18.649   4.870  0.00  0.00    -0.081 SA
ENDROOT
BRANCH   2   6
HETATM    6  N   UNK N   1      19.176  17.592   1.887  0.00  0.00    -0.279 N 
HETATM    7  H   UNK N   1      18.378  18.151   1.745  0.00  0.00     0.179 HD
BRANCH   6   8
HETATM    8  S   UNK N   1      19.630  16.458   0.622  0.00  0.00     0.263 S 
HETATM    9  O   UNK N   1      20.484  17.309  -0.328  0.00  0.00    -0.200 OA
HETATM   10  O   UNK N   1      18.350  16.356  -0.222  0.00  0.00    -0.200 OA
BRANCH   8  11
HETATM   11  C   UNK N   1      20.367  14.827   0.784  0.00  0.00     0.079 A 
HETATM   12  C   UNK N   1      21.749  14.655   0.917  0.00  0.00     0.026 A 
HETATM   13  C   UNK N   1      22.298  13.364   0.906  0.00  0.00     0.008 A 
HETATM   14  C   UNK N   1      21.465  12.249   0.746  0.00  0.00    -0.062 A 
HETATM   15  C   UNK N   1      20.087  12.421   0.615  0.00  0.00     0.008 A 
HETATM   16  C   UNK N   1      22.045  10.881   0.696  0.00  0.00     0.048 C 
HETATM   17  C   UNK N   1      19.542  13.707   0.630  0.00  0.00     0.026 A 
ENDBRANCH   8  11
ENDBRANCH   6   8
ENDBRANCH   2   6
BRANCH   1  18
HETATM   18  C   UNK N   1      20.975  20.014   2.472  0.00  0.00     0.185 C 
HETATM   19  O   UNK N   1      21.533  21.010   2.905  0.00  0.00    -0.646 OA
BRANCH  18  20
HETATM   20  O   UNK N   1      20.590  19.977   1.183  0.00  0.00    -0.772 OA
HETATM   21  H   UNK N   1      19.761  19.610   0.946  0.00  0.00     0.167 HD
ENDBRANCH  18  20
ENDBRANCH   1  18
BRANCH   4  22
HETATM   22  C   UNK N   1      20.811  16.446   6.511  0.00  0.00    -0.019 A 
HETATM   23  C   UNK N   1      20.020  16.764   7.625  0.00  0.00     0.016 A 
HETATM   24  C   UNK N   1      20.166  16.047   8.817  0.00  0.00     0.043 A 
HETATM   25  C   UNK N   1      21.098  15.009   8.899  0.00  0.00     0.116 A 
HETATM   26  C   UNK N   1      21.887  14.689   7.792  0.00  0.00     0.043 A 
HETATM   27  F   UNK N   1      21.236  14.312  10.052  0.00  0.00    -0.206 F 
HETATM   28  C   UNK N   1      21.744  15.405   6.602  0.00  0.00     0.016 A 
ENDBRANCH   4  22
TORSDOF 6
ENDMDL
MODEL 3
REMARK VINA RESULT:      -7.5     11.455     13.750
REMARK  6 active torsions:
REMARK  status: ('A' for Active; 'I' for Inactive)
REMARK    1  A    between atoms: C_5  and  C_10 
REMARK    2  A    between atoms: C_7  and  C_13 
REMARK    3  A    between atoms: C_8  and  N_16 
REMARK    4  A    between atoms: C_13  and  O_14 
REMARK    5  A    between atoms: N_16  and  S_17 
REMARK    6  A    between atoms: S_17  and  C_19 
ROOT
HETATM    1  C   UNK N   1      20.746  15.973   2.499  0.00  0.00     0.106 A 
HETATM    2  C   UNK N   1      20.542  17.189   3.174  0.00  0.00     0.067 A 
HETATM    3  C   UNK N   1      20.440  17.058   4.587  0.00  0.00     0.051 A 
HETATM    4  C   UNK N   1      20.579  15.729   5.012  0.00  0.00     0.018 A 
HETATM    5  S   UNK N   1      20.800  14.791   3.658  0.00  0.00    -0.081 SA
ENDROOT
BRANCH   2   6
HETATM    6  N   UNK N   1      20.444  18.427   2.494  0.00  0.00    -0.279 N 
HETATM    7  H   UNK N   1      19.767  18.514   1.784  0.00  0.00     0.179 HD
BRANCH   6   8
HETATM    8  S   UNK N   1      21.461  19.818   2.844  0.00  0.00     0.263 S 
HETATM    9  O   UNK N   1      20.658  20.590   3.900  0.00  0.00    -0.200 OA
HETATM   10  O   UNK N   1      21.219  20.732   1.632  0.00  0.00    -0.200 OA
BRANCH   8  11
HETATM   11  C   UNK N   1      23.204  19.856   3.278  0.00  0.00     0.079 A 
HETATM   12  C   UNK N   1      24.111  20.687   2.610  0.00  0.00     0.026 A 
HETATM   13  C   UNK N   1      25.483  20.590   2.886  0.00  0.00     0.008 A 
HETATM   14  C   UNK N   1      25.947  19.653   3.817  0.00  0.00    -0.062 A 
HETATM   15  C   UNK N   1      25.043  18.826   4.484  0.00  0.00     0.008 A 
HETATM   16  C   UNK N   1      27.404  19.520   4.085  0.00  0.00     0.048 C 
HETATM   17  C   UNK N   1      23.677  18.926   4.211  0.00  0.00     0.026 A 
ENDBRANCH   8  11
ENDBRANCH   6   8
ENDBRANCH   2   6
BRANCH   1  18
HETATM   18  C   UNK N   1      20.853  15.747   1.046  0.00  0.00     0.185 C 
HETATM   19  O   UNK N   1      21.466  14.783   0.613  0.00  0.00    -0.646 OA
BRANCH  18  20
HETATM   20  O   UNK N   1      20.299  16.621   0.185  0.00  0.00    -0.772 OA
HETATM   21  H   UNK N   1      19.554  16.375  -0.327  0.00  0.00     0.167 HD
ENDBRANCH  18  20
ENDBRANCH   1  18
BRANCH   4  22
HETATM   22  C   UNK N   1      20.563  15.258   6.406  0.00  0.00    -0.019 A 
HETATM   23  C   UNK N   1      20.993  13.961   6.725  0.00  0.00     0.016 A 
HETATM   24  C   UNK N   1      20.990  13.526   8.053  0.00  0.00     0.043 A 
HETATM   25  C   UNK N   1      20.560  14.384   9.069  0.00  0.00     0.116 A 
HETATM   26  C   UNK N   1      20.130  15.676   8.757  0.00  0.00     0.043 A 
HETATM   27  F   UNK N   1      20.560  13.964  10.357  0.00  0.00    -0.206 F 
HETATM   28  C   UNK N   1      20.131  16.112   7.430  0.00  0.00     0.016 A 
ENDBRANCH   4  22
TORSDOF 6
ENDMDL
MODEL 4
REMARK VINA RESULT:      -7.3      3.466      5.305
REMARK  6 active torsions:
REMARK  status: ('A' for Active; 'I' for Inactive)
REMARK    1  A    between atoms: C_5  and  C_10 
REMARK    2  A    between atoms: C_7  and  C_13 
REMARK    3  A    between atoms: C_8  and  N_16 
REMARK    4  A    between atoms: C_13  and  O_14 
REMARK    5  A    between atoms: N_16  and  S_17 
REMARK    6  A    between atoms: S_17  and  C_19 
ROOT
HETATM    1  C   UNK N   1      37.096  12.508  11.843  0.00  0.00     0.106 A 
HETATM    2  C   UNK N   1      36.676  13.807  12.176  0.00  0.00     0.067 A 
HETATM    3  C   UNK N   1      36.219  13.942  13.517  0.00  0.00     0.051 A 
HETATM    4  C   UNK N   1      36.298  12.740  14.233  0.00  0.00     0.018 A 
HETATM    5  S   UNK N   1      36.897  11.582  13.202  0.00  0.00    -0.081 SA
ENDROOT
BRANCH   2   6
HETATM    6  N   UNK N   1      36.705  14.876  11.248  0.00  0.00    -0.279 N 
HETATM    7  H   UNK N   1      37.576  15.141  10.873  0.00  0.00     0.179 HD
BRANCH   6   8
HETATM    8  S   UNK N   1      35.276  15.758  10.727  0.00  0.00     0.263 S 
HETATM    9  O   UNK N   1      35.215  16.944  11.700  0.00  0.00    -0.200 OA
HETATM   10  O   UNK N   1      34.126  14.913  11.295  0.00  0.00    -0.200 OA
BRANCH   8  11
HETATM   11  C   UNK N   1      34.842  16.321   9.077  0.00  0.00     0.079 A 
HETATM   12  C   UNK N   1      34.380  17.621   8.841  0.00  0.00     0.026 A 
HETATM   13  C   UNK N   1      33.924  17.981   7.564  0.00  0.00     0.008 A 
HETATM   14  C   UNK N   1      33.916  17.036   6.530  0.00  0.00    -0.062 A 
HETATM   15  C   UNK N   1      34.378  15.741   6.765  0.00  0.00     0.008 A 
HETATM   16  C   UNK N   1      33.398  17.402   5.184  0.00  0.00     0.048 C 
HETATM   17  C   UNK N   1      34.835  15.385   8.036  0.00  0.00     0.026 A 
ENDBRANCH   8  11
ENDBRANCH   6   8
ENDBRANCH   2   6
BRANCH   1  18
HETATM   18  C   UNK N   1      37.583  12.017  10.540  0.00  0.00     0.185 C 
HETATM   19  O   UNK N   1      37.441  12.692   9.532  0.00  0.00    -0.646 OA
BRANCH  18  20
HETATM   20  O   UNK N   1      38.164  10.806  10.452  0.00  0.00    -0.772 OA
HETATM   21  H   UNK N   1      37.990  10.148  11.095  0.00  0.00     0.167 HD
ENDBRANCH  18  20
ENDBRANCH   1  18
BRANCH   4  22
HETATM   22  C   UNK N   1      35.942  12.547  15.648  0.00  0.00    -0.019 A 
HETATM   23  C   UNK N   1      36.057  11.283  16.245  0.00  0.00     0.016 A 
HETATM   24  C   UNK N   1      35.733  11.111  17.594  0.00  0.00     0.043 A 
HETATM   25  C   UNK N   1      35.295  12.200  18.353  0.00  0.00     0.116 A 
HETATM   26  C   UNK N   1      35.179  13.461  17.762  0.00  0.00     0.043 A 
HETATM   27  F   UNK N   1      34.984  12.035  19.660  0.00  0.00    -0.206 F 
HETATM   28  C   UNK N   1      35.501  13.634  16.415  0.00  0.00     0.016 A 
ENDBRANCH   4  22
TORSDOF 6
ENDMDL
MODEL 5
REMARK VINA RESULT:      -7.2     10.833     13.284
REMARK  6 active torsions:
REMARK  status: ('A' for Active; 'I' for Inactive)
REMARK    1  A    between atoms: C_5  and  C_10 
REMARK    2  A    between atoms: C_7  and  C_13 
REMARK    3  A    between atoms: C_8  and  N_16 
REMARK    4  A    between atoms: C_13  and  O_14 
REMARK    5  A    between atoms: N_16  and  S_17 
REMARK    6  A    between atoms: S_17  and  C_19 
ROOT
HETATM    1  C   UNK N   1      21.134  17.831   3.702  0.00  0.00     0.106 A 
HETATM    2  C   UNK N   1      21.794  16.732   4.279  0.00  0.00     0.067 A 
HETATM    3  C   UNK N   1      23.189  16.933   4.474  0.00  0.00     0.051 A 
HETATM    4  C   UNK N   1      23.611  18.203   4.057  0.00  0.00     0.018 A 
HETATM    5  S   UNK N   1      22.281  19.002   3.462  0.00  0.00    -0.081 SA
ENDROOT
BRANCH   2   6
HETATM    6  N   UNK N   1      21.119  15.537   4.625  0.00  0.00    -0.279 N 
HETATM    7  H   UNK N   1      21.126  14.796   3.977  0.00  0.00     0.179 HD
BRANCH   6   8
HETATM    8  S   UNK N   1      20.269  15.299   6.146  0.00  0.00     0.263 S 
HETATM    9  O   UNK N   1      18.839  14.959   5.705  0.00  0.00    -0.200 OA
HETATM   10  O   UNK N   1      20.040  16.737   6.639  0.00  0.00    -0.200 OA
BRANCH   8  11
HETATM   11  C   UNK N   1      20.725  14.260   7.539  0.00  0.00     0.079 A 
HETATM   12  C   UNK N   1      20.578  14.695   8.861  0.00  0.00     0.026 A 
HETATM   13  C   UNK N   1      21.069  13.909   9.915  0.00  0.00     0.008 A 
HETATM   14  C   UNK N   1      21.719  12.699   9.644  0.00  0.00    -0.062 A 
HETATM   15  C   UNK N   1      21.863  12.264   8.326  0.00  0.00     0.008 A 
HETATM   16  C   UNK N   1      22.275  11.881  10.755  0.00  0.00     0.048 C 
HETATM   17  C   UNK N   1      21.371  13.045   7.278  0.00  0.00     0.026 A 
ENDBRANCH   8  11
ENDBRANCH   6   8
ENDBRANCH   2   6
BRANCH   1  18
HETATM   18  C   UNK N   1      19.711  17.943   3.331  0.00  0.00     0.185 C 
HETATM   19  O   UNK N   1      19.314  18.898   2.681  0.00  0.00    -0.646 OA
BRANCH  18  20
HETATM   20  O   UNK N   1      18.834  17.003   3.731  0.00  0.00    -0.772 OA
HETATM   21  H   UNK N   1      18.159  16.707   3.152  0.00  0.00     0.167 HD
ENDBRANCH  18  20
ENDBRANCH   1  18
BRANCH   4  22
HETATM   22  C   UNK N   1      24.978  18.739   4.156  0.00  0.00    -0.019 A 
HETATM   23  C   UNK N   1      25.332  19.914   3.477  0.00  0.00     0.016 A 
HETATM   24  C   UNK N   1      26.628  20.427   3.588  0.00  0.00     0.043 A 
HETATM   25  C   UNK N   1      27.574  19.770   4.380  0.00  0.00     0.116 A 
HETATM   26  C   UNK N   1      27.226  18.599   5.058  0.00  0.00     0.043 A 
HETATM   27  F   UNK N   1      28.829  20.268   4.492  0.00  0.00    -0.206 F 
HETATM   28  C   UNK N   1      25.933  18.085   4.946  0.00  0.00     0.016 A 
ENDBRANCH   4  22
TORSDOF 6
ENDMDL
MODEL 6
REMARK VINA RESULT:      -7.2     11.486     13.129
REMARK  6 active torsions:
REMARK  status: ('A' for Active; 'I' for Inactive)
REMARK    1  A    between atoms: C_5  and  C_10 
REMARK    2  A    between atoms: C_7  and  C_13 
REMARK    3  A    between atoms: C_8  and  N_16 
REMARK    4  A    between atoms: C_13  and  O_14 
REMARK    5  A    between atoms: N_16  and  S_17 
REMARK    6  A    between atoms: S_17  and  C_19 
ROOT
HETATM    1  C   UNK N   1      20.596  13.923   6.042  0.00  0.00     0.106 A 
HETATM    2  C   UNK N   1      20.508  15.058   6.865  0.00  0.00     0.067 A 
HETATM    3  C   UNK N   1      20.867  14.820   8.221  0.00  0.00     0.051 A 
HETATM    4  C   UNK N   1      21.249  13.491   8.449  0.00  0.00     0.018 A 
HETATM    5  S   UNK N   1      21.116  12.678   7.005  0.00  0.00    -0.081 SA
ENDROOT
BRANCH   2   6
HETATM    6  N   UNK N   1      20.092  16.320   6.376  0.00  0.00    -0.279 N 
HETATM    7  H   UNK N   1      19.127  16.515   6.358  0.00  0.00     0.179 HD
BRANCH   6   8
HETATM    8  S   UNK N   1      21.199  17.558   5.798  0.00  0.00     0.263 S 
HETATM    9  O   UNK N   1      22.582  16.929   6.018  0.00  0.00    -0.200 OA
HETATM   10  O   UNK N   1      21.204  18.577   6.948  0.00  0.00    -0.200 OA
BRANCH   8  11
HETATM   11  C   UNK N   1      21.187  18.433   4.229  0.00  0.00     0.079 A 
HETATM   12  C   UNK N   1      22.176  19.368   3.900  0.00  0.00     0.026 A 
HETATM   13  C   UNK N   1      22.058  20.128   2.726  0.00  0.00     0.008 A 
HETATM   14  C   UNK N   1      20.945  19.963   1.892  0.00  0.00    -0.062 A 
HETATM   15  C   UNK N   1      19.961  19.029   2.219  0.00  0.00     0.008 A 
HETATM   16  C   UNK N   1      20.797  20.792   0.667  0.00  0.00     0.048 C 
HETATM   17  C   UNK N   1      20.081  18.272   3.386  0.00  0.00     0.026 A 
ENDBRANCH   8  11
ENDBRANCH   6   8
ENDBRANCH   2   6
BRANCH   1  18
HETATM   18  C   UNK N   1      20.262  13.810   4.610  0.00  0.00     0.185 C 
HETATM   19  O   UNK N   1      20.973  13.161   3.858  0.00  0.00    -0.646 OA
BRANCH  18  20
HETATM   20  O   UNK N   1      19.183  14.447   4.118  0.00  0.00    -0.772 OA
HETATM   21  H   UNK N   1      18.325  14.097   4.249  0.00  0.00     0.167 HD
ENDBRANCH  18  20
ENDBRANCH   1  18
BRANCH   4  22
HETATM   22  C   UNK N   1      21.713  12.927   9.726  0.00  0.00    -0.019 A 
HETATM   23  C   UNK N   1      23.080  12.720   9.958  0.00  0.00     0.016 A 
HETATM   24  C   UNK N   1      23.515  12.199  11.181  0.00  0.00     0.043 A 
HETATM   25  C   UNK N   1      22.586  11.886  12.177  0.00  0.00     0.116 A 
HETATM   26  C   UNK N   1      21.223  12.091  11.951  0.00  0.00     0.043 A 
HETATM   27  F   UNK N   1      23.007  11.385  13.363  0.00  0.00    -0.206 F 
HETATM   28  C   UNK N   1      20.787  12.609  10.730  0.00  0.00     0.016 A 
ENDBRANCH   4  22
TORSDOF 6
ENDMDL
MODEL 7
REMARK VINA RESULT:      -7.2     15.962     19.132
REMARK  6 active torsions:
REMARK  status: ('A' for Active; 'I' for Inactive)
REMARK    1  A    between atoms: C_5  and  C_10 
REMARK    2  A    between atoms: C_7  and  C_13 
REMARK    3  A    between atoms: C_8  and  N_16 
REMARK    4  A    between atoms: C_13  and  O_14 
REMARK    5  A    between atoms: N_16  and  S_17 
REMARK    6  A    between atoms: S_17  and  C_19 
ROOT
HETATM    1  C   UNK N   1      26.693  23.371  -7.262  0.00  0.00     0.106 A 
HETATM    2  C   UNK N   1      26.497  24.141  -6.103  0.00  0.00     0.067 A 
HETATM    3  C   UNK N   1      27.467  23.914  -5.086  0.00  0.00     0.051 A 
HETATM    4  C   UNK N   1      28.430  22.969  -5.466  0.00  0.00     0.018 A 
HETATM    5  S   UNK N   1      28.045  22.451  -6.998  0.00  0.00    -0.081 SA
ENDROOT
BRANCH   2   6
HETATM    6  N   UNK N   1      25.424  25.054  -5.970  0.00  0.00    -0.279 N 
HETATM    7  H   UNK N   1      24.512  24.727  -6.147  0.00  0.00     0.179 HD
BRANCH   6   8
HETATM    8  S   UNK N   1      25.625  26.740  -5.508  0.00  0.00     0.263 S 
HETATM    9  O   UNK N   1      25.703  26.682  -3.976  0.00  0.00    -0.200 OA
HETATM   10  O   UNK N   1      24.206  27.308  -5.662  0.00  0.00    -0.200 OA
BRANCH   8  11
HETATM   11  C   UNK N   1      26.815  27.939  -6.119  0.00  0.00     0.079 A 
HETATM   12  C   UNK N   1      27.547  27.718  -7.292  0.00  0.00     0.026 A 
HETATM   13  C   UNK N   1      28.561  28.613  -7.663  0.00  0.00     0.008 A 
HETATM   14  C   UNK N   1      28.852  29.718  -6.854  0.00  0.00    -0.062 A 
HETATM   15  C   UNK N   1      28.121  29.940  -5.686  0.00  0.00     0.008 A 
HETATM   16  C   UNK N   1      29.951  30.649  -7.223  0.00  0.00     0.048 C 
HETATM   17  C   UNK N   1      27.110  29.050  -5.319  0.00  0.00     0.026 A 
ENDBRANCH   8  11
ENDBRANCH   6   8
ENDBRANCH   2   6
BRANCH   1  18
HETATM   18  C   UNK N   1      25.858  23.330  -8.477  0.00  0.00     0.185 C 
HETATM   19  O   UNK N   1      24.645  23.210  -8.391  0.00  0.00    -0.646 OA
BRANCH  18  20
HETATM   20  O   UNK N   1      26.433  23.397  -9.692  0.00  0.00    -0.772 OA
HETATM   21  H   UNK N   1      26.066  22.931 -10.417  0.00  0.00     0.167 HD
ENDBRANCH  18  20
ENDBRANCH   1  18
BRANCH   4  22
HETATM   22  C   UNK N   1      29.586  22.537  -4.665  0.00  0.00    -0.019 A 
HETATM   23  C   UNK N   1      30.016  23.299  -3.568  0.00  0.00     0.016 A 
HETATM   24  C   UNK N   1      31.106  22.875  -2.802  0.00  0.00     0.043 A 
HETATM   25  C   UNK N   1      31.768  21.688  -3.125  0.00  0.00     0.116 A 
HETATM   26  C   UNK N   1      31.343  20.925  -4.215  0.00  0.00     0.043 A 
HETATM   27  F   UNK N   1      32.821  21.274  -2.380  0.00  0.00    -0.206 F 
HETATM   28  C   UNK N   1      30.257  21.349  -4.983  0.00  0.00     0.016 A 
ENDBRANCH   4  22
TORSDOF 6
ENDMDL
MODEL 8
REMARK VINA RESULT:      -7.0      8.024     11.967
REMARK  6 active torsions:
REMARK  status: ('A' for Active; 'I' for Inactive)
REMARK    1  A    between atoms: C_5  and  C_10 
REMARK    2  A    between atoms: C_7  and  C_13 
REMARK    3  A    between atoms: C_8  and  N_16 
REMARK    4  A    between atoms: C_13  and  O_14 
REMARK    5  A    between atoms: N_16  and  S_17 
REMARK    6  A    between atoms: S_17  and  C_19 
ROOT
HETATM    1  C   UNK N   1      22.041  19.334   3.700  0.00  0.00     0.106 A 
HETATM    2  C   UNK N   1      23.311  19.125   4.265  0.00  0.00     0.067 A 
HETATM    3  C   UNK N   1      23.320  18.188   5.336  0.00  0.00     0.051 A 
HETATM    4  C   UNK N   1      22.049  17.657   5.594  0.00  0.00     0.018 A 
HETATM    5  S   UNK N   1      20.987  18.361   4.527  0.00  0.00    -0.081 SA
ENDROOT
BRANCH   2   6
HETATM    6  N   UNK N   1      24.468  19.797   3.804  0.00  0.00    -0.279 N 
HETATM    7  H   UNK N   1      24.352  20.667   3.357  0.00  0.00     0.179 HD
BRANCH   6   8
HETATM    8  S   UNK N   1      26.101  19.168   3.982  0.00  0.00     0.263 S 
HETATM    9  O   UNK N   1      26.942  20.109   3.107  0.00  0.00    -0.200 OA
HETATM   10  O   UNK N   1      26.091  17.929   3.073  0.00  0.00    -0.200 OA
BRANCH   8  11
HETATM   11  C   UNK N   1      27.003  18.793   5.489  0.00  0.00     0.079 A 
HETATM   12  C   UNK N   1      27.268  17.476   5.880  0.00  0.00     0.026 A 
HETATM   13  C   UNK N   1      27.856  17.220   7.128  0.00  0.00     0.008 A 
HETATM   14  C   UNK N   1      28.163  18.281   7.989  0.00  0.00    -0.062 A 
HETATM   15  C   UNK N   1      27.901  19.594   7.598  0.00  0.00     0.008 A 
HETATM   16  C   UNK N   1      28.751  18.013   9.328  0.00  0.00     0.048 C 
HETATM   17  C   UNK N   1      27.319  19.848   6.355  0.00  0.00     0.026 A 
ENDBRANCH   8  11
ENDBRANCH   6   8
ENDBRANCH   2   6
BRANCH   1  18
HETATM   18  C   UNK N   1      21.673  20.260   2.612  0.00  0.00     0.185 C 
HETATM   19  O   UNK N   1      21.065  19.854   1.633  0.00  0.00    -0.646 OA
BRANCH  18  20
HETATM   20  O   UNK N   1      22.029  21.556   2.680  0.00  0.00    -0.772 OA
HETATM   21  H   UNK N   1      21.905  22.122   1.944  0.00  0.00     0.167 HD
ENDBRANCH  18  20
ENDBRANCH   1  18
BRANCH   4  22
HETATM   22  C   UNK N   1      21.722  16.639   6.605  0.00  0.00    -0.019 A 
HETATM   23  C   UNK N   1      22.446  15.439   6.668  0.00  0.00     0.016 A 
HETATM   24  C   UNK N   1      22.141  14.484   7.641  0.00  0.00     0.043 A 
HETATM   25  C   UNK N   1      21.114  14.724   8.559  0.00  0.00     0.116 A 
HETATM   26  C   UNK N   1      20.390  15.917   8.501  0.00  0.00     0.043 A 
HETATM   27  F   UNK N   1      20.821  13.800   9.505  0.00  0.00    -0.206 F 
HETATM   28  C   UNK N   1      20.693  16.872   7.527  0.00  0.00     0.016 A 
ENDBRANCH   4  22
TORSDOF 6
ENDMDL
MODEL 9
REMARK VINA RESULT:      -6.9     18.148     20.897
REMARK  6 active torsions:
REMARK  status: ('A' for Active; 'I' for Inactive)
REMARK    1  A    between atoms: C_5  and  C_10 
REMARK    2  A    between atoms: C_7  and  C_13 
REMARK    3  A    between atoms: C_8  and  N_16 
REMARK    4  A    between atoms: C_13  and  O_14 
REMARK    5  A    between atoms: N_16  and  S_17 
REMARK    6  A    between atoms: S_17  and  C_19 
ROOT
HETATM    1  C   UNK N   1      26.293  25.154  -9.128  0.00  0.00     0.106 A 
HETATM    2  C   UNK N   1      25.566  24.578  -8.072  0.00  0.00     0.067 A 
HETATM    3  C   UNK N   1      25.564  25.355  -6.880  0.00  0.00     0.051 A 
HETATM    4  C   UNK N   1      26.286  26.549  -7.017  0.00  0.00     0.018 A 
HETATM    5  S   UNK N   1      26.897  26.589  -8.562  0.00  0.00    -0.081 SA
ENDROOT
BRANCH   2   6
HETATM    6  N   UNK N   1      24.903  23.334  -8.197  0.00  0.00    -0.279 N 
HETATM    7  H   UNK N   1      23.921  23.337  -8.275  0.00  0.00     0.179 HD
BRANCH   6   8
HETATM    8  S   UNK N   1      25.731  21.782  -8.219  0.00  0.00     0.263 S 
HETATM    9  O   UNK N   1      25.479  21.265  -9.642  0.00  0.00    -0.200 OA
HETATM   10  O   UNK N   1      24.766  20.868  -7.448  0.00  0.00    -0.200 OA
BRANCH   8  11
HETATM   11  C   UNK N   1      27.421  21.403  -7.739  0.00  0.00     0.079 A 
HETATM   12  C   UNK N   1      28.039  20.204  -8.112  0.00  0.00     0.026 A 
HETATM   13  C   UNK N   1      29.309  19.885  -7.607  0.00  0.00     0.008 A 
HETATM   14  C   UNK N   1      29.950  20.757  -6.718  0.00  0.00    -0.062 A 
HETATM   15  C   UNK N   1      29.334  21.953  -6.348  0.00  0.00     0.008 A 
HETATM   16  C   UNK N   1      31.279  20.406  -6.150  0.00  0.00     0.048 C 
HETATM   17  C   UNK N   1      28.072  22.271  -6.855  0.00  0.00     0.026 A 
ENDBRANCH   8  11
ENDBRANCH   6   8
ENDBRANCH   2   6
BRANCH   1  18
HETATM   18  C   UNK N   1      26.530  24.601 -10.475  0.00  0.00     0.185 C 
HETATM   19  O   UNK N   1      27.579  24.825 -11.060  0.00  0.00    -0.646 OA
BRANCH  18  20
HETATM   20  O   UNK N   1      25.578  23.868 -11.080  0.00  0.00    -0.772 OA
HETATM   21  H   UNK N   1      24.752  23.724 -10.661  0.00  0.00     0.167 HD
ENDBRANCH  18  20
ENDBRANCH   1  18
BRANCH   4  22
HETATM   22  C   UNK N   1      26.446  27.589  -5.988  0.00  0.00    -0.019 A 
HETATM   23  C   UNK N   1      25.685  27.549  -4.811  0.00  0.00     0.016 A 
HETATM   24  C   UNK N   1      25.855  28.532  -3.831  0.00  0.00     0.043 A 
HETATM   25  C   UNK N   1      26.787  29.555  -4.021  0.00  0.00     0.116 A 
HETATM   26  C   UNK N   1      27.547  29.599  -5.192  0.00  0.00     0.043 A 
HETATM   27  F   UNK N   1      26.954  30.505  -3.070  0.00  0.00    -0.206 F 
HETATM   28  C   UNK N   1      27.378  28.620  -6.172  0.00  0.00     0.016 A 
ENDBRANCH   4  22
TORSDOF 6
ENDMDL
