REMARK  6 active torsions:
REMARK  status: ('A' for Active; 'I' for Inactive)
REMARK    1  A    between atoms: C_5  and  C_10 
REMARK    2  A    between atoms: C_7  and  C_13 
REMARK    3  A    between atoms: C_8  and  N_16 
REMARK    4  A    between atoms: C_13  and  O_14 
REMARK    5  A    between atoms: N_16  and  S_17 
REMARK    6  A    between atoms: S_17  and  C_19 
ROOT
HETATM    1  C   UNK N   1      -1.678   3.125  -0.149  0.00  0.00     0.106 A 
HETATM    2  C   UNK N   1      -0.507   2.354  -0.246  0.00  0.00     0.067 A 
HETATM    3  C   UNK N   1      -0.732   0.950  -0.191  0.00  0.00     0.051 A 
HETATM    4  C   UNK N   1      -2.091   0.630  -0.063  0.00  0.00     0.018 A 
HETATM    5  S   UNK N   1      -2.938   2.059  -0.007  0.00  0.00    -0.081 SA
ENDROOT
BRANCH   2   6
HETATM    6  N   UNK N   1       0.776   2.936  -0.381  0.00  0.00    -0.279 N 
HETATM    7  H   UNK N   1       0.851   3.785  -0.874  0.00  0.00     0.179 HD
BRANCH   6   8
HETATM    8  S   UNK N   1       2.245   2.230   0.281  0.00  0.00     0.263 S 
HETATM    9  O   UNK N   1       2.100   2.459   1.792  0.00  0.00    -0.200 OA
HETATM   10  O   UNK N   1       3.307   3.296  -0.030  0.00  0.00    -0.200 OA
BRANCH   8  11
HETATM   11  C   UNK N   1       2.938   0.598  -0.009  0.00  0.00     0.079 A 
HETATM   12  C   UNK N   1       2.123  -0.524  -0.200  0.00  0.00     0.026 A 
HETATM   13  C   UNK N   1       2.699  -1.800  -0.289  0.00  0.00     0.008 A 
HETATM   14  C   UNK N   1       4.086  -1.954  -0.171  0.00  0.00    -0.062 A 
HETATM   15  C   UNK N   1       4.898  -0.835   0.017  0.00  0.00     0.008 A 
HETATM   16  C   UNK N   1       4.698  -3.308  -0.227  0.00  0.00     0.048 C 
HETATM   17  C   UNK N   1       4.324   0.435   0.102  0.00  0.00     0.026 A 
ENDBRANCH   8  11
ENDBRANCH   6   8
ENDBRANCH   2   6
BRANCH   1  18
HETATM   18  C   UNK N   1      -1.799   4.595  -0.131  0.00  0.00     0.185 C 
HETATM   19  O   UNK N   1      -0.805   5.299  -0.226  0.00  0.00    -0.646 OA
BRANCH  18  20
HETATM   20  O   UNK N   1      -3.007   5.170   0.018  0.00  0.00    -0.772 OA
HETATM   21  H   UNK N   1      -3.081   6.098   0.122  0.00  0.00     0.167 HD
ENDBRANCH  18  20
ENDBRANCH   1  18
BRANCH   4  22
HETATM   22  C   UNK N   1      -2.663  -0.725  -0.017  0.00  0.00    -0.019 A 
HETATM   23  C   UNK N   1      -4.048  -0.909   0.107  0.00  0.00     0.016 A 
HETATM   24  C   UNK N   1      -4.586  -2.199   0.134  0.00  0.00     0.043 A 
HETATM   25  C   UNK N   1      -3.744  -3.310   0.034  0.00  0.00     0.116 A 
HETATM   26  C   UNK N   1      -2.364  -3.132  -0.090  0.00  0.00     0.043 A 
HETATM   27  F   UNK N   1      -4.265  -4.560   0.056  0.00  0.00    -0.206 F 
HETATM   28  C   UNK N   1      -1.825  -1.844  -0.115  0.00  0.00     0.016 A 
ENDBRANCH   4  22
TORSDOF 6
