MODEL 1
REMARK VINA RESULT:      -6.4      0.000      0.000
REMARK  13 active torsions:
REMARK  status: ('A' for Active; 'I' for Inactive)
REMARK    1  A    between atoms: C_4  and  C_5 
REMARK    2  A    between atoms: C_5  and  C_6 
REMARK    3  A    between atoms: C_6  and  C_7 
REMARK    4  A    between atoms: C_9  and  C_10 
REMARK    5  A    between atoms: C_10  and  C_11 
REMARK    6  A    between atoms: C_11  and  C_12 
REMARK    7  A    between atoms: C_14  and  C_15 
REMARK    8  A    between atoms: C_15  and  O_16 
REMARK    9  A    between atoms: O_16  and  N_17 
REMARK       I    between atoms: N_17  and  C_18 
REMARK   10  A    between atoms: C_18  and  C_20 
REMARK   11  A    between atoms: C_20  and  P_21 
REMARK   12  A    between atoms: P_21  and  O_23 
REMARK   13  A    between atoms: P_21  and  O_24 
ROOT
HETATM    1  C   UNK N   1      31.475  17.764   8.660  0.00  0.00    -0.085 C 
HETATM    2  C   UNK N   1      31.241  16.281   8.567  0.00  0.00     0.043 C 
HETATM    3  C   UNK N   1      32.716  18.250   8.526  0.00  0.00     0.004 C 
ENDROOT
BRANCH   3   4
HETATM    4  C   UNK N   1      33.909  17.360   8.349  0.00  0.00     0.229 C 
BRANCH   4   5
HETATM    5  O   UNK N   1      34.805  17.660   9.378  0.00  0.00    -0.274 OA
BRANCH   5   6
HETATM    6  N   UNK N   1      34.575  16.772  10.351  0.00  0.00    -0.234 N 
HETATM    7  C   UNK N   1      35.601  16.147  10.971  0.00  0.00     0.252 C 
HETATM    8  O   UNK N   1      36.757  16.457  10.703  0.00  0.00    -0.271 OA
HETATM    9  H   UNK N   1      33.649  16.573  10.620  0.00  0.00     0.197 HD
BRANCH   7  10
HETATM   10  C   UNK N   1      35.294  15.010  11.918  0.00  0.00     0.229 C 
BRANCH  10  11
HETATM   11  P   UNK N   1      35.671  13.205  11.465  0.00  0.00     0.244 P 
HETATM   12  O   UNK N   1      35.203  13.672  10.062  0.00  0.00    -0.653 OA
BRANCH  11  13
HETATM   13  O   UNK N   1      34.363  13.356  12.595  0.00  0.00    -0.329 OA
HETATM   14  H   UNK N   1      33.473  13.578  12.280  0.00  0.00     0.220 HD
ENDBRANCH  11  13
BRANCH  11  15
HETATM   15  O   UNK N   1      37.197  13.919  11.886  0.00  0.00    -0.329 OA
HETATM   16  H   UNK N   1      38.153  13.774  11.809  0.00  0.00     0.220 HD
ENDBRANCH  11  15
ENDBRANCH  10  11
ENDBRANCH   7  10
ENDBRANCH   5   6
ENDBRANCH   4   5
ENDBRANCH   3   4
BRANCH   1  17
HETATM   17  C   UNK N   1      30.354  18.740   8.963  0.00  0.00     0.037 C 
BRANCH  17  18
HETATM   18  C   UNK N   1      28.907  18.276   8.716  0.00  0.00     0.031 C 
BRANCH  18  19
HETATM   19  C   UNK N   1      28.257  19.061   7.618  0.00  0.00    -0.024 C 
HETATM   20  C   UNK N   1      28.043  18.635   6.373  0.00  0.00    -0.087 C 
HETATM   21  C   UNK N   1      27.294  19.559   5.465  0.00  0.00     0.043 C 
BRANCH  20  22
HETATM   22  C   UNK N   1      28.527  17.287   5.886  0.00  0.00     0.037 C 
BRANCH  22  23
HETATM   23  C   UNK N   1      29.491  17.451   4.716  0.00  0.00     0.031 C 
BRANCH  23  24
HETATM   24  C   UNK N   1      30.910  17.637   5.146  0.00  0.00    -0.024 C 
HETATM   25  C   UNK N   1      31.926  17.321   4.331  0.00  0.00    -0.091 C 
HETATM   26  C   UNK N   1      33.327  17.522   4.792  0.00  0.00     0.042 C 
HETATM   27  C   UNK N   1      31.690  16.769   2.959  0.00  0.00     0.042 C 
ENDBRANCH  23  24
ENDBRANCH  22  23
ENDBRANCH  20  22
ENDBRANCH  18  19
ENDBRANCH  17  18
ENDBRANCH   1  17
TORSDOF 13
ENDMDL
MODEL 2
REMARK VINA RESULT:      -6.1      4.008      9.318
REMARK  13 active torsions:
REMARK  status: ('A' for Active; 'I' for Inactive)
REMARK    1  A    between atoms: C_4  and  C_5 
REMARK    2  A    between atoms: C_5  and  C_6 
REMARK    3  A    between atoms: C_6  and  C_7 
REMARK    4  A    between atoms: C_9  and  C_10 
REMARK    5  A    between atoms: C_10  and  C_11 
REMARK    6  A    between atoms: C_11  and  C_12 
REMARK    7  A    between atoms: C_14  and  C_15 
REMARK    8  A    between atoms: C_15  and  O_16 
REMARK    9  A    between atoms: O_16  and  N_17 
REMARK       I    between atoms: N_17  and  C_18 
REMARK   10  A    between atoms: C_18  and  C_20 
REMARK   11  A    between atoms: C_20  and  P_21 
REMARK   12  A    between atoms: P_21  and  O_23 
REMARK   13  A    between atoms: P_21  and  O_24 
ROOT
HETATM    1  C   UNK N   1      35.985  14.529  12.422  0.00  0.00    -0.085 C 
HETATM    2  C   UNK N   1      35.575  13.431  11.481  0.00  0.00     0.043 C 
HETATM    3  C   UNK N   1      36.077  15.789  11.974  0.00  0.00     0.004 C 
ENDROOT
BRANCH   3   4
HETATM    4  C   UNK N   1      35.847  16.145  10.536  0.00  0.00     0.229 C 
BRANCH   4   5
HETATM    5  O   UNK N   1      35.050  17.291  10.515  0.00  0.00    -0.274 OA
BRANCH   5   6
HETATM    6  N   UNK N   1      34.260  17.183   9.442  0.00  0.00    -0.234 N 
HETATM    7  C   UNK N   1      34.349  18.075   8.429  0.00  0.00     0.252 C 
HETATM    8  O   UNK N   1      35.219  18.938   8.448  0.00  0.00    -0.271 OA
HETATM    9  H   UNK N   1      33.607  16.448   9.388  0.00  0.00     0.197 HD
BRANCH   7  10
HETATM   10  C   UNK N   1      33.306  18.037   7.335  0.00  0.00     0.229 C 
BRANCH  10  11
HETATM   11  P   UNK N   1      33.196  16.589   6.111  0.00  0.00     0.244 P 
HETATM   12  O   UNK N   1      32.778  17.717   5.131  0.00  0.00    -0.653 OA
BRANCH  11  13
HETATM   13  O   UNK N   1      32.034  16.475   7.395  0.00  0.00    -0.329 OA
HETATM   14  H   UNK N   1      31.150  16.116   7.219  0.00  0.00     0.220 HD
ENDBRANCH  11  13
BRANCH  11  15
HETATM   15  O   UNK N   1      34.873  16.723   6.540  0.00  0.00    -0.329 OA
HETATM   16  H   UNK N   1      35.547  17.376   6.786  0.00  0.00     0.220 HD
ENDBRANCH  11  15
ENDBRANCH  10  11
ENDBRANCH   7  10
ENDBRANCH   5   6
ENDBRANCH   4   5
ENDBRANCH   3   4
BRANCH   1  17
HETATM   17  C   UNK N   1      36.362  14.256  13.866  0.00  0.00     0.037 C 
BRANCH  17  18
HETATM   18  C   UNK N   1      36.754  12.818  14.250  0.00  0.00     0.031 C 
BRANCH  18  19
HETATM   19  C   UNK N   1      36.475  12.538  15.695  0.00  0.00    -0.024 C 
HETATM   20  C   UNK N   1      35.300  12.174  16.209  0.00  0.00    -0.087 C 
HETATM   21  C   UNK N   1      35.274  11.859  17.672  0.00  0.00     0.043 C 
BRANCH  20  22
HETATM   22  C   UNK N   1      34.046  12.077  15.369  0.00  0.00     0.037 C 
BRANCH  22  23
HETATM   23  C   UNK N   1      33.818  10.641  14.907  0.00  0.00     0.031 C 
BRANCH  23  24
HETATM   24  C   UNK N   1      33.912  10.479  13.424  0.00  0.00    -0.024 C 
HETATM   25  C   UNK N   1      34.908   9.777  12.867  0.00  0.00    -0.091 C 
HETATM   26  C   UNK N   1      34.968   9.635  11.387  0.00  0.00     0.042 C 
HETATM   27  C   UNK N   1      35.971   9.126  13.699  0.00  0.00     0.042 C 
ENDBRANCH  23  24
ENDBRANCH  22  23
ENDBRANCH  20  22
ENDBRANCH  18  19
ENDBRANCH  17  18
ENDBRANCH   1  17
TORSDOF 13
ENDMDL
MODEL 3
REMARK VINA RESULT:      -6.0      1.730      3.673
REMARK  13 active torsions:
REMARK  status: ('A' for Active; 'I' for Inactive)
REMARK    1  A    between atoms: C_4  and  C_5 
REMARK    2  A    between atoms: C_5  and  C_6 
REMARK    3  A    between atoms: C_6  and  C_7 
REMARK    4  A    between atoms: C_9  and  C_10 
REMARK    5  A    between atoms: C_10  and  C_11 
REMARK    6  A    between atoms: C_11  and  C_12 
REMARK    7  A    between atoms: C_14  and  C_15 
REMARK    8  A    between atoms: C_15  and  O_16 
REMARK    9  A    between atoms: O_16  and  N_17 
REMARK       I    between atoms: N_17  and  C_18 
REMARK   10  A    between atoms: C_18  and  C_20 
REMARK   11  A    between atoms: C_20  and  P_21 
REMARK   12  A    between atoms: P_21  and  O_23 
REMARK   13  A    between atoms: P_21  and  O_24 
ROOT
HETATM    1  C   UNK N   1      30.771  17.517   7.813  0.00  0.00    -0.085 C 
HETATM    2  C   UNK N   1      30.756  16.695   6.554  0.00  0.00     0.043 C 
HETATM    3  C   UNK N   1      31.906  17.630   8.518  0.00  0.00     0.004 C 
ENDROOT
BRANCH   3   4
HETATM    4  C   UNK N   1      33.162  16.908   8.134  0.00  0.00     0.229 C 
BRANCH   4   5
HETATM    5  O   UNK N   1      34.217  17.523   8.811  0.00  0.00    -0.274 OA
BRANCH   5   6
HETATM    6  N   UNK N   1      34.257  16.973  10.029  0.00  0.00    -0.234 N 
HETATM    7  C   UNK N   1      35.228  16.089  10.354  0.00  0.00     0.252 C 
HETATM    8  O   UNK N   1      36.131  15.854   9.560  0.00  0.00    -0.271 OA
HETATM    9  H   UNK N   1      33.574  17.214  10.696  0.00  0.00     0.197 HD
BRANCH   7  10
HETATM   10  C   UNK N   1      35.120  15.342  11.663  0.00  0.00     0.229 C 
BRANCH  10  11
HETATM   11  P   UNK N   1      35.322  13.456  11.756  0.00  0.00     0.244 P 
HETATM   12  O   UNK N   1      34.686  13.661  13.156  0.00  0.00    -0.653 OA
BRANCH  11  13
HETATM   13  O   UNK N   1      36.841  14.292  11.679  0.00  0.00    -0.329 OA
HETATM   14  H   UNK N   1      37.363  14.424  12.485  0.00  0.00     0.220 HD
ENDBRANCH  11  13
BRANCH  11  15
HETATM   15  O   UNK N   1      34.166  13.750  10.494  0.00  0.00    -0.329 OA
HETATM   16  H   UNK N   1      34.090  13.807   9.529  0.00  0.00     0.220 HD
ENDBRANCH  11  15
ENDBRANCH  10  11
ENDBRANCH   7  10
ENDBRANCH   5   6
ENDBRANCH   4   5
ENDBRANCH   3   4
BRANCH   1  17
HETATM   17  C   UNK N   1      29.522  18.185   8.357  0.00  0.00     0.037 C 
BRANCH  17  18
HETATM   18  C   UNK N   1      28.272  18.215   7.460  0.00  0.00     0.031 C 
BRANCH  18  19
HETATM   19  C   UNK N   1      27.766  19.612   7.269  0.00  0.00    -0.024 C 
HETATM   20  C   UNK N   1      27.668  20.257   6.106  0.00  0.00    -0.087 C 
HETATM   21  C   UNK N   1      27.048  21.619   6.142  0.00  0.00     0.043 C 
BRANCH  20  22
HETATM   22  C   UNK N   1      28.152  19.654   4.806  0.00  0.00     0.037 C 
BRANCH  22  23
HETATM   23  C   UNK N   1      27.071  19.749   3.734  0.00  0.00     0.031 C 
BRANCH  23  24
HETATM   24  C   UNK N   1      25.856  18.940   4.052  0.00  0.00    -0.024 C 
HETATM   25  C   UNK N   1      24.636  19.346   3.673  0.00  0.00    -0.091 C 
HETATM   26  C   UNK N   1      23.449  18.513   4.006  0.00  0.00     0.042 C 
HETATM   27  C   UNK N   1      24.434  20.623   2.918  0.00  0.00     0.042 C 
ENDBRANCH  23  24
ENDBRANCH  22  23
ENDBRANCH  20  22
ENDBRANCH  18  19
ENDBRANCH  17  18
ENDBRANCH   1  17
TORSDOF 13
ENDMDL
MODEL 4
REMARK VINA RESULT:      -5.9      2.223      4.095
REMARK  13 active torsions:
REMARK  status: ('A' for Active; 'I' for Inactive)
REMARK    1  A    between atoms: C_4  and  C_5 
REMARK    2  A    between atoms: C_5  and  C_6 
REMARK    3  A    between atoms: C_6  and  C_7 
REMARK    4  A    between atoms: C_9  and  C_10 
REMARK    5  A    between atoms: C_10  and  C_11 
REMARK    6  A    between atoms: C_11  and  C_12 
REMARK    7  A    between atoms: C_14  and  C_15 
REMARK    8  A    between atoms: C_15  and  O_16 
REMARK    9  A    between atoms: O_16  and  N_17 
REMARK       I    between atoms: N_17  and  C_18 
REMARK   10  A    between atoms: C_18  and  C_20 
REMARK   11  A    between atoms: C_20  and  P_21 
REMARK   12  A    between atoms: P_21  and  O_23 
REMARK   13  A    between atoms: P_21  and  O_24 
ROOT
HETATM    1  C   UNK N   1      29.157  17.173   7.012  0.00  0.00    -0.085 C 
HETATM    2  C   UNK N   1      28.146  17.864   7.884  0.00  0.00     0.043 C 
HETATM    3  C   UNK N   1      30.451  17.184   7.359  0.00  0.00     0.004 C 
ENDROOT
BRANCH   3   4
HETATM    4  C   UNK N   1      30.950  17.922   8.564  0.00  0.00     0.229 C 
BRANCH   4   5
HETATM    5  O   UNK N   1      32.314  18.153   8.374  0.00  0.00    -0.274 OA
BRANCH   5   6
HETATM    6  N   UNK N   1      32.959  17.245   9.114  0.00  0.00    -0.234 N 
HETATM    7  C   UNK N   1      34.146  16.740   8.706  0.00  0.00     0.252 C 
HETATM    8  O   UNK N   1      34.682  17.180   7.695  0.00  0.00    -0.271 OA
HETATM    9  H   UNK N   1      32.566  16.941   9.964  0.00  0.00     0.197 HD
BRANCH   7  10
HETATM   10  C   UNK N   1      34.738  15.576   9.466  0.00  0.00     0.229 C 
BRANCH  10  11
HETATM   11  P   UNK N   1      35.412  15.774  11.230  0.00  0.00     0.244 P 
HETATM   12  O   UNK N   1      36.441  14.723  10.737  0.00  0.00    -0.653 OA
BRANCH  11  13
HETATM   13  O   UNK N   1      33.817  15.090  11.192  0.00  0.00    -0.329 OA
HETATM   14  H   UNK N   1      33.109  15.480  11.728  0.00  0.00     0.220 HD
ENDBRANCH  11  13
BRANCH  11  15
HETATM   15  O   UNK N   1      35.660  17.306  10.451  0.00  0.00    -0.329 OA
HETATM   16  H   UNK N   1      36.139  17.718   9.715  0.00  0.00     0.220 HD
ENDBRANCH  11  15
ENDBRANCH  10  11
ENDBRANCH   7  10
ENDBRANCH   5   6
ENDBRANCH   4   5
ENDBRANCH   3   4
BRANCH   1  17
HETATM   17  C   UNK N   1      28.773  16.505   5.705  0.00  0.00     0.037 C 
BRANCH  17  18
HETATM   18  C   UNK N   1      27.330  15.990   5.554  0.00  0.00     0.031 C 
BRANCH  18  19
HETATM   19  C   UNK N   1      27.025  15.616   4.137  0.00  0.00    -0.024 C 
HETATM   20  C   UNK N   1      26.090  16.171   3.365  0.00  0.00    -0.087 C 
HETATM   21  C   UNK N   1      26.021  15.698   1.946  0.00  0.00     0.043 C 
BRANCH  20  22
HETATM   22  C   UNK N   1      25.139  17.228   3.881  0.00  0.00     0.037 C 
BRANCH  22  23
HETATM   23  C   UNK N   1      25.665  18.624   3.565  0.00  0.00     0.031 C 
BRANCH  23  24
HETATM   24  C   UNK N   1      25.626  19.547   4.740  0.00  0.00    -0.024 C 
HETATM   25  C   UNK N   1      26.742  20.130   5.199  0.00  0.00    -0.091 C 
HETATM   26  C   UNK N   1      26.664  21.045   6.370  0.00  0.00     0.042 C 
HETATM   27  C   UNK N   1      28.075  19.884   4.561  0.00  0.00     0.042 C 
ENDBRANCH  23  24
ENDBRANCH  22  23
ENDBRANCH  20  22
ENDBRANCH  18  19
ENDBRANCH  17  18
ENDBRANCH   1  17
TORSDOF 13
ENDMDL
MODEL 5
REMARK VINA RESULT:      -5.8      4.773     10.755
REMARK  13 active torsions:
REMARK  status: ('A' for Active; 'I' for Inactive)
REMARK    1  A    between atoms: C_4  and  C_5 
REMARK    2  A    between atoms: C_5  and  C_6 
REMARK    3  A    between atoms: C_6  and  C_7 
REMARK    4  A    between atoms: C_9  and  C_10 
REMARK    5  A    between atoms: C_10  and  C_11 
REMARK    6  A    between atoms: C_11  and  C_12 
REMARK    7  A    between atoms: C_14  and  C_15 
REMARK    8  A    between atoms: C_15  and  O_16 
REMARK    9  A    between atoms: O_16  and  N_17 
REMARK       I    between atoms: N_17  and  C_18 
REMARK   10  A    between atoms: C_18  and  C_20 
REMARK   11  A    between atoms: C_20  and  P_21 
REMARK   12  A    between atoms: P_21  and  O_23 
REMARK   13  A    between atoms: P_21  and  O_24 
ROOT
HETATM    1  C   UNK N   1      36.667  12.532  12.953  0.00  0.00    -0.085 C 
HETATM    2  C   UNK N   1      37.365  11.922  11.769  0.00  0.00     0.043 C 
HETATM    3  C   UNK N   1      35.633  13.362  12.759  0.00  0.00     0.004 C 
ENDROOT
BRANCH   3   4
HETATM    4  C   UNK N   1      35.177  13.765  11.389  0.00  0.00     0.229 C 
BRANCH   4   5
HETATM    5  O   UNK N   1      34.237  14.785  11.550  0.00  0.00    -0.274 OA
BRANCH   5   6
HETATM    6  N   UNK N   1      34.416  15.630  10.529  0.00  0.00    -0.234 N 
HETATM    7  C   UNK N   1      33.750  15.456   9.365  0.00  0.00     0.252 C 
HETATM    8  O   UNK N   1      32.908  14.571   9.269  0.00  0.00    -0.271 OA
HETATM    9  H   UNK N   1      35.038  16.387  10.627  0.00  0.00     0.197 HD
BRANCH   7  10
HETATM   10  C   UNK N   1      34.131  16.308   8.177  0.00  0.00     0.229 C 
BRANCH  10  11
HETATM   11  P   UNK N   1      33.946  18.198   8.203  0.00  0.00     0.244 P 
HETATM   12  O   UNK N   1      35.175  18.101   9.144  0.00  0.00    -0.653 OA
BRANCH  11  13
HETATM   13  O   UNK N   1      32.596  17.379   8.924  0.00  0.00    -0.329 OA
HETATM   14  H   UNK N   1      32.714  16.885   9.750  0.00  0.00     0.220 HD
ENDBRANCH  11  13
BRANCH  11  15
HETATM   15  O   UNK N   1      34.372  17.784   6.571  0.00  0.00    -0.329 OA
HETATM   16  H   UNK N   1      34.812  18.143   5.785  0.00  0.00     0.220 HD
ENDBRANCH  11  15
ENDBRANCH  10  11
ENDBRANCH   7  10
ENDBRANCH   5   6
ENDBRANCH   4   5
ENDBRANCH   3   4
BRANCH   1  17
HETATM   17  C   UNK N   1      37.131  12.289  14.377  0.00  0.00     0.037 C 
BRANCH  17  18
HETATM   18  C   UNK N   1      37.989  11.041  14.653  0.00  0.00     0.031 C 
BRANCH  18  19
HETATM   19  C   UNK N   1      37.161   9.793  14.657  0.00  0.00    -0.024 C 
HETATM   20  C   UNK N   1      36.532   9.275  15.712  0.00  0.00    -0.087 C 
HETATM   21  C   UNK N   1      35.685   8.066  15.464  0.00  0.00     0.043 C 
BRANCH  20  22
HETATM   22  C   UNK N   1      36.655   9.869  17.098  0.00  0.00     0.037 C 
BRANCH  22  23
HETATM   23  C   UNK N   1      35.343  10.520  17.523  0.00  0.00     0.031 C 
BRANCH  23  24
HETATM   24  C   UNK N   1      35.528  11.870  18.136  0.00  0.00    -0.024 C 
HETATM   25  C   UNK N   1      35.085  12.975  17.522  0.00  0.00    -0.091 C 
HETATM   26  C   UNK N   1      35.284  14.303  18.164  0.00  0.00     0.042 C 
HETATM   27  C   UNK N   1      34.388  12.911  16.197  0.00  0.00     0.042 C 
ENDBRANCH  23  24
ENDBRANCH  22  23
ENDBRANCH  20  22
ENDBRANCH  18  19
ENDBRANCH  17  18
ENDBRANCH   1  17
TORSDOF 13
ENDMDL
MODEL 6
REMARK VINA RESULT:      -5.8      2.330      4.325
REMARK  13 active torsions:
REMARK  status: ('A' for Active; 'I' for Inactive)
REMARK    1  A    between atoms: C_4  and  C_5 
REMARK    2  A    between atoms: C_5  and  C_6 
REMARK    3  A    between atoms: C_6  and  C_7 
REMARK    4  A    between atoms: C_9  and  C_10 
REMARK    5  A    between atoms: C_10  and  C_11 
REMARK    6  A    between atoms: C_11  and  C_12 
REMARK    7  A    between atoms: C_14  and  C_15 
REMARK    8  A    between atoms: C_15  and  O_16 
REMARK    9  A    between atoms: O_16  and  N_17 
REMARK       I    between atoms: N_17  and  C_18 
REMARK   10  A    between atoms: C_18  and  C_20 
REMARK   11  A    between atoms: C_20  and  P_21 
REMARK   12  A    between atoms: P_21  and  O_23 
REMARK   13  A    between atoms: P_21  and  O_24 
ROOT
HETATM    1  C   UNK N   1      30.889  17.369   6.399  0.00  0.00    -0.085 C 
HETATM    2  C   UNK N   1      30.760  17.376   4.901  0.00  0.00     0.043 C 
HETATM    3  C   UNK N   1      32.086  17.153   6.961  0.00  0.00     0.004 C 
ENDROOT
BRANCH   3   4
HETATM    4  C   UNK N   1      33.308  16.850   6.149  0.00  0.00     0.229 C 
BRANCH   4   5
HETATM    5  O   UNK N   1      33.712  15.554   6.476  0.00  0.00    -0.274 OA
BRANCH   5   6
HETATM    6  N   UNK N   1      34.701  15.678   7.367  0.00  0.00    -0.234 N 
HETATM    7  C   UNK N   1      34.721  14.917   8.485  0.00  0.00     0.252 C 
HETATM    8  O   UNK N   1      33.877  14.042   8.644  0.00  0.00    -0.271 OA
HETATM    9  H   UNK N   1      35.421  16.330   7.209  0.00  0.00     0.197 HD
BRANCH   7  10
HETATM   10  C   UNK N   1      35.739  15.229   9.557  0.00  0.00     0.229 C 
BRANCH  10  11
HETATM   11  P   UNK N   1      35.408  16.532  10.898  0.00  0.00     0.244 P 
HETATM   12  O   UNK N   1      35.160  17.441   9.665  0.00  0.00    -0.653 OA
BRANCH  11  13
HETATM   13  O   UNK N   1      37.053  15.978  10.890  0.00  0.00    -0.329 OA
HETATM   14  H   UNK N   1      37.766  16.571  11.174  0.00  0.00     0.220 HD
ENDBRANCH  11  13
BRANCH  11  15
HETATM   15  O   UNK N   1      34.150  15.347  11.066  0.00  0.00    -0.329 OA
HETATM   16  H   UNK N   1      33.228  15.249  11.349  0.00  0.00     0.220 HD
ENDBRANCH  11  15
ENDBRANCH  10  11
ENDBRANCH   7  10
ENDBRANCH   5   6
ENDBRANCH   4   5
ENDBRANCH   3   4
BRANCH   1  17
HETATM   17  C   UNK N   1      29.690  17.540   7.314  0.00  0.00     0.037 C 
BRANCH  17  18
HETATM   18  C   UNK N   1      28.321  17.812   6.665  0.00  0.00     0.031 C 
BRANCH  18  19
HETATM   19  C   UNK N   1      27.877  19.225   6.888  0.00  0.00    -0.024 C 
HETATM   20  C   UNK N   1      27.709  20.151   5.943  0.00  0.00    -0.087 C 
HETATM   21  C   UNK N   1      27.171  21.475   6.387  0.00  0.00     0.043 C 
BRANCH  20  22
HETATM   22  C   UNK N   1      28.039  19.890   4.490  0.00  0.00     0.037 C 
BRANCH  22  23
HETATM   23  C   UNK N   1      26.792  20.028   3.623  0.00  0.00     0.031 C 
BRANCH  23  24
HETATM   24  C   UNK N   1      25.693  19.097   4.021  0.00  0.00    -0.024 C 
HETATM   25  C   UNK N   1      24.414  19.375   3.736  0.00  0.00    -0.091 C 
HETATM   26  C   UNK N   1      23.347  18.422   4.146  0.00  0.00     0.042 C 
HETATM   27  C   UNK N   1      24.025  20.627   3.011  0.00  0.00     0.042 C 
ENDBRANCH  23  24
ENDBRANCH  22  23
ENDBRANCH  20  22
ENDBRANCH  18  19
ENDBRANCH  17  18
ENDBRANCH   1  17
TORSDOF 13
ENDMDL
MODEL 7
REMARK VINA RESULT:      -5.8      1.787      3.411
REMARK  13 active torsions:
REMARK  status: ('A' for Active; 'I' for Inactive)
REMARK    1  A    between atoms: C_4  and  C_5 
REMARK    2  A    between atoms: C_5  and  C_6 
REMARK    3  A    between atoms: C_6  and  C_7 
REMARK    4  A    between atoms: C_9  and  C_10 
REMARK    5  A    between atoms: C_10  and  C_11 
REMARK    6  A    between atoms: C_11  and  C_12 
REMARK    7  A    between atoms: C_14  and  C_15 
REMARK    8  A    between atoms: C_15  and  O_16 
REMARK    9  A    between atoms: O_16  and  N_17 
REMARK       I    between atoms: N_17  and  C_18 
REMARK   10  A    between atoms: C_18  and  C_20 
REMARK   11  A    between atoms: C_20  and  P_21 
REMARK   12  A    between atoms: P_21  and  O_23 
REMARK   13  A    between atoms: P_21  and  O_24 
ROOT
HETATM    1  C   UNK N   1      32.709  17.434   7.150  0.00  0.00    -0.085 C 
HETATM    2  C   UNK N   1      33.411  17.450   5.821  0.00  0.00     0.043 C 
HETATM    3  C   UNK N   1      33.313  17.958   8.225  0.00  0.00     0.004 C 
ENDROOT
BRANCH   3   4
HETATM    4  C   UNK N   1      34.706  18.509   8.173  0.00  0.00     0.229 C 
BRANCH   4   5
HETATM    5  O   UNK N   1      35.301  18.250   9.409  0.00  0.00    -0.274 OA
BRANCH   5   6
HETATM    6  N   UNK N   1      34.656  17.200   9.928  0.00  0.00    -0.234 N 
HETATM    7  C   UNK N   1      35.332  16.231  10.585  0.00  0.00     0.252 C 
HETATM    8  O   UNK N   1      36.535  16.355  10.787  0.00  0.00    -0.271 OA
HETATM    9  H   UNK N   1      33.679  17.133   9.831  0.00  0.00     0.197 HD
BRANCH   7  10
HETATM   10  C   UNK N   1      34.597  14.971  10.977  0.00  0.00     0.229 C 
BRANCH  10  11
HETATM   11  P   UNK N   1      33.650  13.930   9.701  0.00  0.00     0.244 P 
HETATM   12  O   UNK N   1      34.685  14.554   8.727  0.00  0.00    -0.653 OA
BRANCH  11  13
HETATM   13  O   UNK N   1      32.678  15.187  10.399  0.00  0.00    -0.329 OA
HETATM   14  H   UNK N   1      32.346  15.096  11.306  0.00  0.00     0.220 HD
ENDBRANCH  11  13
BRANCH  11  15
HETATM   15  O   UNK N   1      34.406  12.794  10.775  0.00  0.00    -0.329 OA
HETATM   16  H   UNK N   1      34.213  12.013  11.317  0.00  0.00     0.220 HD
ENDBRANCH  11  15
ENDBRANCH  10  11
ENDBRANCH   7  10
ENDBRANCH   5   6
ENDBRANCH   4   5
ENDBRANCH   3   4
BRANCH   1  17
HETATM   17  C   UNK N   1      31.350  16.787   7.338  0.00  0.00     0.037 C 
BRANCH  17  18
HETATM   18  C   UNK N   1      30.182  17.301   6.477  0.00  0.00     0.031 C 
BRANCH  18  19
HETATM   19  C   UNK N   1      29.291  16.181   6.035  0.00  0.00    -0.024 C 
HETATM   20  C   UNK N   1      28.652  16.104   4.867  0.00  0.00    -0.087 C 
HETATM   21  C   UNK N   1      27.884  14.846   4.601  0.00  0.00     0.043 C 
BRANCH  20  22
HETATM   22  C   UNK N   1      28.692  17.222   3.849  0.00  0.00     0.037 C 
BRANCH  22  23
HETATM   23  C   UNK N   1      27.461  18.113   3.979  0.00  0.00     0.031 C 
BRANCH  23  24
HETATM   24  C   UNK N   1      27.676  19.283   4.883  0.00  0.00    -0.024 C 
HETATM   25  C   UNK N   1      26.790  20.288   4.936  0.00  0.00    -0.091 C 
HETATM   26  C   UNK N   1      27.036  21.436   5.850  0.00  0.00     0.042 C 
HETATM   27  C   UNK N   1      25.550  20.286   4.095  0.00  0.00     0.042 C 
ENDBRANCH  23  24
ENDBRANCH  22  23
ENDBRANCH  20  22
ENDBRANCH  18  19
ENDBRANCH  17  18
ENDBRANCH   1  17
TORSDOF 13
ENDMDL
MODEL 8
REMARK VINA RESULT:      -5.7      5.350     10.498
REMARK  13 active torsions:
REMARK  status: ('A' for Active; 'I' for Inactive)
REMARK    1  A    between atoms: C_4  and  C_5 
REMARK    2  A    between atoms: C_5  and  C_6 
REMARK    3  A    between atoms: C_6  and  C_7 
REMARK    4  A    between atoms: C_9  and  C_10 
REMARK    5  A    between atoms: C_10  and  C_11 
REMARK    6  A    between atoms: C_11  and  C_12 
REMARK    7  A    between atoms: C_14  and  C_15 
REMARK    8  A    between atoms: C_15  and  O_16 
REMARK    9  A    between atoms: O_16  and  N_17 
REMARK       I    between atoms: N_17  and  C_18 
REMARK   10  A    between atoms: C_18  and  C_20 
REMARK   11  A    between atoms: C_20  and  P_21 
REMARK   12  A    between atoms: P_21  and  O_23 
REMARK   13  A    between atoms: P_21  and  O_24 
ROOT
HETATM    1  C   UNK N   1      36.229  13.943  15.734  0.00  0.00    -0.085 C 
HETATM    2  C   UNK N   1      37.264  15.013  15.524  0.00  0.00     0.043 C 
HETATM    3  C   UNK N   1      35.669  13.344  14.675  0.00  0.00     0.004 C 
ENDROOT
BRANCH   3   4
HETATM    4  C   UNK N   1      35.987  13.747  13.266  0.00  0.00     0.229 C 
BRANCH   4   5
HETATM    5  O   UNK N   1      34.772  13.933  12.604  0.00  0.00    -0.274 OA
BRANCH   5   6
HETATM    6  N   UNK N   1      34.990  14.863  11.668  0.00  0.00    -0.234 N 
HETATM    7  C   UNK N   1      34.760  14.594  10.363  0.00  0.00     0.252 C 
HETATM    8  O   UNK N   1      34.264  13.521  10.038  0.00  0.00    -0.271 OA
HETATM    9  H   UNK N   1      35.320  15.752  11.931  0.00  0.00     0.197 HD
BRANCH   7  10
HETATM   10  C   UNK N   1      35.207  15.597   9.325  0.00  0.00     0.229 C 
BRANCH  10  11
HETATM   11  P   UNK N   1      34.214  17.176   8.969  0.00  0.00     0.244 P 
HETATM   12  O   UNK N   1      34.774  16.961   7.538  0.00  0.00    -0.653 OA
BRANCH  11  13
HETATM   13  O   UNK N   1      35.526  17.441  10.073  0.00  0.00    -0.329 OA
HETATM   14  H   UNK N   1      36.268  16.817  10.104  0.00  0.00     0.220 HD
ENDBRANCH  11  13
BRANCH  11  15
HETATM   15  O   UNK N   1      33.044  15.958   9.372  0.00  0.00    -0.329 OA
HETATM   16  H   UNK N   1      32.177  15.844   9.792  0.00  0.00     0.220 HD
ENDBRANCH  11  15
ENDBRANCH  10  11
ENDBRANCH   7  10
ENDBRANCH   5   6
ENDBRANCH   4   5
ENDBRANCH   3   4
BRANCH   1  17
HETATM   17  C   UNK N   1      35.743  13.550  17.117  0.00  0.00     0.037 C 
BRANCH  17  18
HETATM   18  C   UNK N   1      34.812  12.329  17.234  0.00  0.00     0.031 C 
BRANCH  18  19
HETATM   19  C   UNK N   1      35.365  11.304  18.174  0.00  0.00    -0.024 C 
HETATM   20  C   UNK N   1      36.268  10.370  17.871  0.00  0.00    -0.087 C 
HETATM   21  C   UNK N   1      36.745   9.505  18.996  0.00  0.00     0.043 C 
BRANCH  20  22
HETATM   22  C   UNK N   1      36.796  10.183  16.466  0.00  0.00     0.037 C 
BRANCH  22  23
HETATM   23  C   UNK N   1      36.032   9.077  15.747  0.00  0.00     0.031 C 
BRANCH  23  24
HETATM   24  C   UNK N   1      34.901   9.589  14.914  0.00  0.00    -0.024 C 
HETATM   25  C   UNK N   1      35.072   9.872  13.616  0.00  0.00    -0.091 C 
HETATM   26  C   UNK N   1      33.922  10.378  12.817  0.00  0.00     0.042 C 
HETATM   27  C   UNK N   1      36.397   9.692  12.940  0.00  0.00     0.042 C 
ENDBRANCH  23  24
ENDBRANCH  22  23
ENDBRANCH  20  22
ENDBRANCH  18  19
ENDBRANCH  17  18
ENDBRANCH   1  17
TORSDOF 13
ENDMDL
MODEL 9
REMARK VINA RESULT:      -5.6      1.548      3.556
REMARK  13 active torsions:
REMARK  status: ('A' for Active; 'I' for Inactive)
REMARK    1  A    between atoms: C_4  and  C_5 
REMARK    2  A    between atoms: C_5  and  C_6 
REMARK    3  A    between atoms: C_6  and  C_7 
REMARK    4  A    between atoms: C_9  and  C_10 
REMARK    5  A    between atoms: C_10  and  C_11 
REMARK    6  A    between atoms: C_11  and  C_12 
REMARK    7  A    between atoms: C_14  and  C_15 
REMARK    8  A    between atoms: C_15  and  O_16 
REMARK    9  A    between atoms: O_16  and  N_17 
REMARK       I    between atoms: N_17  and  C_18 
REMARK   10  A    between atoms: C_18  and  C_20 
REMARK   11  A    between atoms: C_20  and  P_21 
REMARK   12  A    between atoms: P_21  and  O_23 
REMARK   13  A    between atoms: P_21  and  O_24 
ROOT
HETATM    1  C   UNK N   1      33.389  17.024   6.886  0.00  0.00    -0.085 C 
HETATM    2  C   UNK N   1      33.323  18.163   7.865  0.00  0.00     0.043 C 
HETATM    3  C   UNK N   1      33.438  15.763   7.336  0.00  0.00     0.004 C 
ENDROOT
BRANCH   3   4
HETATM    4  C   UNK N   1      33.493  15.436   8.797  0.00  0.00     0.229 C 
BRANCH   4   5
HETATM    5  O   UNK N   1      34.841  15.379   9.158  0.00  0.00    -0.274 OA
BRANCH   5   6
HETATM    6  N   UNK N   1      34.873  15.102  10.465  0.00  0.00    -0.234 N 
HETATM    7  C   UNK N   1      35.871  15.573  11.246  0.00  0.00     0.252 C 
HETATM    8  O   UNK N   1      36.709  16.334  10.774  0.00  0.00    -0.271 OA
HETATM    9  H   UNK N   1      34.161  14.550  10.864  0.00  0.00     0.197 HD
BRANCH   7  10
HETATM   10  C   UNK N   1      35.979  15.073  12.668  0.00  0.00     0.229 C 
BRANCH  10  11
HETATM   11  P   UNK N   1      36.235  13.233  13.062  0.00  0.00     0.244 P 
HETATM   12  O   UNK N   1      36.679  13.799  14.436  0.00  0.00    -0.653 OA
BRANCH  11  13
HETATM   13  O   UNK N   1      37.304  13.811  11.822  0.00  0.00    -0.329 OA
HETATM   14  H   UNK N   1      37.054  13.728  10.889  0.00  0.00     0.220 HD
ENDBRANCH  11  13
BRANCH  11  15
HETATM   15  O   UNK N   1      34.527  13.436  12.823  0.00  0.00    -0.329 OA
HETATM   16  H   UNK N   1      33.818  13.244  12.189  0.00  0.00     0.220 HD
ENDBRANCH  11  15
ENDBRANCH  10  11
ENDBRANCH   7  10
ENDBRANCH   5   6
ENDBRANCH   4   5
ENDBRANCH   3   4
BRANCH   1  17
HETATM   17  C   UNK N   1      33.466  17.251   5.387  0.00  0.00     0.037 C 
BRANCH  17  18
HETATM   18  C   UNK N   1      32.158  17.567   4.638  0.00  0.00     0.031 C 
BRANCH  18  19
HETATM   19  C   UNK N   1      31.219  16.401   4.657  0.00  0.00    -0.024 C 
HETATM   20  C   UNK N   1      30.124  16.290   5.410  0.00  0.00    -0.087 C 
HETATM   21  C   UNK N   1      29.282  15.071   5.198  0.00  0.00     0.043 C 
BRANCH  20  22
HETATM   22  C   UNK N   1      29.736  17.338   6.430  0.00  0.00     0.037 C 
BRANCH  22  23
HETATM   23  C   UNK N   1      28.252  17.672   6.321  0.00  0.00     0.031 C 
BRANCH  23  24
HETATM   24  C   UNK N   1      27.988  18.928   5.555  0.00  0.00    -0.024 C 
HETATM   25  C   UNK N   1      27.333  18.900   4.386  0.00  0.00    -0.091 C 
HETATM   26  C   UNK N   1      27.086  20.170   3.652  0.00  0.00     0.042 C 
HETATM   27  C   UNK N   1      26.840  17.615   3.793  0.00  0.00     0.042 C 
ENDBRANCH  23  24
ENDBRANCH  22  23
ENDBRANCH  20  22
ENDBRANCH  18  19
ENDBRANCH  17  18
ENDBRANCH   1  17
TORSDOF 13
ENDMDL
