REMARK  7 active torsions:
REMARK  status: ('A' for Active; 'I' for Inactive)
REMARK    1  A    between atoms: C_1  and  C_11 
REMARK    2  A    between atoms: C_11  and  C_12 
REMARK    3  A    between atoms: C_12  and  C_13 
REMARK    4  A    between atoms: C_13  and  O_18 
REMARK    5  A    between atoms: P_14  and  O_16 
REMARK    6  A    between atoms: P_14  and  O_17 
REMARK    7  A    between atoms: P_14  and  O_18 
ROOT
HETATM    1  C   UNK N   1      -0.954  -1.033   0.378  0.00  0.00    -0.030 A 
HETATM    2  C   UNK N   1      -1.973  -0.130   0.217  0.00  0.00     0.001 A 
HETATM    3  C   UNK N   1      -3.096  -0.852  -0.061  0.00  0.00     0.043 A 
HETATM    4  C   UNK N   1      -1.982   1.259   0.282  0.00  0.00     0.056 A 
HETATM    5  C   UNK N   1      -1.506  -2.294   0.192  0.00  0.00     0.096 A 
HETATM    6  N   UNK N   1      -2.833  -2.171  -0.078  0.00  0.00    -0.365 N 
HETATM    7  C   UNK N   1      -4.323  -0.235  -0.294  0.00  0.00     0.033 A 
HETATM    8  C   UNK N   1      -3.202   1.916   0.050  0.00  0.00     0.117 A 
HETATM    9  C   UNK N   1      -4.369   1.171  -0.237  0.00  0.00     0.044 A 
HETATM   10  F   UNK N   1      -3.256   3.269   0.097  0.00  0.00    -0.206 F 
HETATM   11  H   UNK N   1      -3.472  -2.900  -0.251  0.00  0.00     0.165 HD
ENDROOT
BRANCH   1  12
HETATM   12  C   UNK N   1       0.474  -0.726   0.673  0.00  0.00     0.043 C 
BRANCH  12  13
HETATM   13  C   UNK N   1       1.027   0.177  -0.417  0.00  0.00     0.031 C 
BRANCH  13  14
HETATM   14  C   UNK N   1       2.388  -0.314  -0.857  0.00  0.00     0.180 C 
BRANCH  14  15
HETATM   15  O   UNK N   1       3.336  -0.016   0.128  0.00  0.00    -0.297 OA
BRANCH  15  16
HETATM   16  P   UNK N   1       4.574   0.889  -0.692  0.00  0.00     0.390 P 
HETATM   17  O   UNK N   1       5.605   1.429   0.334  0.00  0.00    -0.632 OA
BRANCH  16  18
HETATM   18  O   UNK N   1       5.253  -0.552  -0.000  0.00  0.00    -0.307 OA
HETATM   19  H   UNK N   1       4.745  -1.283   0.386  0.00  0.00     0.222 HD
ENDBRANCH  16  18
BRANCH  16  20
HETATM   20  O   UNK N   1       3.641   1.982   0.286  0.00  0.00    -0.307 OA
HETATM   21  H   UNK N   1       3.909   2.738   0.832  0.00  0.00     0.222 HD
ENDBRANCH  16  20
ENDBRANCH  15  16
ENDBRANCH  14  15
ENDBRANCH  13  14
ENDBRANCH  12  13
ENDBRANCH   1  12
TORSDOF 7
