MODEL 1
REMARK VINA RESULT:      -6.4      0.000      0.000
REMARK  7 active torsions:
REMARK  status: ('A' for Active; 'I' for Inactive)
REMARK    1  A    between atoms: C_1  and  C_11 
REMARK    2  A    between atoms: C_11  and  C_12 
REMARK    3  A    between atoms: C_12  and  C_13 
REMARK    4  A    between atoms: C_13  and  O_18 
REMARK    5  A    between atoms: P_14  and  O_16 
REMARK    6  A    between atoms: P_14  and  O_17 
REMARK    7  A    between atoms: P_14  and  O_18 
ROOT
HETATM    1  C   UNK N   1      29.131  17.850   6.612  0.00  0.00    -0.030 A 
HETATM    2  C   UNK N   1      28.315  18.911   6.315  0.00  0.00     0.001 A 
HETATM    3  C   UNK N   1      28.290  19.018   4.956  0.00  0.00     0.043 A 
HETATM    4  C   UNK N   1      27.614  19.783   7.141  0.00  0.00     0.056 A 
HETATM    5  C   UNK N   1      29.578  17.340   5.400  0.00  0.00     0.096 A 
HETATM    6  N   UNK N   1      29.051  18.070   4.381  0.00  0.00    -0.365 N 
HETATM    7  C   UNK N   1      27.555  20.012   4.314  0.00  0.00     0.033 A 
HETATM    8  C   UNK N   1      26.863  20.800   6.528  0.00  0.00     0.117 A 
HETATM    9  C   UNK N   1      26.833  20.914   5.119  0.00  0.00     0.044 A 
HETATM   10  F   UNK N   1      26.170  21.677   7.294  0.00  0.00    -0.206 F 
HETATM   11  H   UNK N   1      29.196  17.931   3.416  0.00  0.00     0.165 HD
ENDROOT
BRANCH   1  12
HETATM   12  C   UNK N   1      29.491  17.351   7.969  0.00  0.00     0.043 C 
BRANCH  12  13
HETATM   13  C   UNK N   1      30.620  18.199   8.531  0.00  0.00     0.031 C 
BRANCH  13  14
HETATM   14  C   UNK N   1      31.944  17.495   8.336  0.00  0.00     0.180 C 
BRANCH  14  15
HETATM   15  O   UNK N   1      32.989  18.418   8.455  0.00  0.00    -0.297 OA
BRANCH  15  16
HETATM   16  P   UNK N   1      34.444  17.470   8.376  0.00  0.00     0.390 P 
HETATM   17  O   UNK N   1      35.278  17.667   9.670  0.00  0.00    -0.632 OA
BRANCH  16  18
HETATM   18  O   UNK N   1      33.406  16.858   9.626  0.00  0.00    -0.307 OA
HETATM   19  H   UNK N   1      32.455  17.036   9.704  0.00  0.00     0.222 HD
ENDBRANCH  16  18
BRANCH  16  20
HETATM   20  O   UNK N   1      34.874  19.154   8.331  0.00  0.00    -0.307 OA
HETATM   21  H   UNK N   1      35.738  19.591   8.266  0.00  0.00     0.222 HD
ENDBRANCH  16  20
ENDBRANCH  15  16
ENDBRANCH  14  15
ENDBRANCH  13  14
ENDBRANCH  12  13
ENDBRANCH   1  12
TORSDOF 7
ENDMDL
MODEL 2
REMARK VINA RESULT:      -6.4      7.726     10.241
REMARK  7 active torsions:
REMARK  status: ('A' for Active; 'I' for Inactive)
REMARK    1  A    between atoms: C_1  and  C_11 
REMARK    2  A    between atoms: C_11  and  C_12 
REMARK    3  A    between atoms: C_12  and  C_13 
REMARK    4  A    between atoms: C_13  and  O_18 
REMARK    5  A    between atoms: P_14  and  O_16 
REMARK    6  A    between atoms: P_14  and  O_17 
REMARK    7  A    between atoms: P_14  and  O_18 
ROOT
HETATM    1  C   UNK N   1      35.730  13.859  12.143  0.00  0.00    -0.030 A 
HETATM    2  C   UNK N   1      35.905  13.810  13.502  0.00  0.00     0.001 A 
HETATM    3  C   UNK N   1      35.144  12.774  13.958  0.00  0.00     0.043 A 
HETATM    4  C   UNK N   1      36.662  14.606  14.355  0.00  0.00     0.056 A 
HETATM    5  C   UNK N   1      34.855  12.830  11.816  0.00  0.00     0.096 A 
HETATM    6  N   UNK N   1      34.500  12.164  12.947  0.00  0.00    -0.365 N 
HETATM    7  C   UNK N   1      35.084  12.452  15.311  0.00  0.00     0.033 A 
HETATM    8  C   UNK N   1      36.623  14.311  15.728  0.00  0.00     0.117 A 
HETATM    9  C   UNK N   1      35.837  13.237  16.205  0.00  0.00     0.044 A 
HETATM   10  F   UNK N   1      37.340  15.064  16.597  0.00  0.00    -0.206 F 
HETATM   11  H   UNK N   1      33.893  11.391  13.013  0.00  0.00     0.165 HD
ENDROOT
BRANCH   1  12
HETATM   12  C   UNK N   1      36.339  14.837  11.198  0.00  0.00     0.043 C 
BRANCH  12  13
HETATM   13  C   UNK N   1      35.605  16.163  11.309  0.00  0.00     0.031 C 
BRANCH  13  14
HETATM   14  C   UNK N   1      34.764  16.397  10.073  0.00  0.00     0.180 C 
BRANCH  14  15
HETATM   15  O   UNK N   1      35.205  17.551   9.417  0.00  0.00    -0.297 OA
BRANCH  15  16
HETATM   16  P   UNK N   1      33.983  17.891   8.227  0.00  0.00     0.390 P 
HETATM   17  O   UNK N   1      34.626  17.998   6.820  0.00  0.00    -0.632 OA
BRANCH  16  18
HETATM   18  O   UNK N   1      34.644  16.308   7.961  0.00  0.00    -0.307 OA
HETATM   19  H   UNK N   1      34.175  15.471   8.107  0.00  0.00     0.222 HD
ENDBRANCH  16  18
BRANCH  16  20
HETATM   20  O   UNK N   1      35.029  19.273   8.361  0.00  0.00    -0.307 OA
HETATM   21  H   UNK N   1      35.982  19.338   8.530  0.00  0.00     0.222 HD
ENDBRANCH  16  20
ENDBRANCH  15  16
ENDBRANCH  14  15
ENDBRANCH  13  14
ENDBRANCH  12  13
ENDBRANCH   1  12
TORSDOF 7
ENDMDL
MODEL 3
REMARK VINA RESULT:      -6.3      1.854      2.499
REMARK  7 active torsions:
REMARK  status: ('A' for Active; 'I' for Inactive)
REMARK    1  A    between atoms: C_1  and  C_11 
REMARK    2  A    between atoms: C_11  and  C_12 
REMARK    3  A    between atoms: C_12  and  C_13 
REMARK    4  A    between atoms: C_13  and  O_18 
REMARK    5  A    between atoms: P_14  and  O_16 
REMARK    6  A    between atoms: P_14  and  O_17 
REMARK    7  A    between atoms: P_14  and  O_18 
ROOT
HETATM    1  C   UNK N   1      28.874  17.743   7.051  0.00  0.00    -0.030 A 
HETATM    2  C   UNK N   1      28.265  18.732   6.322  0.00  0.00     0.001 A 
HETATM    3  C   UNK N   1      27.638  19.548   7.217  0.00  0.00     0.043 A 
HETATM    4  C   UNK N   1      28.211  18.955   4.951  0.00  0.00     0.056 A 
HETATM    5  C   UNK N   1      28.592  18.001   8.386  0.00  0.00     0.096 A 
HETATM    6  N   UNK N   1      27.827  19.122   8.478  0.00  0.00    -0.365 N 
HETATM    7  C   UNK N   1      26.906  20.659   6.804  0.00  0.00     0.033 A 
HETATM    8  C   UNK N   1      27.479  20.066   4.498  0.00  0.00     0.117 A 
HETATM    9  C   UNK N   1      26.829  20.915   5.422  0.00  0.00     0.044 A 
HETATM   10  F   UNK N   1      27.394  20.318   3.169  0.00  0.00    -0.206 F 
HETATM   11  H   UNK N   1      27.482  19.537   9.302  0.00  0.00     0.165 HD
ENDROOT
BRANCH   1  12
HETATM   12  C   UNK N   1      29.666  16.599   6.518  0.00  0.00     0.043 C 
BRANCH  12  13
HETATM   13  C   UNK N   1      31.137  16.979   6.489  0.00  0.00     0.031 C 
BRANCH  13  14
HETATM   14  C   UNK N   1      31.910  16.140   7.481  0.00  0.00     0.180 C 
BRANCH  14  15
HETATM   15  O   UNK N   1      33.270  16.458   7.406  0.00  0.00    -0.297 OA
BRANCH  15  16
HETATM   16  P   UNK N   1      33.395  18.073   8.039  0.00  0.00     0.390 P 
HETATM   17  O   UNK N   1      34.782  18.278   8.704  0.00  0.00    -0.632 OA
BRANCH  16  18
HETATM   18  O   UNK N   1      34.511  17.863   6.725  0.00  0.00    -0.307 OA
HETATM   19  H   UNK N   1      34.369  18.166   5.814  0.00  0.00     0.222 HD
ENDBRANCH  16  18
BRANCH  16  20
HETATM   20  O   UNK N   1      33.378  16.954   9.369  0.00  0.00    -0.307 OA
HETATM   21  H   UNK N   1      33.687  17.045  10.284  0.00  0.00     0.222 HD
ENDBRANCH  16  20
ENDBRANCH  15  16
ENDBRANCH  14  15
ENDBRANCH  13  14
ENDBRANCH  12  13
ENDBRANCH   1  12
TORSDOF 7
ENDMDL
MODEL 4
REMARK VINA RESULT:      -6.3     11.864     12.956
REMARK  7 active torsions:
REMARK  status: ('A' for Active; 'I' for Inactive)
REMARK    1  A    between atoms: C_1  and  C_11 
REMARK    2  A    between atoms: C_11  and  C_12 
REMARK    3  A    between atoms: C_12  and  C_13 
REMARK    4  A    between atoms: C_13  and  O_18 
REMARK    5  A    between atoms: P_14  and  O_16 
REMARK    6  A    between atoms: P_14  and  O_17 
REMARK    7  A    between atoms: P_14  and  O_18 
ROOT
HETATM    1  C   UNK N   1      26.984  24.326  -4.720  0.00  0.00    -0.030 A 
HETATM    2  C   UNK N   1      26.474  25.589  -4.560  0.00  0.00     0.001 A 
HETATM    3  C   UNK N   1      25.499  25.740  -5.501  0.00  0.00     0.043 A 
HETATM    4  C   UNK N   1      26.811  26.604  -3.671  0.00  0.00     0.056 A 
HETATM    5  C   UNK N   1      26.283  23.744  -5.769  0.00  0.00     0.096 A 
HETATM    6  N   UNK N   1      25.366  24.627  -6.245  0.00  0.00    -0.365 N 
HETATM    7  C   UNK N   1      24.778  26.925  -5.623  0.00  0.00     0.033 A 
HETATM    8  C   UNK N   1      26.106  27.815  -3.766  0.00  0.00     0.117 A 
HETATM    9  C   UNK N   1      25.092  27.975  -4.739  0.00  0.00     0.044 A 
HETATM   10  F   UNK N   1      26.404  28.834  -2.924  0.00  0.00    -0.206 F 
HETATM   11  H   UNK N   1      24.732  24.482  -6.984  0.00  0.00     0.165 HD
ENDROOT
BRANCH   1  12
HETATM   12  C   UNK N   1      28.088  23.702  -3.938  0.00  0.00     0.043 C 
BRANCH  12  13
HETATM   13  C   UNK N   1      29.238  23.369  -4.875  0.00  0.00     0.031 C 
BRANCH  13  14
HETATM   14  C   UNK N   1      29.704  21.950  -4.641  0.00  0.00     0.180 C 
BRANCH  14  15
HETATM   15  O   UNK N   1      30.058  21.787  -3.297  0.00  0.00    -0.297 OA
BRANCH  15  16
HETATM   16  P   UNK N   1      31.744  22.207  -3.217  0.00  0.00     0.390 P 
HETATM   17  O   UNK N   1      32.420  21.470  -2.031  0.00  0.00    -0.632 OA
BRANCH  16  18
HETATM   18  O   UNK N   1      31.570  20.528  -3.627  0.00  0.00    -0.307 OA
HETATM   19  H   UNK N   1      32.101  20.052  -4.285  0.00  0.00     0.222 HD
ENDBRANCH  16  18
BRANCH  16  20
HETATM   20  O   UNK N   1      30.941  22.862  -1.822  0.00  0.00    -0.307 OA
HETATM   21  H   UNK N   1      30.383  23.649  -1.717  0.00  0.00     0.222 HD
ENDBRANCH  16  20
ENDBRANCH  15  16
ENDBRANCH  14  15
ENDBRANCH  13  14
ENDBRANCH  12  13
ENDBRANCH   1  12
TORSDOF 7
ENDMDL
MODEL 5
REMARK VINA RESULT:      -6.2     15.277     16.742
REMARK  7 active torsions:
REMARK  status: ('A' for Active; 'I' for Inactive)
REMARK    1  A    between atoms: C_1  and  C_11 
REMARK    2  A    between atoms: C_11  and  C_12 
REMARK    3  A    between atoms: C_12  and  C_13 
REMARK    4  A    between atoms: C_13  and  O_18 
REMARK    5  A    between atoms: P_14  and  O_16 
REMARK    6  A    between atoms: P_14  and  O_17 
REMARK    7  A    between atoms: P_14  and  O_18 
ROOT
HETATM    1  C   UNK N   1      25.837  27.405  -4.903  0.00  0.00    -0.030 A 
HETATM    2  C   UNK N   1      26.756  28.277  -5.426  0.00  0.00     0.001 A 
HETATM    3  C   UNK N   1      26.905  29.281  -4.515  0.00  0.00     0.043 A 
HETATM    4  C   UNK N   1      27.450  28.260  -6.631  0.00  0.00     0.056 A 
HETATM    5  C   UNK N   1      25.456  27.919  -3.670  0.00  0.00     0.096 A 
HETATM    6  N   UNK N   1      26.124  29.080  -3.439  0.00  0.00    -0.365 N 
HETATM    7  C   UNK N   1      27.768  30.352  -4.741  0.00  0.00     0.033 A 
HETATM    8  C   UNK N   1      28.328  29.325  -6.894  0.00  0.00     0.117 A 
HETATM    9  C   UNK N   1      28.486  30.367  -5.952  0.00  0.00     0.044 A 
HETATM   10  F   UNK N   1      29.020  29.353  -8.059  0.00  0.00    -0.206 F 
HETATM   11  H   UNK N   1      26.051  29.657  -2.644  0.00  0.00     0.165 HD
ENDROOT
BRANCH   1  12
HETATM   12  C   UNK N   1      25.325  26.158  -5.540  0.00  0.00     0.043 C 
BRANCH  12  13
HETATM   13  C   UNK N   1      25.925  24.954  -4.834  0.00  0.00     0.031 C 
BRANCH  13  14
HETATM   14  C   UNK N   1      25.922  23.756  -5.758  0.00  0.00     0.180 C 
BRANCH  14  15
HETATM   15  O   UNK N   1      25.379  24.119  -6.995  0.00  0.00    -0.297 OA
BRANCH  15  16
HETATM   16  P   UNK N   1      25.523  22.698  -7.988  0.00  0.00     0.390 P 
HETATM   17  O   UNK N   1      24.118  22.103  -8.269  0.00  0.00    -0.632 OA
BRANCH  16  18
HETATM   18  O   UNK N   1      24.715  23.958  -8.869  0.00  0.00    -0.307 OA
HETATM   19  H   UNK N   1      24.662  24.023  -9.836  0.00  0.00     0.222 HD
ENDBRANCH  16  18
BRANCH  16  20
HETATM   20  O   UNK N   1      24.960  22.223  -6.414  0.00  0.00    -0.307 OA
HETATM   21  H   UNK N   1      24.135  21.796  -6.132  0.00  0.00     0.222 HD
ENDBRANCH  16  20
ENDBRANCH  15  16
ENDBRANCH  14  15
ENDBRANCH  13  14
ENDBRANCH  12  13
ENDBRANCH   1  12
TORSDOF 7
ENDMDL
MODEL 6
REMARK VINA RESULT:      -6.0     10.106     12.294
REMARK  7 active torsions:
REMARK  status: ('A' for Active; 'I' for Inactive)
REMARK    1  A    between atoms: C_1  and  C_11 
REMARK    2  A    between atoms: C_11  and  C_12 
REMARK    3  A    between atoms: C_12  and  C_13 
REMARK    4  A    between atoms: C_13  and  O_18 
REMARK    5  A    between atoms: P_14  and  O_16 
REMARK    6  A    between atoms: P_14  and  O_17 
REMARK    7  A    between atoms: P_14  and  O_18 
ROOT
HETATM    1  C   UNK N   1      35.967  12.171  14.928  0.00  0.00    -0.030 A 
HETATM    2  C   UNK N   1      35.699  12.420  16.249  0.00  0.00     0.001 A 
HETATM    3  C   UNK N   1      35.780  11.222  16.898  0.00  0.00     0.043 A 
HETATM    4  C   UNK N   1      35.382  13.601  16.911  0.00  0.00     0.056 A 
HETATM    5  C   UNK N   1      36.208  10.807  14.820  0.00  0.00     0.096 A 
HETATM    6  N   UNK N   1      36.090  10.229  16.046  0.00  0.00    -0.365 N 
HETATM    7  C   UNK N   1      35.549  11.116  18.267  0.00  0.00     0.033 A 
HETATM    8  C   UNK N   1      35.140  13.531  18.293  0.00  0.00     0.117 A 
HETATM    9  C   UNK N   1      35.224  12.292  18.969  0.00  0.00     0.044 A 
HETATM   10  F   UNK N   1      34.821  14.656  18.977  0.00  0.00    -0.206 F 
HETATM   11  H   UNK N   1      36.209   9.277  16.265  0.00  0.00     0.165 HD
ENDROOT
BRANCH   1  12
HETATM   12  C   UNK N   1      35.977  13.162  13.816  0.00  0.00     0.043 C 
BRANCH  12  13
HETATM   13  C   UNK N   1      36.572  12.517  12.576  0.00  0.00     0.031 C 
BRANCH  13  14
HETATM   14  C   UNK N   1      36.360  13.410  11.373  0.00  0.00     0.180 C 
BRANCH  14  15
HETATM   15  O   UNK N   1      35.959  14.681  11.797  0.00  0.00    -0.297 OA
BRANCH  15  16
HETATM   16  P   UNK N   1      35.474  15.511  10.348  0.00  0.00     0.390 P 
HETATM   17  O   UNK N   1      35.150  16.994  10.668  0.00  0.00    -0.632 OA
BRANCH  16  18
HETATM   18  O   UNK N   1      36.988  16.145  10.915  0.00  0.00    -0.307 OA
HETATM   19  H   UNK N   1      37.863  15.789  10.694  0.00  0.00     0.222 HD
ENDBRANCH  16  18
BRANCH  16  20
HETATM   20  O   UNK N   1      34.106  15.408  11.416  0.00  0.00    -0.307 OA
HETATM   21  H   UNK N   1      33.768  16.027  12.083  0.00  0.00     0.222 HD
ENDBRANCH  16  20
ENDBRANCH  15  16
ENDBRANCH  14  15
ENDBRANCH  13  14
ENDBRANCH  12  13
ENDBRANCH   1  12
TORSDOF 7
ENDMDL
MODEL 7
REMARK VINA RESULT:      -6.0     11.164     13.515
REMARK  7 active torsions:
REMARK  status: ('A' for Active; 'I' for Inactive)
REMARK    1  A    between atoms: C_1  and  C_11 
REMARK    2  A    between atoms: C_11  and  C_12 
REMARK    3  A    between atoms: C_12  and  C_13 
REMARK    4  A    between atoms: C_13  and  O_18 
REMARK    5  A    between atoms: P_14  and  O_16 
REMARK    6  A    between atoms: P_14  and  O_17 
REMARK    7  A    between atoms: P_14  and  O_18 
ROOT
HETATM    1  C   UNK N   1      35.204  13.042  17.027  0.00  0.00    -0.030 A 
HETATM    2  C   UNK N   1      35.146  11.847  17.697  0.00  0.00     0.001 A 
HETATM    3  C   UNK N   1      35.227  12.140  19.026  0.00  0.00     0.043 A 
HETATM    4  C   UNK N   1      35.043  10.542  17.229  0.00  0.00     0.056 A 
HETATM    5  C   UNK N   1      35.317  14.035  17.991  0.00  0.00     0.096 A 
HETATM    6  N   UNK N   1      35.328  13.466  19.226  0.00  0.00    -0.365 N 
HETATM    7  C   UNK N   1      35.208  11.141  19.997  0.00  0.00     0.033 A 
HETATM    8  C   UNK N   1      35.024   9.507  18.180  0.00  0.00     0.117 A 
HETATM    9  C   UNK N   1      35.106   9.806  19.560  0.00  0.00     0.044 A 
HETATM   10  F   UNK N   1      34.931   8.220  17.770  0.00  0.00    -0.206 F 
HETATM   11  H   UNK N   1      35.397  13.930  20.092  0.00  0.00     0.165 HD
ENDROOT
BRANCH   1  12
HETATM   12  C   UNK N   1      35.175  13.241  15.550  0.00  0.00     0.043 C 
BRANCH  12  13
HETATM   13  C   UNK N   1      36.564  13.631  15.071  0.00  0.00     0.031 C 
BRANCH  13  14
HETATM   14  C   UNK N   1      36.468  14.396  13.769  0.00  0.00     0.180 C 
BRANCH  14  15
HETATM   15  O   UNK N   1      35.238  14.128  13.157  0.00  0.00    -0.297 OA
BRANCH  15  16
HETATM   16  P   UNK N   1      35.530  14.313  11.453  0.00  0.00     0.390 P 
HETATM   17  O   UNK N   1      35.049  15.711  10.980  0.00  0.00    -0.632 OA
BRANCH  16  18
HETATM   18  O   UNK N   1      36.532  15.413  12.348  0.00  0.00    -0.307 OA
HETATM   19  H   UNK N   1      37.497  15.352  12.433  0.00  0.00     0.222 HD
ENDBRANCH  16  18
BRANCH  16  20
HETATM   20  O   UNK N   1      33.813  14.266  11.722  0.00  0.00    -0.307 OA
HETATM   21  H   UNK N   1      33.170  13.546  11.623  0.00  0.00     0.222 HD
ENDBRANCH  16  20
ENDBRANCH  15  16
ENDBRANCH  14  15
ENDBRANCH  13  14
ENDBRANCH  12  13
ENDBRANCH   1  12
TORSDOF 7
ENDMDL
MODEL 8
REMARK VINA RESULT:      -5.9      2.933      3.740
REMARK  7 active torsions:
REMARK  status: ('A' for Active; 'I' for Inactive)
REMARK    1  A    between atoms: C_1  and  C_11 
REMARK    2  A    between atoms: C_11  and  C_12 
REMARK    3  A    between atoms: C_12  and  C_13 
REMARK    4  A    between atoms: C_13  and  O_18 
REMARK    5  A    between atoms: P_14  and  O_16 
REMARK    6  A    between atoms: P_14  and  O_17 
REMARK    7  A    between atoms: P_14  and  O_18 
ROOT
HETATM    1  C   UNK N   1      32.219  17.173   6.619  0.00  0.00    -0.030 A 
HETATM    2  C   UNK N   1      31.180  17.510   7.447  0.00  0.00     0.001 A 
HETATM    3  C   UNK N   1      30.045  17.019   6.871  0.00  0.00     0.043 A 
HETATM    4  C   UNK N   1      31.157  18.217   8.644  0.00  0.00     0.056 A 
HETATM    5  C   UNK N   1      31.669  16.474   5.553  0.00  0.00     0.096 A 
HETATM    6  N   UNK N   1      30.322  16.383   5.719  0.00  0.00    -0.365 N 
HETATM    7  C   UNK N   1      28.793  17.198   7.455  0.00  0.00     0.033 A 
HETATM    8  C   UNK N   1      29.911  18.419   9.260  0.00  0.00     0.117 A 
HETATM    9  C   UNK N   1      28.732  17.910   8.667  0.00  0.00     0.044 A 
HETATM   10  F   UNK N   1      29.841  19.108  10.425  0.00  0.00    -0.206 F 
HETATM   11  H   UNK N   1      29.680  15.941   5.117  0.00  0.00     0.165 HD
ENDROOT
BRANCH   1  12
HETATM   12  C   UNK N   1      33.659  17.508   6.810  0.00  0.00     0.043 C 
BRANCH  12  13
HETATM   13  C   UNK N   1      34.301  16.464   7.708  0.00  0.00     0.031 C 
BRANCH  13  14
HETATM   14  C   UNK N   1      34.811  17.112   8.976  0.00  0.00     0.180 C 
BRANCH  14  15
HETATM   15  O   UNK N   1      34.214  16.505  10.087  0.00  0.00    -0.297 OA
BRANCH  15  16
HETATM   16  P   UNK N   1      35.275  15.194  10.512  0.00  0.00     0.390 P 
HETATM   17  O   UNK N   1      35.603  15.246  12.028  0.00  0.00    -0.632 OA
BRANCH  16  18
HETATM   18  O   UNK N   1      33.728  14.975  11.271  0.00  0.00    -0.307 OA
HETATM   19  H   UNK N   1      33.587  14.646  12.173  0.00  0.00     0.222 HD
ENDBRANCH  16  18
BRANCH  16  20
HETATM   20  O   UNK N   1      36.141  16.691  10.690  0.00  0.00    -0.307 OA
HETATM   21  H   UNK N   1      37.067  16.870  10.917  0.00  0.00     0.222 HD
ENDBRANCH  16  20
ENDBRANCH  15  16
ENDBRANCH  14  15
ENDBRANCH  13  14
ENDBRANCH  12  13
ENDBRANCH   1  12
TORSDOF 7
ENDMDL
MODEL 9
REMARK VINA RESULT:      -5.8     10.349     11.416
REMARK  7 active torsions:
REMARK  status: ('A' for Active; 'I' for Inactive)
REMARK    1  A    between atoms: C_1  and  C_11 
REMARK    2  A    between atoms: C_11  and  C_12 
REMARK    3  A    between atoms: C_12  and  C_13 
REMARK    4  A    between atoms: C_13  and  O_18 
REMARK    5  A    between atoms: P_14  and  O_16 
REMARK    6  A    between atoms: P_14  and  O_17 
REMARK    7  A    between atoms: P_14  and  O_18 
ROOT
HETATM    1  C   UNK N   1      23.114  13.509   8.149  0.00  0.00    -0.030 A 
HETATM    2  C   UNK N   1      22.675  13.026   9.354  0.00  0.00     0.001 A 
HETATM    3  C   UNK N   1      23.786  12.695  10.072  0.00  0.00     0.043 A 
HETATM    4  C   UNK N   1      21.390  12.845   9.853  0.00  0.00     0.056 A 
HETATM    5  C   UNK N   1      24.502  13.456   8.180  0.00  0.00     0.096 A 
HETATM    6  N   UNK N   1      24.908  12.952   9.376  0.00  0.00    -0.365 N 
HETATM    7  C   UNK N   1      23.695  12.157  11.354  0.00  0.00     0.033 A 
HETATM    8  C   UNK N   1      21.259  12.303  11.142  0.00  0.00     0.117 A 
HETATM    9  C   UNK N   1      22.409  11.960  11.891  0.00  0.00     0.044 A 
HETATM   10  F   UNK N   1      20.025  12.103  11.666  0.00  0.00    -0.206 F 
HETATM   11  H   UNK N   1      25.836  12.805   9.672  0.00  0.00     0.165 HD
ENDROOT
BRANCH   1  12
HETATM   12  C   UNK N   1      22.271  13.979   7.014  0.00  0.00     0.043 C 
BRANCH  12  13
HETATM   13  C   UNK N   1      21.930  15.446   7.218  0.00  0.00     0.031 C 
BRANCH  13  14
HETATM   14  C   UNK N   1      20.583  15.756   6.606  0.00  0.00     0.180 C 
BRANCH  14  15
HETATM   15  O   UNK N   1      20.223  17.074   6.904  0.00  0.00    -0.297 OA
BRANCH  15  16
HETATM   16  P   UNK N   1      19.934  17.089   8.619  0.00  0.00     0.390 P 
HETATM   17  O   UNK N   1      18.674  17.936   8.938  0.00  0.00    -0.632 OA
BRANCH  16  18
HETATM   18  O   UNK N   1      18.655  16.238   7.809  0.00  0.00    -0.307 OA
HETATM   19  H   UNK N   1      18.305  16.454   6.930  0.00  0.00     0.222 HD
ENDBRANCH  16  18
BRANCH  16  20
HETATM   20  O   UNK N   1      20.383  18.691   8.117  0.00  0.00    -0.307 OA
HETATM   21  H   UNK N   1      21.253  19.112   8.024  0.00  0.00     0.222 HD
ENDBRANCH  16  20
ENDBRANCH  15  16
ENDBRANCH  14  15
ENDBRANCH  13  14
ENDBRANCH  12  13
ENDBRANCH   1  12
TORSDOF 7
ENDMDL
