MODEL 1
REMARK VINA RESULT:      -7.3      0.000      0.000
REMARK  5 active torsions:
REMARK  status: ('A' for Active; 'I' for Inactive)
REMARK    1  A    between atoms: C_4  and  O_20 
REMARK    2  A    between atoms: C_6  and  O_21 
REMARK    3  A    between atoms: C_9  and  C_10 
REMARK    4  A    between atoms: C_11  and  O_22 
REMARK    5  A    between atoms: C_13  and  O_23 
ROOT
HETATM    1  C   UNK N   1      34.856  15.404  10.856  0.00  0.00     0.128 A 
HETATM    2  C   UNK N   1      35.223  16.698  10.275  0.00  0.00     0.221 A 
HETATM    3  C   UNK N   1      34.260  16.907   9.215  0.00  0.00     0.084 A 
HETATM    4  C   UNK N   1      34.073  17.937   8.293  0.00  0.00     0.085 A 
HETATM    5  C   UNK N   1      33.013  17.822   7.374  0.00  0.00     0.074 A 
HETATM    6  C   UNK N   1      32.170  16.688   7.396  0.00  0.00     0.071 A 
HETATM    7  C   UNK N   1      32.382  15.665   8.336  0.00  0.00     0.075 A 
HETATM    8  C   UNK N   1      33.436  15.805   9.232  0.00  0.00     0.096 A 
HETATM    9  C   UNK N   1      35.488  14.798  11.879  0.00  0.00     0.055 C 
HETATM   10  O   UNK N   1      33.781  14.922  10.193  0.00  0.00    -0.305 OA
HETATM   11  O   UNK N   1      36.138  17.435  10.606  0.00  0.00    -0.284 OA
ENDROOT
BRANCH   9  12
HETATM   12  C   UNK N   1      35.215  13.488  12.552  0.00  0.00     0.003 A 
HETATM   13  C   UNK N   1      34.894  12.258  11.909  0.00  0.00     0.096 A 
HETATM   14  C   UNK N   1      34.663  11.103  12.672  0.00  0.00     0.079 A 
HETATM   15  C   UNK N   1      34.747  11.150  14.067  0.00  0.00     0.103 A 
HETATM   16 Br   UNK N   1      34.230   9.451  11.794  0.00  0.00    -0.045 Br
HETATM   17  C   UNK N   1      35.062  12.352  14.705  0.00  0.00     0.046 A 
HETATM   18  C   UNK N   1      35.292  13.504  13.951  0.00  0.00     0.036 A 
HETATM   19 Br   UNK N   1      35.184  12.441  16.610  0.00  0.00    -0.048 Br
BRANCH  13  20
HETATM   20  O   UNK N   1      34.804  12.157  10.578  0.00  0.00    -0.358 OA
HETATM   21  H   UNK N   1      35.326  12.709  10.030  0.00  0.00     0.217 HD
ENDBRANCH  13  20
BRANCH  15  22
HETATM   22  O   UNK N   1      34.524  10.038  14.791  0.00  0.00    -0.358 OA
HETATM   23  H   UNK N   1      34.830   9.987  15.676  0.00  0.00     0.217 HD
ENDBRANCH  15  22
ENDBRANCH   9  12
BRANCH   4  24
HETATM   24  O   UNK N   1      34.879  19.012   8.278  0.00  0.00    -0.360 OA
HETATM   25  H   UNK N   1      35.791  18.915   8.470  0.00  0.00     0.217 HD
ENDBRANCH   4  24
BRANCH   6  26
HETATM   26  O   UNK N   1      31.162  16.584   6.517  0.00  0.00    -0.361 OA
HETATM   27  H   UNK N   1      30.383  16.118   6.749  0.00  0.00     0.217 HD
ENDBRANCH   6  26
TORSDOF 5
ENDMDL
MODEL 2
REMARK VINA RESULT:      -7.2      9.310     12.987
REMARK  5 active torsions:
REMARK  status: ('A' for Active; 'I' for Inactive)
REMARK    1  A    between atoms: C_4  and  O_20 
REMARK    2  A    between atoms: C_6  and  O_21 
REMARK    3  A    between atoms: C_9  and  C_10 
REMARK    4  A    between atoms: C_11  and  O_22 
REMARK    5  A    between atoms: C_13  and  O_23 
ROOT
HETATM    1  C   UNK N   1      24.604  19.579   3.770  0.00  0.00     0.128 A 
HETATM    2  C   UNK N   1      23.737  20.521   3.059  0.00  0.00     0.221 A 
HETATM    3  C   UNK N   1      22.431  19.900   3.078  0.00  0.00     0.084 A 
HETATM    4  C   UNK N   1      21.189  20.285   2.571  0.00  0.00     0.085 A 
HETATM    5  C   UNK N   1      20.095  19.424   2.770  0.00  0.00     0.074 A 
HETATM    6  C   UNK N   1      20.262  18.205   3.465  0.00  0.00     0.071 A 
HETATM    7  C   UNK N   1      21.524  17.843   3.966  0.00  0.00     0.075 A 
HETATM    8  C   UNK N   1      22.588  18.712   3.755  0.00  0.00     0.096 A 
HETATM    9  C   UNK N   1      25.922  19.741   3.992  0.00  0.00     0.055 C 
HETATM   10  O   UNK N   1      23.860  18.520   4.164  0.00  0.00    -0.305 OA
HETATM   11  O   UNK N   1      24.046  21.590   2.557  0.00  0.00    -0.284 OA
ENDROOT
BRANCH   9  12
HETATM   12  C   UNK N   1      26.907  18.858   4.694  0.00  0.00     0.003 A 
HETATM   13  C   UNK N   1      27.274  18.925   6.069  0.00  0.00     0.096 A 
HETATM   14  C   UNK N   1      28.216  18.027   6.592  0.00  0.00     0.079 A 
HETATM   15  C   UNK N   1      28.800  17.059   5.770  0.00  0.00     0.103 A 
HETATM   16 Br   UNK N   1      28.703  18.129   8.447  0.00  0.00    -0.045 Br
HETATM   17  C   UNK N   1      28.445  16.985   4.421  0.00  0.00     0.046 A 
HETATM   18  C   UNK N   1      27.509  17.877   3.896  0.00  0.00     0.036 A 
HETATM   19 Br   UNK N   1      29.229  15.669   3.278  0.00  0.00    -0.048 Br
BRANCH  13  20
HETATM   20  O   UNK N   1      26.743  19.830   6.900  0.00  0.00    -0.358 OA
HETATM   21  H   UNK N   1      25.897  20.191   6.721  0.00  0.00     0.217 HD
ENDBRANCH  13  20
BRANCH  15  22
HETATM   22  O   UNK N   1      29.703  16.200   6.280  0.00  0.00    -0.358 OA
HETATM   23  H   UNK N   1      29.961  16.272   7.178  0.00  0.00     0.217 HD
ENDBRANCH  15  22
ENDBRANCH   9  12
BRANCH   4  24
HETATM   24  O   UNK N   1      21.037  21.445   1.910  0.00  0.00    -0.360 OA
HETATM   25  H   UNK N   1      20.694  21.445   1.039  0.00  0.00     0.217 HD
ENDBRANCH   4  24
BRANCH   6  26
HETATM   26  O   UNK N   1      19.214  17.388   3.651  0.00  0.00    -0.361 OA
HETATM   27  H   UNK N   1      19.328  16.459   3.601  0.00  0.00     0.217 HD
ENDBRANCH   6  26
TORSDOF 5
ENDMDL
MODEL 3
REMARK VINA RESULT:      -7.0     12.325     15.255
REMARK  5 active torsions:
REMARK  status: ('A' for Active; 'I' for Inactive)
REMARK    1  A    between atoms: C_4  and  O_20 
REMARK    2  A    between atoms: C_6  and  O_21 
REMARK    3  A    between atoms: C_9  and  C_10 
REMARK    4  A    between atoms: C_11  and  O_22 
REMARK    5  A    between atoms: C_13  and  O_23 
ROOT
HETATM    1  C   UNK N   1      22.026  16.662   6.555  0.00  0.00     0.128 A 
HETATM    2  C   UNK N   1      21.644  15.461   7.301  0.00  0.00     0.221 A 
HETATM    3  C   UNK N   1      20.531  15.883   8.124  0.00  0.00     0.084 A 
HETATM    4  C   UNK N   1      19.732  15.216   9.054  0.00  0.00     0.085 A 
HETATM    5  C   UNK N   1      18.710  15.942   9.692  0.00  0.00     0.074 A 
HETATM    6  C   UNK N   1      18.509  17.308   9.392  0.00  0.00     0.071 A 
HETATM    7  C   UNK N   1      19.329  17.954   8.451  0.00  0.00     0.075 A 
HETATM    8  C   UNK N   1      20.331  17.213   7.835  0.00  0.00     0.096 A 
HETATM    9  C   UNK N   1      23.031  16.742   5.662  0.00  0.00     0.055 C 
HETATM   10  O   UNK N   1      21.205  17.674   6.914  0.00  0.00    -0.305 OA
HETATM   11  O   UNK N   1      22.151  14.352   7.247  0.00  0.00    -0.284 OA
ENDROOT
BRANCH   9  12
HETATM   12  C   UNK N   1      23.518  17.900   4.847  0.00  0.00     0.003 A 
HETATM   13  C   UNK N   1      24.858  18.378   4.774  0.00  0.00     0.096 A 
HETATM   14  C   UNK N   1      25.170  19.480   3.963  0.00  0.00     0.079 A 
HETATM   15  C   UNK N   1      24.171  20.115   3.220  0.00  0.00     0.103 A 
HETATM   16 Br   UNK N   1      26.980  20.115   3.873  0.00  0.00    -0.045 Br
HETATM   17  C   UNK N   1      22.855  19.652   3.284  0.00  0.00     0.046 A 
HETATM   18  C   UNK N   1      22.539  18.557   4.090  0.00  0.00     0.036 A 
HETATM   19 Br   UNK N   1      21.472  20.503   2.277  0.00  0.00    -0.048 Br
BRANCH  13  20
HETATM   20  O   UNK N   1      25.853  17.805   5.461  0.00  0.00    -0.358 OA
HETATM   21  H   UNK N   1      25.890  16.873   5.543  0.00  0.00     0.217 HD
ENDBRANCH  13  20
BRANCH  15  22
HETATM   22  O   UNK N   1      24.479  21.171   2.444  0.00  0.00    -0.358 OA
HETATM   23  H   UNK N   1      25.160  21.098   1.803  0.00  0.00     0.217 HD
ENDBRANCH  15  22
ENDBRANCH   9  12
BRANCH   4  24
HETATM   24  O   UNK N   1      19.928  13.918   9.335  0.00  0.00    -0.360 OA
HETATM   25  H   UNK N   1      19.718  13.586  10.186  0.00  0.00     0.217 HD
ENDBRANCH   4  24
BRANCH   6  26
HETATM   26  O   UNK N   1      17.533  17.995  10.005  0.00  0.00    -0.361 OA
HETATM   27  H   UNK N   1      16.952  18.533   9.504  0.00  0.00     0.217 HD
ENDBRANCH   6  26
TORSDOF 5
ENDMDL
MODEL 4
REMARK VINA RESULT:      -7.0     16.709     19.902
REMARK  5 active torsions:
REMARK  status: ('A' for Active; 'I' for Inactive)
REMARK    1  A    between atoms: C_4  and  O_20 
REMARK    2  A    between atoms: C_6  and  O_21 
REMARK    3  A    between atoms: C_9  and  C_10 
REMARK    4  A    between atoms: C_11  and  O_22 
REMARK    5  A    between atoms: C_13  and  O_23 
ROOT
HETATM    1  C   UNK N   1      29.771  23.364  -3.691  0.00  0.00     0.128 A 
HETATM    2  C   UNK N   1      30.641  22.748  -2.687  0.00  0.00     0.221 A 
HETATM    3  C   UNK N   1      31.651  22.055  -3.456  0.00  0.00     0.084 A 
HETATM    4  C   UNK N   1      32.754  21.280  -3.095  0.00  0.00     0.085 A 
HETATM    5  C   UNK N   1      33.550  20.740  -4.121  0.00  0.00     0.074 A 
HETATM    6  C   UNK N   1      33.230  20.982  -5.476  0.00  0.00     0.071 A 
HETATM    7  C   UNK N   1      32.114  21.766  -5.811  0.00  0.00     0.075 A 
HETATM    8  C   UNK N   1      31.344  22.288  -4.777  0.00  0.00     0.096 A 
HETATM    9  C   UNK N   1      28.681  24.111  -3.430  0.00  0.00     0.055 C 
HETATM   10  O   UNK N   1      30.243  23.056  -4.919  0.00  0.00    -0.305 OA
HETATM   11  O   UNK N   1      30.537  22.802  -1.471  0.00  0.00    -0.284 OA
ENDROOT
BRANCH   9  12
HETATM   12  C   UNK N   1      27.718  24.784  -4.359  0.00  0.00     0.003 A 
HETATM   13  C   UNK N   1      27.234  24.267  -5.595  0.00  0.00     0.096 A 
HETATM   14  C   UNK N   1      26.328  25.013  -6.365  0.00  0.00     0.079 A 
HETATM   15  C   UNK N   1      25.894  26.267  -5.926  0.00  0.00     0.103 A 
HETATM   16 Br   UNK N   1      25.684  24.305  -8.030  0.00  0.00    -0.045 Br
HETATM   17  C   UNK N   1      26.362  26.780  -4.714  0.00  0.00     0.046 A 
HETATM   18  C   UNK N   1      27.264  26.042  -3.945  0.00  0.00     0.036 A 
HETATM   19 Br   UNK N   1      25.781  28.491  -4.091  0.00  0.00    -0.048 Br
BRANCH  13  20
HETATM   20  O   UNK N   1      27.615  23.071  -6.061  0.00  0.00    -0.358 OA
HETATM   21  H   UNK N   1      27.346  22.794  -6.914  0.00  0.00     0.217 HD
ENDBRANCH  13  20
BRANCH  15  22
HETATM   22  O   UNK N   1      25.025  26.975  -6.670  0.00  0.00    -0.358 OA
HETATM   23  H   UNK N   1      24.434  27.574  -6.256  0.00  0.00     0.217 HD
ENDBRANCH  15  22
ENDBRANCH   9  12
BRANCH   4  24
HETATM   24  O   UNK N   1      33.052  21.054  -1.805  0.00  0.00    -0.360 OA
HETATM   25  H   UNK N   1      33.294  20.193  -1.525  0.00  0.00     0.217 HD
ENDBRANCH   4  24
BRANCH   6  26
HETATM   26  O   UNK N   1      33.994  20.462  -6.449  0.00  0.00    -0.361 OA
HETATM   27  H   UNK N   1      33.757  19.648  -6.848  0.00  0.00     0.217 HD
ENDBRANCH   6  26
TORSDOF 5
ENDMDL
MODEL 5
REMARK VINA RESULT:      -6.9      7.885     11.354
REMARK  5 active torsions:
REMARK  status: ('A' for Active; 'I' for Inactive)
REMARK    1  A    between atoms: C_4  and  O_20 
REMARK    2  A    between atoms: C_6  and  O_21 
REMARK    3  A    between atoms: C_9  and  C_10 
REMARK    4  A    between atoms: C_11  and  O_22 
REMARK    5  A    between atoms: C_13  and  O_23 
ROOT
HETATM    1  C   UNK N   1      26.151  19.169   4.161  0.00  0.00     0.128 A 
HETATM    2  C   UNK N   1      25.317  19.979   3.271  0.00  0.00     0.221 A 
HETATM    3  C   UNK N   1      23.962  19.567   3.567  0.00  0.00     0.084 A 
HETATM    4  C   UNK N   1      22.720  19.954   3.062  0.00  0.00     0.085 A 
HETATM    5  C   UNK N   1      21.569  19.336   3.584  0.00  0.00     0.074 A 
HETATM    6  C   UNK N   1      21.682  18.351   4.591  0.00  0.00     0.071 A 
HETATM    7  C   UNK N   1      22.945  17.980   5.081  0.00  0.00     0.075 A 
HETATM    8  C   UNK N   1      24.066  18.607   4.548  0.00  0.00     0.096 A 
HETATM    9  C   UNK N   1      27.496  19.212   4.229  0.00  0.00     0.055 C 
HETATM   10  O   UNK N   1      25.348  18.372   4.901  0.00  0.00    -0.305 OA
HETATM   11  O   UNK N   1      25.680  20.814   2.458  0.00  0.00    -0.284 OA
ENDROOT
BRANCH   9  12
HETATM   12  C   UNK N   1      28.452  18.439   5.083  0.00  0.00     0.003 A 
HETATM   13  C   UNK N   1      29.469  17.553   4.626  0.00  0.00     0.096 A 
HETATM   14  C   UNK N   1      30.297  16.893   5.547  0.00  0.00     0.079 A 
HETATM   15  C   UNK N   1      30.132  17.102   6.919  0.00  0.00     0.103 A 
HETATM   16 Br   UNK N   1      31.663  15.700   4.917  0.00  0.00    -0.045 Br
HETATM   17  C   UNK N   1      29.139  17.972   7.377  0.00  0.00     0.046 A 
HETATM   18  C   UNK N   1      28.312  18.629   6.464  0.00  0.00     0.036 A 
HETATM   19 Br   UNK N   1      28.895  18.274   9.248  0.00  0.00    -0.048 Br
BRANCH  13  20
HETATM   20  O   UNK N   1      29.672  17.319   3.323  0.00  0.00    -0.358 OA
HETATM   21  H   UNK N   1      30.532  17.399   2.962  0.00  0.00     0.217 HD
ENDBRANCH  13  20
BRANCH  15  22
HETATM   22  O   UNK N   1      30.931  16.467   7.796  0.00  0.00    -0.358 OA
HETATM   23  H   UNK N   1      30.811  15.551   7.960  0.00  0.00     0.217 HD
ENDBRANCH  15  22
ENDBRANCH   9  12
BRANCH   4  24
HETATM   24  O   UNK N   1      22.621  20.891   2.104  0.00  0.00    -0.360 OA
HETATM   25  H   UNK N   1      23.351  21.067   1.545  0.00  0.00     0.217 HD
ENDBRANCH   4  24
BRANCH   6  26
HETATM   26  O   UNK N   1      20.579  17.765   5.083  0.00  0.00    -0.361 OA
HETATM   27  H   UNK N   1      20.530  17.548   5.993  0.00  0.00     0.217 HD
ENDBRANCH   6  26
TORSDOF 5
ENDMDL
MODEL 6
REMARK VINA RESULT:      -6.9     11.569     14.751
REMARK  5 active torsions:
REMARK  status: ('A' for Active; 'I' for Inactive)
REMARK    1  A    between atoms: C_4  and  O_20 
REMARK    2  A    between atoms: C_6  and  O_21 
REMARK    3  A    between atoms: C_9  and  C_10 
REMARK    4  A    between atoms: C_11  and  O_22 
REMARK    5  A    between atoms: C_13  and  O_23 
ROOT
HETATM    1  C   UNK N   1      23.121  14.273   7.413  0.00  0.00     0.128 A 
HETATM    2  C   UNK N   1      24.157  13.669   8.253  0.00  0.00     0.221 A 
HETATM    3  C   UNK N   1      23.432  13.086   9.362  0.00  0.00     0.084 A 
HETATM    4  C   UNK N   1      23.838  12.378  10.494  0.00  0.00     0.085 A 
HETATM    5  C   UNK N   1      22.849  11.945  11.396  0.00  0.00     0.074 A 
HETATM    6  C   UNK N   1      21.486  12.227  11.150  0.00  0.00     0.071 A 
HETATM    7  C   UNK N   1      21.106  12.941  10.002  0.00  0.00     0.075 A 
HETATM    8  C   UNK N   1      22.104  13.357   9.127  0.00  0.00     0.096 A 
HETATM    9  C   UNK N   1      23.336  14.939   6.262  0.00  0.00     0.055 C 
HETATM   10  O   UNK N   1      21.916  14.052   7.985  0.00  0.00    -0.305 OA
HETATM   11  O   UNK N   1      25.363  13.660   8.065  0.00  0.00    -0.284 OA
ENDROOT
BRANCH   9  12
HETATM   12  C   UNK N   1      22.372  15.600   5.326  0.00  0.00     0.003 A 
HETATM   13  C   UNK N   1      22.239  16.999   5.097  0.00  0.00     0.096 A 
HETATM   14  C   UNK N   1      21.287  17.478   4.184  0.00  0.00     0.079 A 
HETATM   15  C   UNK N   1      20.463  16.586   3.491  0.00  0.00     0.103 A 
HETATM   16 Br   UNK N   1      21.117  19.368   3.887  0.00  0.00    -0.045 Br
HETATM   17  C   UNK N   1      20.588  15.212   3.708  0.00  0.00     0.046 A 
HETATM   18  C   UNK N   1      21.534  14.731   4.615  0.00  0.00     0.036 A 
HETATM   19 Br   UNK N   1      19.475  13.973   2.771  0.00  0.00    -0.048 Br
BRANCH  13  20
HETATM   20  O   UNK N   1      23.004  17.896   5.732  0.00  0.00    -0.358 OA
HETATM   21  H   UNK N   1      22.607  18.557   6.264  0.00  0.00     0.217 HD
ENDBRANCH  13  20
BRANCH  15  22
HETATM   22  O   UNK N   1      19.553  17.053   2.617  0.00  0.00    -0.358 OA
HETATM   23  H   UNK N   1      18.709  17.325   2.921  0.00  0.00     0.217 HD
ENDBRANCH  15  22
ENDBRANCH   9  12
BRANCH   4  24
HETATM   24  O   UNK N   1      25.135  12.115  10.721  0.00  0.00    -0.360 OA
HETATM   25  H   UNK N   1      25.502  11.298  10.445  0.00  0.00     0.217 HD
ENDBRANCH   4  24
BRANCH   6  26
HETATM   26  O   UNK N   1      20.548  11.811  12.015  0.00  0.00    -0.361 OA
HETATM   27  H   UNK N   1      20.703  11.057  12.549  0.00  0.00     0.217 HD
ENDBRANCH   6  26
TORSDOF 5
ENDMDL
MODEL 7
REMARK VINA RESULT:      -6.9     10.746     13.849
REMARK  5 active torsions:
REMARK  status: ('A' for Active; 'I' for Inactive)
REMARK    1  A    between atoms: C_4  and  O_20 
REMARK    2  A    between atoms: C_6  and  O_21 
REMARK    3  A    between atoms: C_9  and  C_10 
REMARK    4  A    between atoms: C_11  and  O_22 
REMARK    5  A    between atoms: C_13  and  O_23 
ROOT
HETATM    1  C   UNK N   1      22.534  14.065   6.954  0.00  0.00     0.128 A 
HETATM    2  C   UNK N   1      21.453  13.743   7.889  0.00  0.00     0.221 A 
HETATM    3  C   UNK N   1      22.127  13.246   9.068  0.00  0.00     0.084 A 
HETATM    4  C   UNK N   1      21.666  12.775  10.297  0.00  0.00     0.085 A 
HETATM    5  C   UNK N   1      22.616  12.355  11.247  0.00  0.00     0.074 A 
HETATM    6  C   UNK N   1      23.996  12.414  10.950  0.00  0.00     0.071 A 
HETATM    7  C   UNK N   1      24.432  12.893   9.704  0.00  0.00     0.075 A 
HETATM    8  C   UNK N   1      23.473  13.301   8.784  0.00  0.00     0.096 A 
HETATM    9  C   UNK N   1      22.374  14.559   5.712  0.00  0.00     0.055 C 
HETATM   10  O   UNK N   1      23.716  13.783   7.546  0.00  0.00    -0.305 OA
HETATM   11  O   UNK N   1      20.251  13.863   7.713  0.00  0.00    -0.284 OA
ENDROOT
BRANCH   9  12
HETATM   12  C   UNK N   1      23.387  14.921   4.670  0.00  0.00     0.003 A 
HETATM   13  C   UNK N   1      24.528  15.754   4.853  0.00  0.00     0.096 A 
HETATM   14  C   UNK N   1      25.396  16.007   3.781  0.00  0.00     0.079 A 
HETATM   15  C   UNK N   1      25.151  15.442   2.526  0.00  0.00     0.103 A 
HETATM   16 Br   UNK N   1      26.930  17.133   4.041  0.00  0.00    -0.045 Br
HETATM   17  C   UNK N   1      24.035  14.622   2.338  0.00  0.00     0.046 A 
HETATM   18  C   UNK N   1      23.168  14.369   3.401  0.00  0.00     0.036 A 
HETATM   19 Br   UNK N   1      23.679  13.838   0.632  0.00  0.00    -0.048 Br
BRANCH  13  20
HETATM   20  O   UNK N   1      24.812  16.317   6.034  0.00  0.00    -0.358 OA
HETATM   21  H   UNK N   1      25.541  16.011   6.536  0.00  0.00     0.217 HD
ENDBRANCH  13  20
BRANCH  15  22
HETATM   22  O   UNK N   1      25.989  15.689   1.502  0.00  0.00    -0.358 OA
HETATM   23  H   UNK N   1      26.790  15.208   1.428  0.00  0.00     0.217 HD
ENDBRANCH  15  22
ENDBRANCH   9  12
BRANCH   4  24
HETATM   24  O   UNK N   1      20.352  12.721  10.573  0.00  0.00    -0.360 OA
HETATM   25  H   UNK N   1      20.009  13.187  11.309  0.00  0.00     0.217 HD
ENDBRANCH   4  24
BRANCH   6  26
HETATM   26  O   UNK N   1      24.896  12.013  11.860  0.00  0.00    -0.361 OA
HETATM   27  H   UNK N   1      25.674  12.515  12.004  0.00  0.00     0.217 HD
ENDBRANCH   6  26
TORSDOF 5
ENDMDL
MODEL 8
REMARK VINA RESULT:      -6.8     11.793     15.345
REMARK  5 active torsions:
REMARK  status: ('A' for Active; 'I' for Inactive)
REMARK    1  A    between atoms: C_4  and  O_20 
REMARK    2  A    between atoms: C_6  and  O_21 
REMARK    3  A    between atoms: C_9  and  C_10 
REMARK    4  A    between atoms: C_11  and  O_22 
REMARK    5  A    between atoms: C_13  and  O_23 
ROOT
HETATM    1  C   UNK N   1      20.660  17.084   6.684  0.00  0.00     0.128 A 
HETATM    2  C   UNK N   1      19.388  16.480   7.087  0.00  0.00     0.221 A 
HETATM    3  C   UNK N   1      19.005  17.201   8.281  0.00  0.00     0.084 A 
HETATM    4  C   UNK N   1      17.908  17.104   9.138  0.00  0.00     0.085 A 
HETATM    5  C   UNK N   1      17.843  17.980  10.237  0.00  0.00     0.074 A 
HETATM    6  C   UNK N   1      18.868  18.929  10.455  0.00  0.00     0.071 A 
HETATM    7  C   UNK N   1      19.961  19.005   9.576  0.00  0.00     0.075 A 
HETATM    8  C   UNK N   1      20.000  18.127   8.498  0.00  0.00     0.096 A 
HETATM    9  C   UNK N   1      21.395  16.722   5.615  0.00  0.00     0.055 C 
HETATM   10  O   UNK N   1      20.972  18.063   7.563  0.00  0.00    -0.305 OA
HETATM   11  O   UNK N   1      18.785  15.569   6.542  0.00  0.00    -0.284 OA
ENDROOT
BRANCH   9  12
HETATM   12  C   UNK N   1      22.700  17.252   5.107  0.00  0.00     0.003 A 
HETATM   13  C   UNK N   1      22.900  18.478   4.410  0.00  0.00     0.096 A 
HETATM   14  C   UNK N   1      24.187  18.850   3.991  0.00  0.00     0.079 A 
HETATM   15  C   UNK N   1      25.281  18.021   4.255  0.00  0.00     0.103 A 
HETATM   16 Br   UNK N   1      24.443  20.505   3.052  0.00  0.00    -0.045 Br
HETATM   17  C   UNK N   1      25.094  16.818   4.940  0.00  0.00     0.046 A 
HETATM   18  C   UNK N   1      23.816  16.444   5.358  0.00  0.00     0.036 A 
HETATM   19 Br   UNK N   1      26.575  15.670   5.314  0.00  0.00    -0.048 Br
BRANCH  13  20
HETATM   20  O   UNK N   1      21.888  19.310   4.134  0.00  0.00    -0.358 OA
HETATM   21  H   UNK N   1      21.003  19.029   4.259  0.00  0.00     0.217 HD
ENDBRANCH  13  20
BRANCH  15  22
HETATM   22  O   UNK N   1      26.512  18.385   3.851  0.00  0.00    -0.358 OA
HETATM   23  H   UNK N   1      27.005  19.006   4.351  0.00  0.00     0.217 HD
ENDBRANCH  15  22
ENDBRANCH   9  12
BRANCH   4  24
HETATM   24  O   UNK N   1      16.938  16.200   8.925  0.00  0.00    -0.360 OA
HETATM   25  H   UNK N   1      17.153  15.354   8.583  0.00  0.00     0.217 HD
ENDBRANCH   4  24
BRANCH   6  26
HETATM   26  O   UNK N   1      18.800  19.761  11.505  0.00  0.00    -0.361 OA
HETATM   27  H   UNK N   1      19.586  20.061  11.917  0.00  0.00     0.217 HD
ENDBRANCH   6  26
TORSDOF 5
ENDMDL
MODEL 9
REMARK VINA RESULT:      -6.8      3.907      7.628
REMARK  5 active torsions:
REMARK  status: ('A' for Active; 'I' for Inactive)
REMARK    1  A    between atoms: C_4  and  O_20 
REMARK    2  A    between atoms: C_6  and  O_21 
REMARK    3  A    between atoms: C_9  and  C_10 
REMARK    4  A    between atoms: C_11  and  O_22 
REMARK    5  A    between atoms: C_13  and  O_23 
ROOT
HETATM    1  C   UNK N   1      34.000  16.156   9.307  0.00  0.00     0.128 A 
HETATM    2  C   UNK N   1      34.891  16.273  10.463  0.00  0.00     0.221 A 
HETATM    3  C   UNK N   1      35.155  14.907  10.859  0.00  0.00     0.084 A 
HETATM    4  C   UNK N   1      35.920  14.346  11.883  0.00  0.00     0.085 A 
HETATM    5  C   UNK N   1      35.960  12.944  11.990  0.00  0.00     0.074 A 
HETATM    6  C   UNK N   1      35.242  12.137  11.079  0.00  0.00     0.071 A 
HETATM    7  C   UNK N   1      34.480  12.728  10.057  0.00  0.00     0.075 A 
HETATM    8  C   UNK N   1      34.458  14.116   9.975  0.00  0.00     0.096 A 
HETATM    9  C   UNK N   1      33.486  17.185   8.606  0.00  0.00     0.055 C 
HETATM   10  O   UNK N   1      33.780  14.844   9.061  0.00  0.00    -0.305 OA
HETATM   11  O   UNK N   1      35.315  17.294  10.982  0.00  0.00    -0.284 OA
ENDROOT
BRANCH   9  12
HETATM   12  C   UNK N   1      32.571  17.195   7.422  0.00  0.00     0.003 A 
HETATM   13  C   UNK N   1      32.957  17.110   6.053  0.00  0.00     0.096 A 
HETATM   14  C   UNK N   1      31.984  17.131   5.043  0.00  0.00     0.079 A 
HETATM   15  C   UNK N   1      30.629  17.233   5.370  0.00  0.00     0.103 A 
HETATM   16 Br   UNK N   1      32.518  17.018   3.201  0.00  0.00    -0.045 Br
HETATM   17  C   UNK N   1      30.241  17.314   6.710  0.00  0.00     0.046 A 
HETATM   18  C   UNK N   1      31.205  17.295   7.719  0.00  0.00     0.036 A 
HETATM   19 Br   UNK N   1      28.394  17.452   7.182  0.00  0.00    -0.048 Br
BRANCH  13  20
HETATM   20  O   UNK N   1      34.240  17.008   5.684  0.00  0.00    -0.358 OA
HETATM   21  H   UNK N   1      34.918  17.054   6.329  0.00  0.00     0.217 HD
ENDBRANCH  13  20
BRANCH  15  22
HETATM   22  O   UNK N   1      29.701  17.251   4.395  0.00  0.00    -0.358 OA
HETATM   23  H   UNK N   1      29.580  16.498   3.850  0.00  0.00     0.217 HD
ENDBRANCH  15  22
ENDBRANCH   9  12
BRANCH   4  24
HETATM   24  O   UNK N   1      36.600  15.119  12.746  0.00  0.00    -0.360 OA
HETATM   25  H   UNK N   1      36.194  15.399  13.543  0.00  0.00     0.217 HD
ENDBRANCH   4  24
BRANCH   6  26
HETATM   26  O   UNK N   1      35.285  10.800  11.187  0.00  0.00    -0.361 OA
HETATM   27  H   UNK N   1      36.091  10.344  11.045  0.00  0.00     0.217 HD
ENDBRANCH   6  26
TORSDOF 5
ENDMDL
