REMARK  5 active torsions:
REMARK  status: ('A' for Active; 'I' for Inactive)
REMARK    1  A    between atoms: C_4  and  O_20 
REMARK    2  A    between atoms: C_6  and  O_21 
REMARK    3  A    between atoms: C_9  and  C_10 
REMARK    4  A    between atoms: C_11  and  O_22 
REMARK    5  A    between atoms: C_13  and  O_23 
ROOT
HETATM    1  C   UNK N   1      -0.155   1.106  -0.002  0.00  0.00     0.128 A 
HETATM    2  C   UNK N   1       0.595   2.364   0.006  0.00  0.00     0.221 A 
HETATM    3  C   UNK N   1       1.984   1.960  -0.000  0.00  0.00     0.084 A 
HETATM    4  C   UNK N   1       3.181   2.677   0.007  0.00  0.00     0.085 A 
HETATM    5  C   UNK N   1       4.388   1.954  -0.001  0.00  0.00     0.074 A 
HETATM    6  C   UNK N   1       4.374   0.541  -0.015  0.00  0.00     0.071 A 
HETATM    7  C   UNK N   1       3.154  -0.155  -0.022  0.00  0.00     0.075 A 
HETATM    8  C   UNK N   1       1.976   0.584  -0.014  0.00  0.00     0.096 A 
HETATM    9  C   UNK N   1      -1.497   0.994   0.005  0.00  0.00     0.055 C 
HETATM   10  O   UNK N   1       0.724   0.079  -0.017  0.00  0.00    -0.305 OA
HETATM   11  O   UNK N   1       0.150   3.501   0.019  0.00  0.00    -0.284 OA
ENDROOT
BRANCH   9  12
HETATM   12  C   UNK N   1      -2.372  -0.221   0.003  0.00  0.00     0.003 A 
HETATM   13  C   UNK N   1      -1.936  -1.577   0.014  0.00  0.00     0.096 A 
HETATM   14  C   UNK N   1      -2.875  -2.620   0.011  0.00  0.00     0.079 A 
HETATM   15  C   UNK N   1      -4.244  -2.337  -0.001  0.00  0.00     0.103 A 
HETATM   16 Br   UNK N   1      -2.274  -4.444   0.025  0.00  0.00    -0.045 Br
HETATM   17  C   UNK N   1      -4.680  -1.010  -0.010  0.00  0.00     0.046 A 
HETATM   18  C   UNK N   1      -3.750   0.031  -0.008  0.00  0.00     0.036 A 
HETATM   19 Br   UNK N   1      -6.546  -0.598  -0.025  0.00  0.00    -0.048 Br
BRANCH  13  20
HETATM   20  O   UNK N   1      -0.638  -1.904   0.029  0.00  0.00    -0.358 OA
HETATM   21  H   UNK N   1      -0.382  -2.805   0.040  0.00  0.00     0.217 HD
ENDBRANCH  13  20
BRANCH  15  22
HETATM   22  O   UNK N   1      -5.138  -3.343  -0.003  0.00  0.00    -0.358 OA
HETATM   23  H   UNK N   1      -6.056  -3.153  -0.005  0.00  0.00     0.217 HD
ENDBRANCH  15  22
ENDBRANCH   9  12
BRANCH   4  24
HETATM   24  O   UNK N   1       3.187   4.020   0.021  0.00  0.00    -0.360 OA
HETATM   25  H   UNK N   1       4.001   4.484   0.031  0.00  0.00     0.217 HD
ENDBRANCH   4  24
BRANCH   6  26
HETATM   26  O   UNK N   1       5.529  -0.142  -0.022  0.00  0.00    -0.361 OA
HETATM   27  H   UNK N   1       5.520  -1.079  -0.026  0.00  0.00     0.217 HD
ENDBRANCH   6  26
TORSDOF 5
