MODEL 1
REMARK VINA RESULT:      -8.9      0.000      0.000
REMARK  5 active torsions:
REMARK  status: ('A' for Active; 'I' for Inactive)
REMARK    1  A    between atoms: N_3  and  N_4 
REMARK    2  A    between atoms: N_4  and  C_5 
REMARK    3  A    between atoms: C_14  and  C_16 
REMARK    4  A    between atoms: C_19  and  O_22 
REMARK    5  A    between atoms: O_22  and  C_23 
ROOT
HETATM    1  O   UNK N   1      33.136  15.280   8.416  0.00  0.00    -0.267 OA
HETATM    2  C   UNK N   1      33.603  16.359   8.083  0.00  0.00     0.287 A 
HETATM    3  N   UNK N   1      34.233  17.186   8.915  0.00  0.00    -0.162 N 
HETATM    4  C   UNK N   1      34.667  18.228   8.194  0.00  0.00     0.390 A 
HETATM    5  O   UNK N   1      34.361  18.100   6.890  0.00  0.00    -0.276 OA
HETATM    6  O   UNK N   1      35.331  19.152   8.625  0.00  0.00    -0.236 OA
HETATM    7  C   UNK N   1      33.685  16.901   6.675  0.00  0.00     0.178 A 
HETATM    8  C   UNK N   1      34.598  15.966   5.878  0.00  0.00     0.063 C 
ENDROOT
BRANCH   7   9
HETATM    9  C   UNK N   1      32.394  17.205   5.950  0.00  0.00    -0.014 A 
HETATM   10  C   UNK N   1      32.331  17.372   4.548  0.00  0.00     0.013 A 
HETATM   11  C   UNK N   1      31.079  17.451   3.900  0.00  0.00     0.038 A 
HETATM   12  C   UNK N   1      29.899  17.361   4.659  0.00  0.00     0.076 A 
HETATM   13  C   UNK N   1      29.995  17.207   6.045  0.00  0.00     0.038 A 
HETATM   14  C   UNK N   1      31.209  17.134   6.676  0.00  0.00     0.013 A 
BRANCH  12  15
HETATM   15  O   UNK N   1      28.667  17.386   4.074  0.00  0.00    -0.311 OA
BRANCH  15  16
HETATM   16  C   UNK N   1      27.760  18.363   4.365  0.00  0.00     0.076 A 
HETATM   17  C   UNK N   1      26.398  18.061   4.459  0.00  0.00     0.037 A 
HETATM   18  C   UNK N   1      25.489  19.053   4.854  0.00  0.00     0.003 A 
HETATM   19  C   UNK N   1      25.937  20.347   5.149  0.00  0.00     0.000 A 
HETATM   20  C   UNK N   1      27.290  20.661   5.028  0.00  0.00     0.003 A 
HETATM   21  C   UNK N   1      28.191  19.677   4.637  0.00  0.00     0.037 A 
ENDBRANCH  15  16
ENDBRANCH  12  15
ENDBRANCH   7   9
BRANCH   3  22
HETATM   22  N   UNK N   1      34.511  16.904  10.243  0.00  0.00    -0.287 N 
HETATM   23  H   UNK N   1      34.235  17.556  10.928  0.00  0.00     0.188 HD
BRANCH  22  24
HETATM   24  C   UNK N   1      35.173  15.725  10.664  0.00  0.00     0.049 A 
HETATM   25  C   UNK N   1      34.548  14.875  11.584  0.00  0.00     0.031 A 
HETATM   26  C   UNK N   1      35.173  13.689  11.977  0.00  0.00     0.002 A 
HETATM   27  C   UNK N   1      36.431  13.357  11.463  0.00  0.00     0.000 A 
HETATM   28  C   UNK N   1      37.067  14.215  10.564  0.00  0.00     0.002 A 
HETATM   29  C   UNK N   1      36.440  15.397  10.166  0.00  0.00     0.031 A 
ENDBRANCH  22  24
ENDBRANCH   3  22
TORSDOF 5
ENDMDL
MODEL 2
REMARK VINA RESULT:      -8.2      3.113      9.915
REMARK  5 active torsions:
REMARK  status: ('A' for Active; 'I' for Inactive)
REMARK    1  A    between atoms: N_3  and  N_4 
REMARK    2  A    between atoms: N_4  and  C_5 
REMARK    3  A    between atoms: C_14  and  C_16 
REMARK    4  A    between atoms: C_19  and  O_22 
REMARK    5  A    between atoms: O_22  and  C_23 
ROOT
HETATM    1  O   UNK N   1      35.401  16.675   9.607  0.00  0.00    -0.267 OA
HETATM    2  C   UNK N   1      34.798  15.645   9.343  0.00  0.00     0.287 A 
HETATM    3  N   UNK N   1      33.578  15.610   8.811  0.00  0.00    -0.162 N 
HETATM    4  C   UNK N   1      33.269  14.325   8.598  0.00  0.00     0.390 A 
HETATM    5  O   UNK N   1      34.271  13.500   8.954  0.00  0.00    -0.276 OA
HETATM    6  O   UNK N   1      32.247  13.927   8.071  0.00  0.00    -0.236 OA
HETATM    7  C   UNK N   1      35.349  14.240   9.434  0.00  0.00     0.178 A 
HETATM    8  C   UNK N   1      36.498  14.134   8.427  0.00  0.00     0.063 C 
ENDROOT
BRANCH   7   9
HETATM    9  C   UNK N   1      35.724  13.707  10.798  0.00  0.00    -0.014 A 
HETATM   10  C   UNK N   1      36.750  12.752  10.984  0.00  0.00     0.013 A 
HETATM   11  C   UNK N   1      37.198  12.440  12.285  0.00  0.00     0.038 A 
HETATM   12  C   UNK N   1      36.618  13.084  13.392  0.00  0.00     0.076 A 
HETATM   13  C   UNK N   1      35.598  14.016  13.175  0.00  0.00     0.038 A 
HETATM   14  C   UNK N   1      35.160  14.317  11.912  0.00  0.00     0.013 A 
BRANCH  12  15
HETATM   15  O   UNK N   1      37.048  12.850  14.664  0.00  0.00    -0.311 OA
BRANCH  15  16
HETATM   16  C   UNK N   1      36.607  13.601  15.715  0.00  0.00     0.076 A 
HETATM   17  C   UNK N   1      35.592  13.123  16.551  0.00  0.00     0.037 A 
HETATM   18  C   UNK N   1      35.217  13.861  17.683  0.00  0.00     0.003 A 
HETATM   19  C   UNK N   1      35.845  15.077  17.977  0.00  0.00     0.000 A 
HETATM   20  C   UNK N   1      36.836  15.573  17.129  0.00  0.00     0.003 A 
HETATM   21  C   UNK N   1      37.209  14.841  16.007  0.00  0.00     0.037 A 
ENDBRANCH  15  16
ENDBRANCH  12  15
ENDBRANCH   7   9
BRANCH   3  22
HETATM   22  N   UNK N   1      32.862  16.728   8.414  0.00  0.00    -0.287 N 
HETATM   23  H   UNK N   1      32.564  17.363   9.105  0.00  0.00     0.188 HD
BRANCH  22  24
HETATM   24  C   UNK N   1      32.538  17.002   7.063  0.00  0.00     0.049 A 
HETATM   25  C   UNK N   1      31.204  16.931   6.646  0.00  0.00     0.031 A 
HETATM   26  C   UNK N   1      30.865  17.238   5.326  0.00  0.00     0.002 A 
HETATM   27  C   UNK N   1      31.862  17.603   4.415  0.00  0.00     0.000 A 
HETATM   28  C   UNK N   1      33.197  17.651   4.822  0.00  0.00     0.002 A 
HETATM   29  C   UNK N   1      33.535  17.351   6.142  0.00  0.00     0.031 A 
ENDBRANCH  22  24
ENDBRANCH   3  22
TORSDOF 5
ENDMDL
MODEL 3
REMARK VINA RESULT:      -8.2      4.705      7.716
REMARK  5 active torsions:
REMARK  status: ('A' for Active; 'I' for Inactive)
REMARK    1  A    between atoms: N_3  and  N_4 
REMARK    2  A    between atoms: N_4  and  C_5 
REMARK    3  A    between atoms: C_14  and  C_16 
REMARK    4  A    between atoms: C_19  and  O_22 
REMARK    5  A    between atoms: O_22  and  C_23 
ROOT
HETATM    1  O   UNK N   1      34.090  12.108  14.138  0.00  0.00    -0.267 OA
HETATM    2  C   UNK N   1      35.011  12.890  14.320  0.00  0.00     0.287 A 
HETATM    3  N   UNK N   1      35.322  13.412  15.505  0.00  0.00    -0.162 N 
HETATM    4  C   UNK N   1      36.419  14.162  15.339  0.00  0.00     0.390 A 
HETATM    5  O   UNK N   1      36.863  14.130  14.069  0.00  0.00    -0.276 OA
HETATM    6  O   UNK N   1      37.011  14.746  16.227  0.00  0.00    -0.236 OA
HETATM    7  C   UNK N   1      36.045  13.307  13.299  0.00  0.00     0.178 A 
HETATM    8  C   UNK N   1      36.838  12.055  12.915  0.00  0.00     0.063 C 
ENDROOT
BRANCH   7   9
HETATM    9  C   UNK N   1      35.580  14.090  12.092  0.00  0.00    -0.014 A 
HETATM   10  C   UNK N   1      35.887  15.457  11.910  0.00  0.00     0.013 A 
HETATM   11  C   UNK N   1      35.606  16.088  10.679  0.00  0.00     0.038 A 
HETATM   12  C   UNK N   1      35.022  15.346   9.638  0.00  0.00     0.076 A 
HETATM   13  C   UNK N   1      34.720  13.998   9.853  0.00  0.00     0.038 A 
HETATM   14  C   UNK N   1      34.989  13.386  11.049  0.00  0.00     0.013 A 
BRANCH  12  15
HETATM   15  O   UNK N   1      34.774  15.899   8.416  0.00  0.00    -0.311 OA
BRANCH  15  16
HETATM   16  C   UNK N   1      33.521  16.299   8.056  0.00  0.00     0.076 A 
HETATM   17  C   UNK N   1      32.727  15.492   7.233  0.00  0.00     0.037 A 
HETATM   18  C   UNK N   1      31.406  15.870   6.952  0.00  0.00     0.003 A 
HETATM   19  C   UNK N   1      30.879  17.054   7.483  0.00  0.00     0.000 A 
HETATM   20  C   UNK N   1      31.676  17.877   8.278  0.00  0.00     0.003 A 
HETATM   21  C   UNK N   1      32.985  17.502   8.558  0.00  0.00     0.037 A 
ENDBRANCH  15  16
ENDBRANCH  12  15
ENDBRANCH   7   9
BRANCH   3  22
HETATM   22  N   UNK N   1      34.697  13.082  16.697  0.00  0.00    -0.287 N 
HETATM   23  H   UNK N   1      33.832  13.503  16.904  0.00  0.00     0.188 HD
BRANCH  22  24
HETATM   24  C   UNK N   1      35.243  12.170  17.633  0.00  0.00     0.049 A 
HETATM   25  C   UNK N   1      35.803  10.971  17.181  0.00  0.00     0.031 A 
HETATM   26  C   UNK N   1      36.381  10.080  18.090  0.00  0.00     0.002 A 
HETATM   27  C   UNK N   1      36.385  10.381  19.456  0.00  0.00     0.000 A 
HETATM   28  C   UNK N   1      35.804  11.566  19.913  0.00  0.00     0.002 A 
HETATM   29  C   UNK N   1      35.234  12.458  19.004  0.00  0.00     0.031 A 
ENDBRANCH  22  24
ENDBRANCH   3  22
TORSDOF 5
ENDMDL
MODEL 4
REMARK VINA RESULT:      -8.1     12.146     16.706
REMARK  5 active torsions:
REMARK  status: ('A' for Active; 'I' for Inactive)
REMARK    1  A    between atoms: N_3  and  N_4 
REMARK    2  A    between atoms: N_4  and  C_5 
REMARK    3  A    between atoms: C_14  and  C_16 
REMARK    4  A    between atoms: C_19  and  O_22 
REMARK    5  A    between atoms: O_22  and  C_23 
ROOT
HETATM    1  O   UNK N   1      25.431  24.011  -4.683  0.00  0.00    -0.267 OA
HETATM    2  C   UNK N   1      26.270  24.752  -5.174  0.00  0.00     0.287 A 
HETATM    3  N   UNK N   1      26.325  25.062  -6.468  0.00  0.00    -0.162 N 
HETATM    4  C   UNK N   1      27.320  25.944  -6.628  0.00  0.00     0.390 A 
HETATM    5  O   UNK N   1      27.915  26.249  -5.461  0.00  0.00    -0.276 OA
HETATM    6  O   UNK N   1      27.618  26.483  -7.678  0.00  0.00    -0.236 OA
HETATM    7  C   UNK N   1      27.304  25.556  -4.419  0.00  0.00     0.178 A 
HETATM    8  C   UNK N   1      26.549  26.561  -3.544  0.00  0.00     0.063 C 
ENDROOT
BRANCH   7   9
HETATM    9  C   UNK N   1      28.370  24.807  -3.652  0.00  0.00    -0.014 A 
HETATM   10  C   UNK N   1      28.064  23.764  -2.749  0.00  0.00     0.013 A 
HETATM   11  C   UNK N   1      29.098  22.965  -2.215  0.00  0.00     0.038 A 
HETATM   12  C   UNK N   1      30.430  23.214  -2.589  0.00  0.00     0.076 A 
HETATM   13  C   UNK N   1      30.700  24.260  -3.476  0.00  0.00     0.038 A 
HETATM   14  C   UNK N   1      29.698  25.039  -3.992  0.00  0.00     0.013 A 
BRANCH  12  15
HETATM   15  O   UNK N   1      31.458  22.441  -2.137  0.00  0.00    -0.311 OA
BRANCH  15  16
HETATM   16  C   UNK N   1      32.005  21.459  -2.910  0.00  0.00     0.076 A 
HETATM   17  C   UNK N   1      31.234  20.807  -3.879  0.00  0.00     0.037 A 
HETATM   18  C   UNK N   1      31.834  19.870  -4.732  0.00  0.00     0.003 A 
HETATM   19  C   UNK N   1      33.198  19.577  -4.616  0.00  0.00     0.000 A 
HETATM   20  C   UNK N   1      33.964  20.201  -3.632  0.00  0.00     0.003 A 
HETATM   21  C   UNK N   1      33.370  21.131  -2.786  0.00  0.00     0.037 A 
ENDBRANCH  15  16
ENDBRANCH  12  15
ENDBRANCH   7   9
BRANCH   3  22
HETATM   22  N   UNK N   1      25.399  24.653  -7.414  0.00  0.00    -0.287 N 
HETATM   23  H   UNK N   1      24.581  25.189  -7.532  0.00  0.00     0.188 HD
BRANCH  22  24
HETATM   24  C   UNK N   1      25.568  23.501  -8.220  0.00  0.00     0.049 A 
HETATM   25  C   UNK N   1      26.060  23.637  -9.523  0.00  0.00     0.031 A 
HETATM   26  C   UNK N   1      26.270  22.505 -10.315  0.00  0.00     0.002 A 
HETATM   27  C   UNK N   1      25.975  21.234  -9.810  0.00  0.00     0.000 A 
HETATM   28  C   UNK N   1      25.460  21.097  -8.519  0.00  0.00     0.002 A 
HETATM   29  C   UNK N   1      25.256  22.227  -7.726  0.00  0.00     0.031 A 
ENDBRANCH  22  24
ENDBRANCH   3  22
TORSDOF 5
ENDMDL
MODEL 5
REMARK VINA RESULT:      -8.1      1.514      2.107
REMARK  5 active torsions:
REMARK  status: ('A' for Active; 'I' for Inactive)
REMARK    1  A    between atoms: N_3  and  N_4 
REMARK    2  A    between atoms: N_4  and  C_5 
REMARK    3  A    between atoms: C_14  and  C_16 
REMARK    4  A    between atoms: C_19  and  O_22 
REMARK    5  A    between atoms: O_22  and  C_23 
ROOT
HETATM    1  O   UNK N   1      33.385  14.105   8.659  0.00  0.00    -0.267 OA
HETATM    2  C   UNK N   1      33.787  15.250   8.800  0.00  0.00     0.287 A 
HETATM    3  N   UNK N   1      34.523  15.660   9.831  0.00  0.00    -0.162 N 
HETATM    4  C   UNK N   1      34.837  16.944   9.616  0.00  0.00     0.390 A 
HETATM    5  O   UNK N   1      34.345  17.394   8.448  0.00  0.00    -0.276 OA
HETATM    6  O   UNK N   1      35.547  17.623  10.335  0.00  0.00    -0.236 OA
HETATM    7  C   UNK N   1      33.657  16.373   7.796  0.00  0.00     0.178 A 
HETATM    8  C   UNK N   1      34.453  15.968   6.552  0.00  0.00     0.063 C 
ENDROOT
BRANCH   7   9
HETATM    9  C   UNK N   1      32.271  16.871   7.458  0.00  0.00    -0.014 A 
HETATM   10  C   UNK N   1      31.598  16.498   6.272  0.00  0.00     0.013 A 
HETATM   11  C   UNK N   1      30.235  16.823   6.100  0.00  0.00     0.038 A 
HETATM   12  C   UNK N   1      29.555  17.518   7.114  0.00  0.00     0.076 A 
HETATM   13  C   UNK N   1      30.251  17.883   8.270  0.00  0.00     0.038 A 
HETATM   14  C   UNK N   1      31.575  17.571   8.437  0.00  0.00     0.013 A 
BRANCH  12  15
HETATM   15  O   UNK N   1      28.227  17.815   7.013  0.00  0.00    -0.311 OA
BRANCH  15  16
HETATM   16  C   UNK N   1      27.781  18.816   6.201  0.00  0.00     0.076 A 
HETATM   17  C   UNK N   1      27.398  18.543   4.883  0.00  0.00     0.037 A 
HETATM   18  C   UNK N   1      26.849  19.562   4.092  0.00  0.00     0.003 A 
HETATM   19  C   UNK N   1      26.689  20.853   4.609  0.00  0.00     0.000 A 
HETATM   20  C   UNK N   1      27.097  21.138   5.912  0.00  0.00     0.003 A 
HETATM   21  C   UNK N   1      27.640  20.127   6.698  0.00  0.00     0.037 A 
ENDBRANCH  15  16
ENDBRANCH  12  15
ENDBRANCH   7   9
BRANCH   3  22
HETATM   22  N   UNK N   1      34.995  14.832  10.837  0.00  0.00    -0.287 N 
HETATM   23  H   UNK N   1      34.451  14.727  11.651  0.00  0.00     0.188 HD
BRANCH  22  24
HETATM   24  C   UNK N   1      36.223  14.130  10.754  0.00  0.00     0.049 A 
HETATM   25  C   UNK N   1      37.123  14.435   9.728  0.00  0.00     0.031 A 
HETATM   26  C   UNK N   1      38.355  13.778   9.657  0.00  0.00     0.002 A 
HETATM   27  C   UNK N   1      38.682  12.804  10.606  0.00  0.00     0.000 A 
HETATM   28  C   UNK N   1      37.775  12.479  11.617  0.00  0.00     0.002 A 
HETATM   29  C   UNK N   1      36.548  13.140  11.691  0.00  0.00     0.031 A 
ENDBRANCH  22  24
ENDBRANCH   3  22
TORSDOF 5
ENDMDL
MODEL 6
REMARK VINA RESULT:      -8.1      4.383      7.727
REMARK  5 active torsions:
REMARK  status: ('A' for Active; 'I' for Inactive)
REMARK    1  A    between atoms: N_3  and  N_4 
REMARK    2  A    between atoms: N_4  and  C_5 
REMARK    3  A    between atoms: C_14  and  C_16 
REMARK    4  A    between atoms: C_19  and  O_22 
REMARK    5  A    between atoms: O_22  and  C_23 
ROOT
HETATM    1  O   UNK N   1      34.216  11.494  13.108  0.00  0.00    -0.267 OA
HETATM    2  C   UNK N   1      35.426  11.666  13.112  0.00  0.00     0.287 A 
HETATM    3  N   UNK N   1      36.213  11.406  14.154  0.00  0.00    -0.162 N 
HETATM    4  C   UNK N   1      37.475  11.645  13.775  0.00  0.00     0.390 A 
HETATM    5  O   UNK N   1      37.549  12.036  12.490  0.00  0.00    -0.276 OA
HETATM    6  O   UNK N   1      38.461  11.461  14.463  0.00  0.00    -0.236 OA
HETATM    7  C   UNK N   1      36.275  12.065  11.926  0.00  0.00     0.178 A 
HETATM    8  C   UNK N   1      36.175  10.939  10.893  0.00  0.00     0.063 C 
ENDROOT
BRANCH   7   9
HETATM    9  C   UNK N   1      36.053  13.430  11.317  0.00  0.00    -0.014 A 
HETATM   10  C   UNK N   1      36.043  13.646   9.920  0.00  0.00     0.013 A 
HETATM   11  C   UNK N   1      35.632  14.892   9.399  0.00  0.00     0.038 A 
HETATM   12  C   UNK N   1      35.234  15.913  10.279  0.00  0.00     0.076 A 
HETATM   13  C   UNK N   1      35.265  15.672  11.655  0.00  0.00     0.038 A 
HETATM   14  C   UNK N   1      35.668  14.465  12.162  0.00  0.00     0.013 A 
BRANCH  12  15
HETATM   15  O   UNK N   1      34.785  17.118   9.822  0.00  0.00    -0.311 OA
BRANCH  15  16
HETATM   16  C   UNK N   1      33.934  17.204   8.760  0.00  0.00     0.076 A 
HETATM   17  C   UNK N   1      34.391  17.665   7.520  0.00  0.00     0.037 A 
HETATM   18  C   UNK N   1      33.530  17.656   6.413  0.00  0.00     0.003 A 
HETATM   19  C   UNK N   1      32.214  17.197   6.542  0.00  0.00     0.000 A 
HETATM   20  C   UNK N   1      31.744  16.766   7.782  0.00  0.00     0.003 A 
HETATM   21  C   UNK N   1      32.597  16.773   8.880  0.00  0.00     0.037 A 
ENDBRANCH  15  16
ENDBRANCH  12  15
ENDBRANCH   7   9
BRANCH   3  22
HETATM   22  N   UNK N   1      35.782  10.835  15.341  0.00  0.00    -0.287 N 
HETATM   23  H   UNK N   1      35.618   9.864  15.361  0.00  0.00     0.188 HD
BRANCH  22  24
HETATM   24  C   UNK N   1      35.565  11.579  16.527  0.00  0.00     0.049 A 
HETATM   25  C   UNK N   1      35.577  10.924  17.763  0.00  0.00     0.031 A 
HETATM   26  C   UNK N   1      35.404  11.652  18.943  0.00  0.00     0.002 A 
HETATM   27  C   UNK N   1      35.204  13.036  18.888  0.00  0.00     0.000 A 
HETATM   28  C   UNK N   1      35.166  13.688  17.653  0.00  0.00     0.002 A 
HETATM   29  C   UNK N   1      35.345  12.962  16.475  0.00  0.00     0.031 A 
ENDBRANCH  22  24
ENDBRANCH   3  22
TORSDOF 5
ENDMDL
MODEL 7
REMARK VINA RESULT:      -8.0      3.004      5.408
REMARK  5 active torsions:
REMARK  status: ('A' for Active; 'I' for Inactive)
REMARK    1  A    between atoms: N_3  and  N_4 
REMARK    2  A    between atoms: N_4  and  C_5 
REMARK    3  A    between atoms: C_14  and  C_16 
REMARK    4  A    between atoms: C_19  and  O_22 
REMARK    5  A    between atoms: O_22  and  C_23 
ROOT
HETATM    1  O   UNK N   1      34.506  14.747  11.982  0.00  0.00    -0.267 OA
HETATM    2  C   UNK N   1      35.431  14.232  11.373  0.00  0.00     0.287 A 
HETATM    3  N   UNK N   1      36.592  13.891  11.929  0.00  0.00    -0.162 N 
HETATM    4  C   UNK N   1      37.331  13.296  10.984  0.00  0.00     0.390 A 
HETATM    5  O   UNK N   1      36.675  13.209   9.812  0.00  0.00    -0.276 OA
HETATM    6  O   UNK N   1      38.433  12.809  11.157  0.00  0.00    -0.236 OA
HETATM    7  C   UNK N   1      35.403  13.762   9.936  0.00  0.00     0.178 A 
HETATM    8  C   UNK N   1      34.372  12.633   9.846  0.00  0.00     0.063 C 
ENDROOT
BRANCH   7   9
HETATM    9  C   UNK N   1      35.223  14.797   8.849  0.00  0.00    -0.014 A 
HETATM   10  C   UNK N   1      35.301  14.476   7.475  0.00  0.00     0.013 A 
HETATM   11  C   UNK N   1      34.927  15.429   6.504  0.00  0.00     0.038 A 
HETATM   12  C   UNK N   1      34.478  16.697   6.913  0.00  0.00     0.076 A 
HETATM   13  C   UNK N   1      34.422  16.987   8.280  0.00  0.00     0.038 A 
HETATM   14  C   UNK N   1      34.789  16.063   9.224  0.00  0.00     0.013 A 
BRANCH  12  15
HETATM   15  O   UNK N   1      34.063  17.635   6.015  0.00  0.00    -0.311 OA
BRANCH  15  16
HETATM   16  C   UNK N   1      33.000  17.409   5.190  0.00  0.00     0.076 A 
HETATM   17  C   UNK N   1      33.186  17.287   3.809  0.00  0.00     0.037 A 
HETATM   18  C   UNK N   1      32.100  16.958   2.985  0.00  0.00     0.003 A 
HETATM   19  C   UNK N   1      30.828  16.760   3.536  0.00  0.00     0.000 A 
HETATM   20  C   UNK N   1      30.630  16.911   4.908  0.00  0.00     0.003 A 
HETATM   21  C   UNK N   1      31.707  17.235   5.725  0.00  0.00     0.037 A 
ENDBRANCH  15  16
ENDBRANCH  12  15
ENDBRANCH   7   9
BRANCH   3  22
HETATM   22  N   UNK N   1      36.878  14.001  13.280  0.00  0.00    -0.287 N 
HETATM   23  H   UNK N   1      37.373  14.793  13.591  0.00  0.00     0.188 HD
BRANCH  22  24
HETATM   24  C   UNK N   1      36.494  13.029  14.236  0.00  0.00     0.049 A 
HETATM   25  C   UNK N   1      37.284  11.888  14.415  0.00  0.00     0.031 A 
HETATM   26  C   UNK N   1      36.938  10.941  15.383  0.00  0.00     0.002 A 
HETATM   27  C   UNK N   1      35.793  11.127  16.165  0.00  0.00     0.000 A 
HETATM   28  C   UNK N   1      34.989  12.252  15.972  0.00  0.00     0.002 A 
HETATM   29  C   UNK N   1      35.338  13.202  15.009  0.00  0.00     0.031 A 
ENDBRANCH  22  24
ENDBRANCH   3  22
TORSDOF 5
ENDMDL
MODEL 8
REMARK VINA RESULT:      -8.0      3.278      5.212
REMARK  5 active torsions:
REMARK  status: ('A' for Active; 'I' for Inactive)
REMARK    1  A    between atoms: N_3  and  N_4 
REMARK    2  A    between atoms: N_4  and  C_5 
REMARK    3  A    between atoms: C_14  and  C_16 
REMARK    4  A    between atoms: C_19  and  O_22 
REMARK    5  A    between atoms: O_22  and  C_23 
ROOT
HETATM    1  O   UNK N   1      34.330  13.728  12.527  0.00  0.00    -0.267 OA
HETATM    2  C   UNK N   1      35.220  13.596  11.700  0.00  0.00     0.287 A 
HETATM    3  N   UNK N   1      36.519  13.654  11.987  0.00  0.00    -0.162 N 
HETATM    4  C   UNK N   1      37.192  13.398  10.857  0.00  0.00     0.390 A 
HETATM    5  O   UNK N   1      36.366  13.145   9.826  0.00  0.00    -0.276 OA
HETATM    6  O   UNK N   1      38.402  13.317  10.764  0.00  0.00    -0.236 OA
HETATM    7  C   UNK N   1      35.040  13.215  10.248  0.00  0.00     0.178 A 
HETATM    8  C   UNK N   1      34.446  11.804  10.217  0.00  0.00     0.063 C 
ENDROOT
BRANCH   7   9
HETATM    9  C   UNK N   1      34.301  14.174   9.344  0.00  0.00    -0.014 A 
HETATM   10  C   UNK N   1      33.120  13.812   8.656  0.00  0.00     0.013 A 
HETATM   11  C   UNK N   1      32.359  14.796   7.990  0.00  0.00     0.038 A 
HETATM   12  C   UNK N   1      32.783  16.136   8.017  0.00  0.00     0.076 A 
HETATM   13  C   UNK N   1      33.961  16.460   8.696  0.00  0.00     0.038 A 
HETATM   14  C   UNK N   1      34.703  15.505   9.340  0.00  0.00     0.013 A 
BRANCH  12  15
HETATM   15  O   UNK N   1      32.058  17.129   7.428  0.00  0.00    -0.311 OA
BRANCH  15  16
HETATM   16  C   UNK N   1      30.834  17.496   7.905  0.00  0.00     0.076 A 
HETATM   17  C   UNK N   1      29.666  17.069   7.264  0.00  0.00     0.037 A 
HETATM   18  C   UNK N   1      28.415  17.372   7.821  0.00  0.00     0.003 A 
HETATM   19  C   UNK N   1      28.328  18.105   9.011  0.00  0.00     0.000 A 
HETATM   20  C   UNK N   1      29.488  18.559   9.637  0.00  0.00     0.003 A 
HETATM   21  C   UNK N   1      30.729  18.259   9.086  0.00  0.00     0.037 A 
ENDBRANCH  15  16
ENDBRANCH  12  15
ENDBRANCH   7   9
BRANCH   3  22
HETATM   22  N   UNK N   1      37.036  13.791  13.265  0.00  0.00    -0.287 N 
HETATM   23  H   UNK N   1      37.569  14.593  13.471  0.00  0.00     0.188 HD
BRANCH  22  24
HETATM   24  C   UNK N   1      36.836  12.835  14.290  0.00  0.00     0.049 A 
HETATM   25  C   UNK N   1      36.044  13.165  15.395  0.00  0.00     0.031 A 
HETATM   26  C   UNK N   1      35.806  12.217  16.395  0.00  0.00     0.002 A 
HETATM   27  C   UNK N   1      36.372  10.942  16.298  0.00  0.00     0.000 A 
HETATM   28  C   UNK N   1      37.183  10.618  15.208  0.00  0.00     0.002 A 
HETATM   29  C   UNK N   1      37.416  11.562  14.206  0.00  0.00     0.031 A 
ENDBRANCH  22  24
ENDBRANCH   3  22
TORSDOF 5
ENDMDL
MODEL 9
REMARK VINA RESULT:      -8.0      7.959     10.817
REMARK  5 active torsions:
REMARK  status: ('A' for Active; 'I' for Inactive)
REMARK    1  A    between atoms: N_3  and  N_4 
REMARK    2  A    between atoms: N_4  and  C_5 
REMARK    3  A    between atoms: C_14  and  C_16 
REMARK    4  A    between atoms: C_19  and  O_22 
REMARK    5  A    between atoms: O_22  and  C_23 
ROOT
HETATM    1  O   UNK N   1      20.993  15.896   9.020  0.00  0.00    -0.267 OA
HETATM    2  C   UNK N   1      20.968  15.124   8.073  0.00  0.00     0.287 A 
HETATM    3  N   UNK N   1      20.938  13.799   8.193  0.00  0.00    -0.162 N 
HETATM    4  C   UNK N   1      20.845  13.286   6.959  0.00  0.00     0.390 A 
HETATM    5  O   UNK N   1      20.787  14.245   6.018  0.00  0.00    -0.276 OA
HETATM    6  O   UNK N   1      20.742  12.102   6.697  0.00  0.00    -0.236 OA
HETATM    7  C   UNK N   1      20.830  15.503   6.616  0.00  0.00     0.178 A 
HETATM    8  C   UNK N   1      19.462  16.169   6.445  0.00  0.00     0.063 C 
ENDROOT
BRANCH   7   9
HETATM    9  C   UNK N   1      21.945  16.299   5.977  0.00  0.00    -0.014 A 
HETATM   10  C   UNK N   1      23.297  15.891   6.032  0.00  0.00     0.013 A 
HETATM   11  C   UNK N   1      24.268  16.555   5.252  0.00  0.00     0.038 A 
HETATM   12  C   UNK N   1      23.881  17.621   4.422  0.00  0.00     0.076 A 
HETATM   13  C   UNK N   1      22.538  18.007   4.398  0.00  0.00     0.038 A 
HETATM   14  C   UNK N   1      21.594  17.366   5.157  0.00  0.00     0.013 A 
BRANCH  12  15
HETATM   15  O   UNK N   1      24.774  18.263   3.616  0.00  0.00    -0.311 OA
BRANCH  15  16
HETATM   16  C   UNK N   1      25.783  19.021   4.133  0.00  0.00     0.076 A 
HETATM   17  C   UNK N   1      25.499  20.193   4.843  0.00  0.00     0.037 A 
HETATM   18  C   UNK N   1      26.539  20.909   5.452  0.00  0.00     0.003 A 
HETATM   19  C   UNK N   1      27.862  20.463   5.348  0.00  0.00     0.000 A 
HETATM   20  C   UNK N   1      28.155  19.313   4.616  0.00  0.00     0.003 A 
HETATM   21  C   UNK N   1      27.124  18.602   4.012  0.00  0.00     0.037 A 
ENDBRANCH  15  16
ENDBRANCH  12  15
ENDBRANCH   7   9
BRANCH   3  22
HETATM   22  N   UNK N   1      20.852  13.120   9.398  0.00  0.00    -0.287 N 
HETATM   23  H   UNK N   1      19.958  12.908   9.753  0.00  0.00     0.188 HD
BRANCH  22  24
HETATM   24  C   UNK N   1      21.985  12.716  10.145  0.00  0.00     0.049 A 
HETATM   25  C   UNK N   1      23.257  12.806   9.570  0.00  0.00     0.031 A 
HETATM   26  C   UNK N   1      24.388  12.448  10.310  0.00  0.00     0.002 A 
HETATM   27  C   UNK N   1      24.246  11.986  11.623  0.00  0.00     0.000 A 
HETATM   28  C   UNK N   1      22.976  11.872  12.190  0.00  0.00     0.002 A 
HETATM   29  C   UNK N   1      21.847  12.235  11.454  0.00  0.00     0.031 A 
ENDBRANCH  22  24
ENDBRANCH   3  22
TORSDOF 5
ENDMDL
