MODEL 1
REMARK VINA RESULT:      -6.6      0.000      0.000
REMARK  8 active torsions:
REMARK  status: ('A' for Active; 'I' for Inactive)
REMARK    1  A    between atoms: C_1  and  N_10 
REMARK    2  A    between atoms: N_10  and  C_11 
REMARK    3  A    between atoms: C_11  and  N_13 
REMARK    4  A    between atoms: N_13  and  C_14 
REMARK    5  A    between atoms: C_14  and  C_15 
REMARK    6  A    between atoms: C_15  and  C_16 
REMARK    7  A    between atoms: C_21  and  O_23 
REMARK    8  A    between atoms: O_23  and  C_24 
ROOT
HETATM    1  C   UNK N   1      35.655  13.284  13.835  0.00  0.00     0.107 A 
HETATM    2  N   UNK N   1      34.700  12.528  14.440  0.00  0.00    -0.351 N 
ATOM      3  HN  UNK N   1      34.078  11.956  13.869  1.00  0.00     0.166 HD
HETATM    4  C   UNK N   1      34.560  12.520  15.793  0.00  0.00     0.112 A 
HETATM    5  C   UNK N   1      35.411  13.301  16.583  0.00  0.00     0.060 A 
HETATM    6  C   UNK N   1      36.427  14.031  15.988  0.00  0.00     0.028 A 
HETATM    7  C   UNK N   1      36.553  14.023  14.613  0.00  0.00     0.050 A 
HETATM    8  C   UNK N   1      35.245  13.386  17.997  0.00  0.00     0.101 C 
HETATM    9  N   UNK N   1      35.140  13.478  19.144  0.00  0.00    -0.191 NA
ENDROOT
BRANCH   1  10
HETATM   10  N   UNK N   1      35.601  13.458  12.430  0.00  0.00    -0.320 N 
HETATM   11  H   UNK N   1      34.714  13.500  12.007  0.00  0.00     0.169 HD
BRANCH  10  12
HETATM   12  C   UNK N   1      36.752  13.579  11.585  0.00  0.00     0.173 C 
HETATM   13  S   UNK N   1      37.557  12.448  11.186  0.00  0.00    -0.041 SA
BRANCH  12  14
HETATM   14  N   UNK N   1      37.078  14.837  11.057  0.00  0.00    -0.367 N 
HETATM   15  H   UNK N   1      38.014  15.142  11.024  0.00  0.00     0.161 HD
BRANCH  14  16
HETATM   16  C   UNK N   1      36.023  15.667  10.566  0.00  0.00     0.128 C 
BRANCH  16  17
HETATM   17  C   UNK N   1      35.511  15.121   9.223  0.00  0.00     0.080 C 
BRANCH  17  18
HETATM   18  C   UNK N   1      34.448  15.954   8.582  0.00  0.00     0.052 A 
HETATM   19  N   UNK N   1      33.465  16.541   9.323  0.00  0.00    -0.367 N 
HETATM   20  C   UNK N   1      32.600  17.436   8.764  0.00  0.00     0.091 A 
ATOM     21  HN  UNK N   1      33.374  16.307  10.312  1.00  0.00     0.165 HD
HETATM   22  C   UNK N   1      32.745  17.812   7.419  0.00  0.00     0.057 A 
HETATM   23  C   UNK N   1      33.752  17.218   6.643  0.00  0.00     0.110 A 
HETATM   24  C   UNK N   1      34.578  16.253   7.239  0.00  0.00     0.172 A 
HETATM   25  F   UNK N   1      35.552  15.630   6.531  0.00  0.00    -0.201 F 
BRANCH  23  26
HETATM   26  O   UNK N   1      33.956  17.612   5.354  0.00  0.00    -0.348 OA
BRANCH  26  27
HETATM   27  C   UNK N   1      32.943  17.543   4.409  0.00  0.00     0.171 C 
HETATM   28  C   UNK N   1      33.096  16.401   3.443  0.00  0.00     0.034 C 
ENDBRANCH  26  27
ENDBRANCH  23  26
ENDBRANCH  17  18
ENDBRANCH  16  17
ENDBRANCH  14  16
ENDBRANCH  12  14
ENDBRANCH  10  12
ENDBRANCH   1  10
TORSDOF 8
ENDMDL
MODEL 2
REMARK VINA RESULT:      -6.2      1.660      1.891
REMARK  8 active torsions:
REMARK  status: ('A' for Active; 'I' for Inactive)
REMARK    1  A    between atoms: C_1  and  N_10 
REMARK    2  A    between atoms: N_10  and  C_11 
REMARK    3  A    between atoms: C_11  and  N_13 
REMARK    4  A    between atoms: N_13  and  C_14 
REMARK    5  A    between atoms: C_14  and  C_15 
REMARK    6  A    between atoms: C_15  and  C_16 
REMARK    7  A    between atoms: C_21  and  O_23 
REMARK    8  A    between atoms: O_23  and  C_24 
ROOT
HETATM    1  C   UNK N   1      35.685  12.752  13.717  0.00  0.00     0.107 A 
HETATM    2  N   UNK N   1      34.633  12.214  14.390  0.00  0.00    -0.351 N 
ATOM      3  HN  UNK N   1      33.952  11.647  13.885  1.00  0.00     0.166 HD
HETATM    4  C   UNK N   1      34.472  12.418  15.725  0.00  0.00     0.112 A 
HETATM    5  C   UNK N   1      35.402  13.194  16.426  0.00  0.00     0.060 A 
HETATM    6  C   UNK N   1      36.513  13.700  15.768  0.00  0.00     0.028 A 
HETATM    7  C   UNK N   1      36.658  13.478  14.414  0.00  0.00     0.050 A 
HETATM    8  C   UNK N   1      35.227  13.501  17.807  0.00  0.00     0.101 C 
HETATM    9  N   UNK N   1      35.117  13.769  18.926  0.00  0.00    -0.191 NA
ENDROOT
BRANCH   1  10
HETATM   10  N   UNK N   1      35.676  12.727  12.301  0.00  0.00    -0.320 N 
HETATM   11  H   UNK N   1      34.844  12.452  11.853  0.00  0.00     0.169 HD
BRANCH  10  12
HETATM   12  C   UNK N   1      36.795  13.078  11.477  0.00  0.00     0.173 C 
HETATM   13  S   UNK N   1      37.616  12.096  10.807  0.00  0.00    -0.041 SA
BRANCH  12  14
HETATM   14  N   UNK N   1      37.072  14.434  11.247  0.00  0.00    -0.367 N 
HETATM   15  H   UNK N   1      37.704  14.923  11.822  0.00  0.00     0.161 HD
BRANCH  14  16
HETATM   16  C   UNK N   1      36.417  15.090  10.159  0.00  0.00     0.128 C 
BRANCH  16  17
HETATM   17  C   UNK N   1      35.331  16.036  10.698  0.00  0.00     0.080 C 
BRANCH  17  18
HETATM   18  C   UNK N   1      34.545  16.742   9.640  0.00  0.00     0.052 A 
HETATM   19  N   UNK N   1      34.954  17.943   9.137  0.00  0.00    -0.367 N 
HETATM   20  C   UNK N   1      34.336  18.502   8.057  0.00  0.00     0.091 A 
ATOM     21  HN  UNK N   1      35.735  18.430   9.576  1.00  0.00     0.165 HD
HETATM   22  C   UNK N   1      33.297  17.818   7.407  0.00  0.00     0.057 A 
HETATM   23  C   UNK N   1      32.864  16.581   7.911  0.00  0.00     0.110 A 
HETATM   24  C   UNK N   1      33.483  16.072   9.062  0.00  0.00     0.172 A 
HETATM   25  F   UNK N   1      33.092  14.895   9.607  0.00  0.00    -0.201 F 
BRANCH  23  26
HETATM   26  O   UNK N   1      31.902  15.867   7.261  0.00  0.00    -0.348 OA
BRANCH  26  27
HETATM   27  C   UNK N   1      30.977  16.487   6.436  0.00  0.00     0.171 C 
HETATM   28  C   UNK N   1      29.748  16.966   7.160  0.00  0.00     0.034 C 
ENDBRANCH  26  27
ENDBRANCH  23  26
ENDBRANCH  17  18
ENDBRANCH  16  17
ENDBRANCH  14  16
ENDBRANCH  12  14
ENDBRANCH  10  12
ENDBRANCH   1  10
TORSDOF 8
ENDMDL
MODEL 3
REMARK VINA RESULT:      -6.1      5.403     10.613
REMARK  8 active torsions:
REMARK  status: ('A' for Active; 'I' for Inactive)
REMARK    1  A    between atoms: C_1  and  N_10 
REMARK    2  A    between atoms: N_10  and  C_11 
REMARK    3  A    between atoms: C_11  and  N_13 
REMARK    4  A    between atoms: N_13  and  C_14 
REMARK    5  A    between atoms: C_14  and  C_15 
REMARK    6  A    between atoms: C_15  and  C_16 
REMARK    7  A    between atoms: C_21  and  O_23 
REMARK    8  A    between atoms: O_23  and  C_24 
ROOT
HETATM    1  C   UNK N   1      27.667  18.189   5.737  0.00  0.00     0.107 A 
HETATM    2  N   UNK N   1      26.332  17.946   5.659  0.00  0.00    -0.351 N 
ATOM      3  HN  UNK N   1      25.913  17.246   6.271  1.00  0.00     0.166 HD
HETATM    4  C   UNK N   1      25.544  18.619   4.777  0.00  0.00     0.112 A 
HETATM    5  C   UNK N   1      26.110  19.582   3.935  0.00  0.00     0.060 A 
HETATM    6  C   UNK N   1      27.458  19.886   4.043  0.00  0.00     0.028 A 
HETATM    7  C   UNK N   1      28.239  19.192   4.945  0.00  0.00     0.050 A 
HETATM    8  C   UNK N   1      25.336  20.251   2.941  0.00  0.00     0.101 C 
HETATM    9  N   UNK N   1      24.740  20.812   2.126  0.00  0.00    -0.191 NA
ENDROOT
BRANCH   1  10
HETATM   10  N   UNK N   1      28.482  17.299   6.477  0.00  0.00    -0.320 N 
HETATM   11  H   UNK N   1      28.438  16.342   6.252  0.00  0.00     0.169 HD
BRANCH  10  12
HETATM   12  C   UNK N   1      29.369  17.697   7.531  0.00  0.00     0.173 C 
HETATM   13  S   UNK N   1      28.909  18.310   8.756  0.00  0.00    -0.041 SA
BRANCH  12  14
HETATM   14  N   UNK N   1      30.738  17.421   7.408  0.00  0.00    -0.367 N 
HETATM   15  H   UNK N   1      31.105  17.050   6.573  0.00  0.00     0.161 HD
BRANCH  14  16
HETATM   16  C   UNK N   1      31.592  17.689   8.524  0.00  0.00     0.128 C 
BRANCH  16  17
HETATM   17  C   UNK N   1      33.017  17.987   8.030  0.00  0.00     0.080 C 
BRANCH  17  18
HETATM   18  C   UNK N   1      34.074  17.115   8.627  0.00  0.00     0.052 A 
HETATM   19  N   UNK N   1      34.490  17.287   9.915  0.00  0.00    -0.367 N 
HETATM   20  C   UNK N   1      35.325  16.388  10.512  0.00  0.00     0.091 A 
ATOM     21  HN  UNK N   1      34.172  18.101  10.440  1.00  0.00     0.165 HD
HETATM   22  C   UNK N   1      35.727  15.233   9.823  0.00  0.00     0.057 A 
HETATM   23  C   UNK N   1      35.307  15.040   8.497  0.00  0.00     0.110 A 
HETATM   24  C   UNK N   1      34.502  16.021   7.899  0.00  0.00     0.172 A 
HETATM   25  F   UNK N   1      34.087  15.899   6.614  0.00  0.00    -0.201 F 
BRANCH  23  26
HETATM   26  O   UNK N   1      35.629  13.897   7.828  0.00  0.00    -0.348 OA
BRANCH  26  27
HETATM   27  C   UNK N   1      36.927  13.648   7.409  0.00  0.00     0.171 C 
HETATM   28  C   UNK N   1      37.586  12.504   8.129  0.00  0.00     0.034 C 
ENDBRANCH  26  27
ENDBRANCH  23  26
ENDBRANCH  17  18
ENDBRANCH  16  17
ENDBRANCH  14  16
ENDBRANCH  12  14
ENDBRANCH  10  12
ENDBRANCH   1  10
TORSDOF 8
ENDMDL
MODEL 4
REMARK VINA RESULT:      -6.1      3.984      9.536
REMARK  8 active torsions:
REMARK  status: ('A' for Active; 'I' for Inactive)
REMARK    1  A    between atoms: C_1  and  N_10 
REMARK    2  A    between atoms: N_10  and  C_11 
REMARK    3  A    between atoms: C_11  and  N_13 
REMARK    4  A    between atoms: N_13  and  C_14 
REMARK    5  A    between atoms: C_14  and  C_15 
REMARK    6  A    between atoms: C_15  and  C_16 
REMARK    7  A    between atoms: C_21  and  O_23 
REMARK    8  A    between atoms: O_23  and  C_24 
ROOT
HETATM    1  C   UNK N   1      32.555  15.882   8.998  0.00  0.00     0.107 A 
HETATM    2  N   UNK N   1      31.971  17.108   9.056  0.00  0.00    -0.351 N 
ATOM      3  HN  UNK N   1      32.143  17.708   9.863  1.00  0.00     0.166 HD
HETATM    4  C   UNK N   1      31.160  17.550   8.057  0.00  0.00     0.112 A 
HETATM    5  C   UNK N   1      30.919  16.734   6.947  0.00  0.00     0.060 A 
HETATM    6  C   UNK N   1      31.554  15.506   6.842  0.00  0.00     0.028 A 
HETATM    7  C   UNK N   1      32.375  15.079   7.866  0.00  0.00     0.050 A 
HETATM    8  C   UNK N   1      30.012  17.124   5.918  0.00  0.00     0.101 C 
HETATM    9  N   UNK N   1      29.283  17.408   5.067  0.00  0.00    -0.191 NA
ENDROOT
BRANCH   1  10
HETATM   10  N   UNK N   1      33.178  15.365  10.160  0.00  0.00    -0.320 N 
HETATM   11  H   UNK N   1      32.598  15.028  10.880  0.00  0.00     0.169 HD
BRANCH  10  12
HETATM   12  C   UNK N   1      34.596  15.299  10.358  0.00  0.00     0.173 C 
HETATM   13  S   UNK N   1      35.391  16.443  10.738  0.00  0.00    -0.041 SA
BRANCH  12  14
HETATM   14  N   UNK N   1      35.240  14.057  10.250  0.00  0.00    -0.367 N 
HETATM   15  H   UNK N   1      35.148  13.511   9.436  0.00  0.00     0.161 HD
BRANCH  14  16
HETATM   16  C   UNK N   1      36.035  13.603  11.348  0.00  0.00     0.128 C 
BRANCH  16  17
HETATM   17  C   UNK N   1      35.133  13.301  12.555  0.00  0.00     0.080 C 
BRANCH  17  18
HETATM   18  C   UNK N   1      35.750  13.610  13.882  0.00  0.00     0.052 A 
HETATM   19  N   UNK N   1      36.744  14.536  14.001  0.00  0.00    -0.367 N 
HETATM   20  C   UNK N   1      37.187  14.941  15.226  0.00  0.00     0.091 A 
ATOM     21  HN  UNK N   1      37.165  14.932  13.160  1.00  0.00     0.165 HD
HETATM   22  C   UNK N   1      36.581  14.449  16.393  0.00  0.00     0.057 A 
HETATM   23  C   UNK N   1      35.556  13.496  16.288  0.00  0.00     0.110 A 
HETATM   24  C   UNK N   1      35.176  13.057  15.011  0.00  0.00     0.172 A 
HETATM   25  F   UNK N   1      34.208  12.122  14.850  0.00  0.00    -0.201 F 
BRANCH  23  26
HETATM   26  O   UNK N   1      34.907  13.051  17.401  0.00  0.00    -0.348 OA
BRANCH  26  27
HETATM   27  C   UNK N   1      35.316  11.903  18.063  0.00  0.00     0.171 C 
HETATM   28  C   UNK N   1      35.309  12.035  19.561  0.00  0.00     0.034 C 
ENDBRANCH  26  27
ENDBRANCH  23  26
ENDBRANCH  17  18
ENDBRANCH  16  17
ENDBRANCH  14  16
ENDBRANCH  12  14
ENDBRANCH  10  12
ENDBRANCH   1  10
TORSDOF 8
ENDMDL
MODEL 5
REMARK VINA RESULT:      -6.1      5.625     10.524
REMARK  8 active torsions:
REMARK  status: ('A' for Active; 'I' for Inactive)
REMARK    1  A    between atoms: C_1  and  N_10 
REMARK    2  A    between atoms: N_10  and  C_11 
REMARK    3  A    between atoms: C_11  and  N_13 
REMARK    4  A    between atoms: N_13  and  C_14 
REMARK    5  A    between atoms: C_14  and  C_15 
REMARK    6  A    between atoms: C_15  and  C_16 
REMARK    7  A    between atoms: C_21  and  O_23 
REMARK    8  A    between atoms: O_23  and  C_24 
ROOT
HETATM    1  C   UNK N   1      27.502  18.281   5.654  0.00  0.00     0.107 A 
HETATM    2  N   UNK N   1      26.186  17.948   5.567  0.00  0.00    -0.351 N 
ATOM      3  HN  UNK N   1      25.821  17.190   6.144  1.00  0.00     0.166 HD
HETATM    4  C   UNK N   1      25.347  18.608   4.724  0.00  0.00     0.112 A 
HETATM    5  C   UNK N   1      25.839  19.649   3.930  0.00  0.00     0.060 A 
HETATM    6  C   UNK N   1      27.163  20.042   4.049  0.00  0.00     0.028 A 
HETATM    7  C   UNK N   1      27.996  19.360   4.913  0.00  0.00     0.050 A 
HETATM    8  C   UNK N   1      25.014  20.312   2.974  0.00  0.00     0.101 C 
HETATM    9  N   UNK N   1      24.374  20.870   2.189  0.00  0.00    -0.191 NA
ENDROOT
BRANCH   1  10
HETATM   10  N   UNK N   1      28.382  17.413   6.346  0.00  0.00    -0.320 N 
HETATM   11  H   UNK N   1      28.466  16.489   6.018  0.00  0.00     0.169 HD
BRANCH  10  12
HETATM   12  C   UNK N   1      29.160  17.791   7.488  0.00  0.00     0.173 C 
HETATM   13  S   UNK N   1      28.584  18.396   8.667  0.00  0.00    -0.041 SA
BRANCH  12  14
HETATM   14  N   UNK N   1      30.533  17.501   7.503  0.00  0.00    -0.367 N 
HETATM   15  H   UNK N   1      30.960  17.048   6.741  0.00  0.00     0.161 HD
BRANCH  14  16
HETATM   16  C   UNK N   1      31.298  17.878   8.650  0.00  0.00     0.128 C 
BRANCH  16  17
HETATM   17  C   UNK N   1      32.770  18.079   8.252  0.00  0.00     0.080 C 
BRANCH  17  18
HETATM   18  C   UNK N   1      33.482  16.823   7.863  0.00  0.00     0.052 A 
HETATM   19  N   UNK N   1      33.555  15.758   8.712  0.00  0.00    -0.367 N 
HETATM   20  C   UNK N   1      34.051  14.557   8.296  0.00  0.00     0.091 A 
ATOM     21  HN  UNK N   1      33.233  15.861   9.674  1.00  0.00     0.165 HD
HETATM   22  C   UNK N   1      34.446  14.382   6.960  0.00  0.00     0.057 A 
HETATM   23  C   UNK N   1      34.377  15.468   6.073  0.00  0.00     0.110 A 
HETATM   24  C   UNK N   1      33.922  16.703   6.558  0.00  0.00     0.172 A 
HETATM   25  F   UNK N   1      33.856  17.792   5.753  0.00  0.00    -0.201 F 
BRANCH  23  26
HETATM   26  O   UNK N   1      34.692  15.308   4.756  0.00  0.00    -0.348 OA
BRANCH  26  27
HETATM   27  C   UNK N   1      33.734  14.939   3.824  0.00  0.00     0.171 C 
HETATM   28  C   UNK N   1      33.262  16.076   2.961  0.00  0.00     0.034 C 
ENDBRANCH  26  27
ENDBRANCH  23  26
ENDBRANCH  17  18
ENDBRANCH  16  17
ENDBRANCH  14  16
ENDBRANCH  12  14
ENDBRANCH  10  12
ENDBRANCH   1  10
TORSDOF 8
ENDMDL
MODEL 6
REMARK VINA RESULT:      -6.1     19.631     21.652
REMARK  8 active torsions:
REMARK  status: ('A' for Active; 'I' for Inactive)
REMARK    1  A    between atoms: C_1  and  N_10 
REMARK    2  A    between atoms: N_10  and  C_11 
REMARK    3  A    between atoms: C_11  and  N_13 
REMARK    4  A    between atoms: N_13  and  C_14 
REMARK    5  A    between atoms: C_14  and  C_15 
REMARK    6  A    between atoms: C_15  and  C_16 
REMARK    7  A    between atoms: C_21  and  O_23 
REMARK    8  A    between atoms: O_23  and  C_24 
ROOT
HETATM    1  C   UNK N   1      25.678  27.538  -3.908  0.00  0.00     0.107 A 
HETATM    2  N   UNK N   1      26.324  26.519  -3.281  0.00  0.00    -0.351 N 
ATOM      3  HN  UNK N   1      26.703  26.666  -2.346  1.00  0.00     0.166 HD
HETATM    4  C   UNK N   1      26.475  25.307  -3.880  0.00  0.00     0.112 A 
HETATM    5  C   UNK N   1      25.957  25.098  -5.163  0.00  0.00     0.060 A 
HETATM    6  C   UNK N   1      25.243  26.106  -5.791  0.00  0.00     0.028 A 
HETATM    7  C   UNK N   1      25.100  27.327  -5.165  0.00  0.00     0.050 A 
HETATM    8  C   UNK N   1      26.164  23.870  -5.859  0.00  0.00     0.101 C 
HETATM    9  N   UNK N   1      26.313  22.890  -6.452  0.00  0.00    -0.191 NA
ENDROOT
BRANCH   1  10
HETATM   10  N   UNK N   1      25.765  28.842  -3.361  0.00  0.00    -0.320 N 
HETATM   11  H   UNK N   1      24.979  29.193  -2.884  0.00  0.00     0.169 HD
BRANCH  10  12
HETATM   12  C   UNK N   1      26.921  29.684  -3.454  0.00  0.00     0.173 C 
HETATM   13  S   UNK N   1      27.824  29.904  -2.348  0.00  0.00    -0.041 SA
BRANCH  12  14
HETATM   14  N   UNK N   1      27.239  30.270  -4.688  0.00  0.00    -0.367 N 
HETATM   15  H   UNK N   1      26.604  30.871  -5.140  0.00  0.00     0.161 HD
BRANCH  14  16
HETATM   16  C   UNK N   1      28.508  29.974  -5.278  0.00  0.00     0.128 C 
BRANCH  16  17
HETATM   17  C   UNK N   1      28.450  28.608  -5.981  0.00  0.00     0.080 C 
BRANCH  17  18
HETATM   18  C   UNK N   1      29.343  27.567  -5.385  0.00  0.00     0.052 A 
HETATM   19  N   UNK N   1      30.065  27.817  -4.255  0.00  0.00    -0.367 N 
HETATM   20  C   UNK N   1      30.742  26.819  -3.616  0.00  0.00     0.091 A 
ATOM     21  HN  UNK N   1      30.099  28.765  -3.880  1.00  0.00     0.165 HD
HETATM   22  C   UNK N   1      30.660  25.499  -4.086  0.00  0.00     0.057 A 
HETATM   23  C   UNK N   1      29.921  25.225  -5.247  0.00  0.00     0.110 A 
HETATM   24  C   UNK N   1      29.294  26.290  -5.910  0.00  0.00     0.172 A 
HETATM   25  F   UNK N   1      28.587  26.088  -7.049  0.00  0.00    -0.201 F 
BRANCH  23  26
HETATM   26  O   UNK N   1      29.773  23.943  -5.687  0.00  0.00    -0.348 OA
BRANCH  26  27
HETATM   27  C   UNK N   1      30.576  22.918  -5.210  0.00  0.00     0.171 C 
HETATM   28  C   UNK N   1      29.940  21.559  -5.305  0.00  0.00     0.034 C 
ENDBRANCH  26  27
ENDBRANCH  23  26
ENDBRANCH  17  18
ENDBRANCH  16  17
ENDBRANCH  14  16
ENDBRANCH  12  14
ENDBRANCH  10  12
ENDBRANCH   1  10
TORSDOF 8
ENDMDL
MODEL 7
REMARK VINA RESULT:      -6.1      1.462      1.725
REMARK  8 active torsions:
REMARK  status: ('A' for Active; 'I' for Inactive)
REMARK    1  A    between atoms: C_1  and  N_10 
REMARK    2  A    between atoms: N_10  and  C_11 
REMARK    3  A    between atoms: C_11  and  N_13 
REMARK    4  A    between atoms: N_13  and  C_14 
REMARK    5  A    between atoms: C_14  and  C_15 
REMARK    6  A    between atoms: C_15  and  C_16 
REMARK    7  A    between atoms: C_21  and  O_23 
REMARK    8  A    between atoms: O_23  and  C_24 
ROOT
HETATM    1  C   UNK N   1      36.709  13.381  14.097  0.00  0.00     0.107 A 
HETATM    2  N   UNK N   1      37.079  14.433  14.875  0.00  0.00    -0.351 N 
ATOM      3  HN  UNK N   1      37.702  15.145  14.493  1.00  0.00     0.166 HD
HETATM    4  C   UNK N   1      36.635  14.551  16.155  0.00  0.00     0.112 A 
HETATM    5  C   UNK N   1      35.780  13.579  16.687  0.00  0.00     0.060 A 
HETATM    6  C   UNK N   1      35.344  12.534  15.888  0.00  0.00     0.028 A 
HETATM    7  C   UNK N   1      35.805  12.434  14.591  0.00  0.00     0.050 A 
HETATM    8  C   UNK N   1      35.358  13.622  18.048  0.00  0.00     0.101 C 
HETATM    9  N   UNK N   1      34.996  13.625  19.146  0.00  0.00    -0.191 NA
ENDROOT
BRANCH   1  10
HETATM   10  N   UNK N   1      37.387  13.164  12.872  0.00  0.00    -0.320 N 
HETATM   11  H   UNK N   1      38.338  12.911  12.914  0.00  0.00     0.169 HD
BRANCH  10  12
HETATM   12  C   UNK N   1      36.784  13.286  11.579  0.00  0.00     0.173 C 
HETATM   13  S   UNK N   1      36.063  12.208  10.942  0.00  0.00    -0.041 SA
BRANCH  12  14
HETATM   14  N   UNK N   1      36.826  14.525  10.922  0.00  0.00    -0.367 N 
HETATM   15  H   UNK N   1      37.418  14.665  10.148  0.00  0.00     0.161 HD
BRANCH  14  16
HETATM   16  C   UNK N   1      35.991  15.581  11.401  0.00  0.00     0.128 C 
BRANCH  16  17
HETATM   17  C   UNK N   1      34.564  15.407  10.854  0.00  0.00     0.080 C 
BRANCH  17  18
HETATM   18  C   UNK N   1      34.312  16.102   9.554  0.00  0.00     0.052 A 
HETATM   19  N   UNK N   1      34.161  17.456   9.492  0.00  0.00    -0.367 N 
HETATM   20  C   UNK N   1      34.102  18.105   8.293  0.00  0.00     0.091 A 
ATOM     21  HN  UNK N   1      34.089  17.992  10.356  1.00  0.00     0.165 HD
HETATM   22  C   UNK N   1      34.255  17.388   7.096  0.00  0.00     0.057 A 
HETATM   23  C   UNK N   1      34.412  15.994   7.141  0.00  0.00     0.110 A 
HETATM   24  C   UNK N   1      34.401  15.358   8.392  0.00  0.00     0.172 A 
HETATM   25  F   UNK N   1      34.525  14.013   8.495  0.00  0.00    -0.201 F 
BRANCH  23  26
HETATM   26  O   UNK N   1      34.627  15.284   5.998  0.00  0.00    -0.348 OA
BRANCH  26  27
HETATM   27  C   UNK N   1      34.081  15.682   4.787  0.00  0.00     0.171 C 
HETATM   28  C   UNK N   1      33.699  14.537   3.891  0.00  0.00     0.034 C 
ENDBRANCH  26  27
ENDBRANCH  23  26
ENDBRANCH  17  18
ENDBRANCH  16  17
ENDBRANCH  14  16
ENDBRANCH  12  14
ENDBRANCH  10  12
ENDBRANCH   1  10
TORSDOF 8
ENDMDL
MODEL 8
REMARK VINA RESULT:      -6.0      2.308      2.889
REMARK  8 active torsions:
REMARK  status: ('A' for Active; 'I' for Inactive)
REMARK    1  A    between atoms: C_1  and  N_10 
REMARK    2  A    between atoms: N_10  and  C_11 
REMARK    3  A    between atoms: C_11  and  N_13 
REMARK    4  A    between atoms: N_13  and  C_14 
REMARK    5  A    between atoms: C_14  and  C_15 
REMARK    6  A    between atoms: C_15  and  C_16 
REMARK    7  A    between atoms: C_21  and  O_23 
REMARK    8  A    between atoms: O_23  and  C_24 
ROOT
HETATM    1  C   UNK N   1      36.685  13.020  15.112  0.00  0.00     0.107 A 
HETATM    2  N   UNK N   1      37.053  11.712  15.058  0.00  0.00    -0.351 N 
ATOM      3  HN  UNK N   1      37.724  11.409  14.353  1.00  0.00     0.166 HD
HETATM    4  C   UNK N   1      36.542  10.801  15.929  0.00  0.00     0.112 A 
HETATM    5  C   UNK N   1      35.622  11.209  16.900  0.00  0.00     0.060 A 
HETATM    6  C   UNK N   1      35.282  12.548  17.009  0.00  0.00     0.028 A 
HETATM    7  C   UNK N   1      35.814  13.457  16.117  0.00  0.00     0.050 A 
HETATM    8  C   UNK N   1      35.000  10.273  17.778  0.00  0.00     0.101 C 
HETATM    9  N   UNK N   1      34.477   9.542  18.505  0.00  0.00    -0.191 NA
ENDROOT
BRANCH   1  10
HETATM   10  N   UNK N   1      37.041  13.875  14.041  0.00  0.00    -0.320 N 
HETATM   11  H   UNK N   1      37.884  14.378  14.116  0.00  0.00     0.169 HD
BRANCH  10  12
HETATM   12  C   UNK N   1      36.258  14.057  12.854  0.00  0.00     0.173 C 
HETATM   13  S   UNK N   1      35.191  13.161  12.472  0.00  0.00    -0.041 SA
BRANCH  12  14
HETATM   14  N   UNK N   1      36.481  15.191  12.059  0.00  0.00    -0.367 N 
HETATM   15  H   UNK N   1      37.394  15.452  11.798  0.00  0.00     0.161 HD
BRANCH  14  16
HETATM   16  C   UNK N   1      35.354  15.960  11.634  0.00  0.00     0.128 C 
BRANCH  16  17
HETATM   17  C   UNK N   1      35.490  16.304  10.141  0.00  0.00     0.080 C 
BRANCH  17  18
HETATM   18  C   UNK N   1      34.331  15.875   9.299  0.00  0.00     0.052 A 
HETATM   19  N   UNK N   1      33.944  14.569   9.241  0.00  0.00    -0.367 N 
HETATM   20  C   UNK N   1      32.788  14.203   8.613  0.00  0.00     0.091 A 
ATOM     21  HN  UNK N   1      34.527  13.852   9.673  1.00  0.00     0.165 HD
HETATM   22  C   UNK N   1      31.945  15.181   8.063  0.00  0.00     0.057 A 
HETATM   23  C   UNK N   1      32.329  16.530   8.115  0.00  0.00     0.110 A 
HETATM   24  C   UNK N   1      33.556  16.857   8.711  0.00  0.00     0.172 A 
HETATM   25  F   UNK N   1      33.988  18.140   8.769  0.00  0.00    -0.201 F 
BRANCH  23  26
HETATM   26  O   UNK N   1      31.499  17.505   7.646  0.00  0.00    -0.348 OA
BRANCH  26  27
HETATM   27  C   UNK N   1      30.216  17.663   8.147  0.00  0.00     0.171 C 
HETATM   28  C   UNK N   1      30.122  18.673   9.257  0.00  0.00     0.034 C 
ENDBRANCH  26  27
ENDBRANCH  23  26
ENDBRANCH  17  18
ENDBRANCH  16  17
ENDBRANCH  14  16
ENDBRANCH  12  14
ENDBRANCH  10  12
ENDBRANCH   1  10
TORSDOF 8
ENDMDL
MODEL 9
REMARK VINA RESULT:      -6.0     17.264     20.729
REMARK  8 active torsions:
REMARK  status: ('A' for Active; 'I' for Inactive)
REMARK    1  A    between atoms: C_1  and  N_10 
REMARK    2  A    between atoms: N_10  and  C_11 
REMARK    3  A    between atoms: C_11  and  N_13 
REMARK    4  A    between atoms: N_13  and  C_14 
REMARK    5  A    between atoms: C_14  and  C_15 
REMARK    6  A    between atoms: C_15  and  C_16 
REMARK    7  A    between atoms: C_21  and  O_23 
REMARK    8  A    between atoms: O_23  and  C_24 
ROOT
HETATM    1  C   UNK N   1      27.499  24.863  -3.668  0.00  0.00     0.107 A 
HETATM    2  N   UNK N   1      28.714  25.240  -4.149  0.00  0.00    -0.351 N 
ATOM      3  HN  UNK N   1      28.776  26.035  -4.785  1.00  0.00     0.166 HD
HETATM    4  C   UNK N   1      29.847  24.575  -3.798  0.00  0.00     0.112 A 
HETATM    5  C   UNK N   1      29.770  23.484  -2.925  0.00  0.00     0.060 A 
HETATM    6  C   UNK N   1      28.549  23.124  -2.378  0.00  0.00     0.028 A 
HETATM    7  C   UNK N   1      27.411  23.814  -2.746  0.00  0.00     0.050 A 
HETATM    8  C   UNK N   1      30.922  22.709  -2.597  0.00  0.00     0.101 C 
HETATM    9  N   UNK N   1      31.833  22.060  -2.309  0.00  0.00    -0.191 NA
ENDROOT
BRANCH   1  10
HETATM   10  N   UNK N   1      26.332  25.414  -4.250  0.00  0.00    -0.320 N 
HETATM   11  H   UNK N   1      25.575  24.808  -4.422  0.00  0.00     0.169 HD
BRANCH  10  12
HETATM   12  C   UNK N   1      26.177  26.794  -4.605  0.00  0.00     0.173 C 
HETATM   13  S   UNK N   1      25.955  27.837  -3.629  0.00  0.00    -0.041 SA
BRANCH  12  14
HETATM   14  N   UNK N   1      26.316  27.171  -5.949  0.00  0.00    -0.367 N 
HETATM   15  H   UNK N   1      26.997  27.828  -6.220  0.00  0.00     0.161 HD
BRANCH  14  16
HETATM   16  C   UNK N   1      25.446  26.579  -6.917  0.00  0.00     0.128 C 
BRANCH  16  17
HETATM   17  C   UNK N   1      26.270  25.765  -7.929  0.00  0.00     0.080 C 
BRANCH  17  18
HETATM   18  C   UNK N   1      26.158  24.283  -7.768  0.00  0.00     0.052 A 
HETATM   19  N   UNK N   1      25.016  23.619  -8.103  0.00  0.00    -0.367 N 
HETATM   20  C   UNK N   1      24.971  22.255  -8.119  0.00  0.00     0.091 A 
ATOM     21  HN  UNK N   1      24.179  24.150  -8.346  1.00  0.00     0.165 HD
HETATM   22  C   UNK N   1      26.128  21.509  -7.842  0.00  0.00     0.057 A 
HETATM   23  C   UNK N   1      27.313  22.177  -7.496  0.00  0.00     0.110 A 
HETATM   24  C   UNK N   1      27.298  23.578  -7.428  0.00  0.00     0.172 A 
HETATM   25  F   UNK N   1      28.406  24.276  -7.076  0.00  0.00    -0.201 F 
BRANCH  23  26
HETATM   26  O   UNK N   1      28.465  21.480  -7.286  0.00  0.00    -0.348 OA
BRANCH  26  27
HETATM   27  C   UNK N   1      28.972  20.618  -8.247  0.00  0.00     0.171 C 
HETATM   28  C   UNK N   1      29.154  19.208  -7.757  0.00  0.00     0.034 C 
ENDBRANCH  26  27
ENDBRANCH  23  26
ENDBRANCH  17  18
ENDBRANCH  16  17
ENDBRANCH  14  16
ENDBRANCH  12  14
ENDBRANCH  10  12
ENDBRANCH   1  10
TORSDOF 8
ENDMDL
