REMARK  8 active torsions:
REMARK  status: ('A' for Active; 'I' for Inactive)
REMARK    1  A    between atoms: C_1  and  N_10 
REMARK    2  A    between atoms: N_10  and  C_11 
REMARK    3  A    between atoms: C_11  and  N_13 
REMARK    4  A    between atoms: N_13  and  C_14 
REMARK    5  A    between atoms: C_14  and  C_15 
REMARK    6  A    between atoms: C_15  and  C_16 
REMARK    7  A    between atoms: C_21  and  O_23 
REMARK    8  A    between atoms: O_23  and  C_24 
ROOT
HETATM    1  C   UNK N   1      -3.991  -0.140   0.213  0.00  0.00     0.107 A 
HETATM    2  N   UNK N   1      -5.221  -0.673  -0.015  0.00  0.00    -0.351 N 
ATOM      3  HN  UNK N   1      -5.317  -1.682  -0.128  1.00  0.00     0.166 HD
HETATM    4  C   UNK N   1      -6.326   0.116  -0.096  0.00  0.00     0.112 A 
HETATM    5  C   UNK N   1      -6.203   1.501   0.059  0.00  0.00     0.060 A 
HETATM    6  C   UNK N   1      -4.967   2.055   0.352  0.00  0.00     0.028 A 
HETATM    7  C   UNK N   1      -3.859   1.236   0.432  0.00  0.00     0.050 A 
HETATM    8  C   UNK N   1      -7.322   2.371  -0.100  0.00  0.00     0.101 C 
HETATM    9  N   UNK N   1      -8.206   3.105  -0.222  0.00  0.00    -0.191 NA
ENDROOT
BRANCH   1  10
HETATM   10  N   UNK N   1      -2.848  -0.958   0.038  0.00  0.00    -0.320 N 
HETATM   11  H   UNK N   1      -2.886  -1.879   0.383  0.00  0.00     0.169 HD
BRANCH  10  12
HETATM   12  C   UNK N   1      -1.641  -0.536  -0.609  0.00  0.00     0.173 C 
HETATM   13  S   UNK N   1      -1.396   0.833  -1.001  0.00  0.00    -0.041 SA
BRANCH  12  14
HETATM   14  N   UNK N   1      -0.615  -1.471  -0.812  0.00  0.00    -0.367 N 
HETATM   15  H   UNK N   1      -0.500  -1.911  -1.685  0.00  0.00     0.161 HD
BRANCH  14  16
HETATM   16  C   UNK N   1       0.261  -1.771   0.277  0.00  0.00     0.128 C 
BRANCH  16  17
HETATM   17  C   UNK N   1       0.642  -0.475   1.012  0.00  0.00     0.080 C 
BRANCH  17  18
HETATM   18  C   UNK N   1       1.820   0.241   0.433  0.00  0.00     0.052 A 
HETATM   19  N   UNK N   1       1.837   1.600   0.320  0.00  0.00    -0.367 N 
HETATM   20  C   UNK N   1       2.972   2.263  -0.046  0.00  0.00     0.091 A 
ATOM     21  HN  UNK N   1       0.987   2.130   0.512  1.00  0.00     0.165 HD
HETATM   22  C   UNK N   1       4.165   1.554  -0.259  0.00  0.00     0.057 A 
HETATM   23  C   UNK N   1       4.165   0.155  -0.146  0.00  0.00     0.110 A 
HETATM   24  C   UNK N   1       2.961  -0.493   0.168  0.00  0.00     0.172 A 
HETATM   25  F   UNK N   1       2.896  -1.843   0.267  0.00  0.00    -0.201 F 
BRANCH  23  26
HETATM   26  O   UNK N   1       5.323  -0.551  -0.284  0.00  0.00    -0.348 OA
BRANCH  26  27
HETATM   27  C   UNK N   1       5.377  -1.909  -0.009  0.00  0.00     0.171 C 
HETATM   28  C   UNK N   1       6.760  -2.491  -0.112  0.00  0.00     0.034 C 
ENDBRANCH  26  27
ENDBRANCH  23  26
ENDBRANCH  17  18
ENDBRANCH  16  17
ENDBRANCH  14  16
ENDBRANCH  12  14
ENDBRANCH  10  12
ENDBRANCH   1  10
TORSDOF 8
