MODEL 1
REMARK VINA RESULT:      -6.5      0.000      0.000
REMARK  10 active torsions:
REMARK  status: ('A' for Active; 'I' for Inactive)
REMARK    1  A    between atoms: C_3  and  C_4 
REMARK    2  A    between atoms: C_7  and  N_8 
REMARK    3  A    between atoms: C_9  and  C_11 
REMARK    4  A    between atoms: C_11  and  O_14 
REMARK    5  A    between atoms: P_13  and  O_12 
REMARK    6  A    between atoms: P_13  and  O_14 
REMARK    7  A    between atoms: P_13  and  O_16 
REMARK    8  A    between atoms: O_16  and  P_17 
REMARK    9  A    between atoms: P_17  and  O_19 
REMARK   10  A    between atoms: P_17  and  O_20 
ROOT
HETATM    1  N   UNK N   1      36.259  13.448  15.489  0.00  0.00    -0.348 N 
ATOM      2  HN  UNK N   1      36.686  13.695  16.381  1.00  0.00     0.166 HD
HETATM    3  C   UNK N   1      35.490  12.328  15.400  0.00  0.00     0.192 A 
HETATM    4  N   UNK N   1      34.907  11.999  14.217  0.00  0.00    -0.325 N 
ATOM      5  HN  UNK N   1      34.323  11.163  14.160  1.00  0.00     0.169 HD
HETATM    6  C   UNK N   1      35.086  12.766  13.107  0.00  0.00     0.110 A 
HETATM    7  C   UNK N   1      35.885  13.914  13.178  0.00  0.00     0.025 A 
HETATM    8  C   UNK N   1      36.465  14.241  14.404  0.00  0.00     0.103 A 
ENDROOT
BRANCH   7   9
HETATM    9  C   UNK N   1      36.145  14.755  11.966  0.00  0.00     0.224 C 
BRANCH   9  10
HETATM   10  O   UNK N   1      34.949  15.259  11.444  0.00  0.00    -0.292 OA
BRANCH  10  11
HETATM   11  P   UNK N   1      35.333  15.787   9.829  0.00  0.00     0.402 P 
HETATM   12  O   UNK N   1      36.497  16.354  10.686  0.00  0.00    -0.631 OA
BRANCH  11  13
HETATM   13  O   UNK N   1      33.801  16.441  10.323  0.00  0.00    -0.307 OA
HETATM   14  H   UNK N   1      33.304  17.270  10.240  0.00  0.00     0.222 HD
ENDBRANCH  11  13
BRANCH  11  15
HETATM   15  O   UNK N   1      35.277  17.497   9.472  0.00  0.00    -0.195 OA
BRANCH  15  16
HETATM   16  P   UNK N   1      34.061  17.690   8.236  0.00  0.00     0.399 P 
HETATM   17  O   UNK N   1      34.717  17.906   6.846  0.00  0.00    -0.631 OA
BRANCH  16  18
HETATM   18  O   UNK N   1      34.921  19.188   8.406  0.00  0.00    -0.307 OA
HETATM   19  H   UNK N   1      35.482  19.608   7.735  0.00  0.00     0.222 HD
ENDBRANCH  16  18
BRANCH  16  20
HETATM   20  O   UNK N   1      34.938  16.221   7.937  0.00  0.00    -0.307 OA
HETATM   21  H   UNK N   1      34.644  15.299   7.874  0.00  0.00     0.222 HD
ENDBRANCH  16  20
ENDBRANCH  15  16
ENDBRANCH  11  15
ENDBRANCH  10  11
ENDBRANCH   9  10
ENDBRANCH   7   9
BRANCH   6  22
HETATM   22  N   UNK N   1      34.483  12.383  11.891  0.00  0.00    -0.385 N 
HETATM   23  H   UNK N   1      33.566  12.027  11.880  0.00  0.00     0.157 HD
HETATM   24  H   UNK N   1      34.983  12.473  11.048  0.00  0.00     0.157 HD
ENDBRANCH   6  22
BRANCH   3  25
HETATM   25  C   UNK N   1      35.314  11.435  16.590  0.00  0.00     0.449 C 
HETATM   26  F   UNK N   1      34.371  10.463  16.311  0.00  0.00    -0.163 F 
HETATM   27  F   UNK N   1      36.520  10.827  16.883  0.00  0.00    -0.163 F 
HETATM   28  F   UNK N   1      34.900  12.163  17.692  0.00  0.00    -0.163 F 
ENDBRANCH   3  25
TORSDOF 10
ENDMDL
MODEL 2
REMARK VINA RESULT:      -6.4      0.735      1.658
REMARK  10 active torsions:
REMARK  status: ('A' for Active; 'I' for Inactive)
REMARK    1  A    between atoms: C_3  and  C_4 
REMARK    2  A    between atoms: C_7  and  N_8 
REMARK    3  A    between atoms: C_9  and  C_11 
REMARK    4  A    between atoms: C_11  and  O_14 
REMARK    5  A    between atoms: P_13  and  O_12 
REMARK    6  A    between atoms: P_13  and  O_14 
REMARK    7  A    between atoms: P_13  and  O_16 
REMARK    8  A    between atoms: O_16  and  P_17 
REMARK    9  A    between atoms: P_17  and  O_19 
REMARK   10  A    between atoms: P_17  and  O_20 
ROOT
HETATM    1  N   UNK N   1      34.802  11.425  14.277  0.00  0.00    -0.348 N 
ATOM      2  HN  UNK N   1      34.347  10.528  14.448  1.00  0.00     0.166 HD
HETATM    3  C   UNK N   1      35.385  12.090  15.313  0.00  0.00     0.192 A 
HETATM    4  N   UNK N   1      36.004  13.280  15.090  0.00  0.00    -0.325 N 
ATOM      5  HN  UNK N   1      36.447  13.768  15.869  1.00  0.00     0.169 HD
HETATM    6  C   UNK N   1      36.043  13.831  13.847  0.00  0.00     0.110 A 
HETATM    7  C   UNK N   1      35.436  13.166  12.774  0.00  0.00     0.025 A 
HETATM    8  C   UNK N   1      34.817  11.940  13.020  0.00  0.00     0.103 A 
ENDROOT
BRANCH   7   9
HETATM    9  C   UNK N   1      35.417  13.764  11.400  0.00  0.00     0.224 C 
BRANCH   9  10
HETATM   10  O   UNK N   1      35.090  15.123  11.453  0.00  0.00    -0.292 OA
BRANCH  10  11
HETATM   11  P   UNK N   1      35.397  15.738   9.853  0.00  0.00     0.402 P 
HETATM   12  O   UNK N   1      36.552  16.335  10.702  0.00  0.00    -0.631 OA
BRANCH  11  13
HETATM   13  O   UNK N   1      33.846  16.283  10.415  0.00  0.00    -0.307 OA
HETATM   14  H   UNK N   1      33.056  16.718  10.058  0.00  0.00     0.222 HD
ENDBRANCH  11  13
BRANCH  11  15
HETATM   15  O   UNK N   1      35.236  17.455   9.570  0.00  0.00    -0.195 OA
BRANCH  15  16
HETATM   16  P   UNK N   1      34.075  17.622   8.278  0.00  0.00     0.399 P 
HETATM   17  O   UNK N   1      34.792  17.786   6.911  0.00  0.00    -0.631 OA
BRANCH  16  18
HETATM   18  O   UNK N   1      34.947  19.115   8.437  0.00  0.00    -0.307 OA
HETATM   19  H   UNK N   1      34.799  19.797   9.111  0.00  0.00     0.222 HD
ENDBRANCH  16  18
BRANCH  16  20
HETATM   20  O   UNK N   1      34.946  16.135   8.064  0.00  0.00    -0.307 OA
HETATM   21  H   UNK N   1      35.397  15.558   8.700  0.00  0.00     0.222 HD
ENDBRANCH  16  20
ENDBRANCH  15  16
ENDBRANCH  11  15
ENDBRANCH  10  11
ENDBRANCH   9  10
ENDBRANCH   7   9
BRANCH   6  22
HETATM   22  N   UNK N   1      36.675  15.077  13.657  0.00  0.00    -0.385 N 
HETATM   23  H   UNK N   1      36.221  15.911  13.913  0.00  0.00     0.157 HD
HETATM   24  H   UNK N   1      37.578  15.112  13.265  0.00  0.00     0.157 HD
ENDBRANCH   6  22
BRANCH   3  25
HETATM   25  C   UNK N   1      35.316  11.536  16.703  0.00  0.00     0.449 C 
HETATM   26  F   UNK N   1      35.007  12.546  17.595  0.00  0.00    -0.163 F 
HETATM   27  F   UNK N   1      34.331  10.567  16.756  0.00  0.00    -0.163 F 
HETATM   28  F   UNK N   1      36.524  10.967  17.065  0.00  0.00    -0.163 F 
ENDBRANCH   3  25
TORSDOF 10
ENDMDL
MODEL 3
REMARK VINA RESULT:      -6.4      9.562     10.741
REMARK  10 active torsions:
REMARK  status: ('A' for Active; 'I' for Inactive)
REMARK    1  A    between atoms: C_3  and  C_4 
REMARK    2  A    between atoms: C_7  and  N_8 
REMARK    3  A    between atoms: C_9  and  C_11 
REMARK    4  A    between atoms: C_11  and  O_14 
REMARK    5  A    between atoms: P_13  and  O_12 
REMARK    6  A    between atoms: P_13  and  O_14 
REMARK    7  A    between atoms: P_13  and  O_16 
REMARK    8  A    between atoms: O_16  and  P_17 
REMARK    9  A    between atoms: P_17  and  O_19 
REMARK   10  A    between atoms: P_17  and  O_20 
ROOT
HETATM    1  N   UNK N   1      28.568  18.705   5.060  0.00  0.00    -0.348 N 
ATOM      2  HN  UNK N   1      28.708  18.773   4.052  1.00  0.00     0.166 HD
HETATM    3  C   UNK N   1      27.590  19.445   5.653  0.00  0.00     0.192 A 
HETATM    4  N   UNK N   1      27.389  19.350   6.994  0.00  0.00    -0.325 N 
ATOM      5  HN  UNK N   1      26.647  19.900   7.430  1.00  0.00     0.169 HD
HETATM    6  C   UNK N   1      28.158  18.535   7.765  0.00  0.00     0.110 A 
HETATM    7  C   UNK N   1      29.176  17.778   7.173  0.00  0.00     0.025 A 
HETATM    8  C   UNK N   1      29.359  17.878   5.794  0.00  0.00     0.103 A 
ENDROOT
BRANCH   7   9
HETATM    9  C   UNK N   1      30.074  16.905   7.997  0.00  0.00     0.224 C 
BRANCH   9  10
HETATM   10  O   UNK N   1      31.051  16.300   7.199  0.00  0.00    -0.292 OA
BRANCH  10  11
HETATM   11  P   UNK N   1      32.347  15.884   8.286  0.00  0.00     0.402 P 
HETATM   12  O   UNK N   1      32.178  17.414   8.486  0.00  0.00    -0.631 OA
BRANCH  11  13
HETATM   13  O   UNK N   1      32.792  15.502   6.651  0.00  0.00    -0.307 OA
HETATM   14  H   UNK N   1      32.396  15.525   5.766  0.00  0.00     0.222 HD
ENDBRANCH  11  13
BRANCH  11  15
HETATM   15  O   UNK N   1      33.949  16.496   7.951  0.00  0.00    -0.195 OA
BRANCH  15  16
HETATM   16  P   UNK N   1      33.854  18.227   8.153  0.00  0.00     0.399 P 
HETATM   17  O   UNK N   1      35.260  18.873   8.039  0.00  0.00    -0.631 OA
BRANCH  16  18
HETATM   18  O   UNK N   1      34.733  17.559   9.493  0.00  0.00    -0.307 OA
HETATM   19  H   UNK N   1      34.928  16.620   9.642  0.00  0.00     0.222 HD
ENDBRANCH  16  18
BRANCH  16  20
HETATM   20  O   UNK N   1      34.361  17.876   6.530  0.00  0.00    -0.307 OA
HETATM   21  H   UNK N   1      35.191  18.062   6.061  0.00  0.00     0.222 HD
ENDBRANCH  16  20
ENDBRANCH  15  16
ENDBRANCH  11  15
ENDBRANCH  10  11
ENDBRANCH   9  10
ENDBRANCH   7   9
BRANCH   6  22
HETATM   22  N   UNK N   1      27.934  18.478   9.157  0.00  0.00    -0.385 N 
HETATM   23  H   UNK N   1      28.646  18.174   9.764  0.00  0.00     0.157 HD
HETATM   24  H   UNK N   1      27.060  18.745   9.522  0.00  0.00     0.157 HD
ENDBRANCH   6  22
BRANCH   3  25
HETATM   25  C   UNK N   1      26.759  20.391   4.840  0.00  0.00     0.449 C 
HETATM   26  F   UNK N   1      26.974  21.688   5.268  0.00  0.00    -0.163 F 
HETATM   27  F   UNK N   1      27.122  20.284   3.511  0.00  0.00    -0.163 F 
HETATM   28  F   UNK N   1      25.414  20.090   4.963  0.00  0.00    -0.163 F 
ENDBRANCH   3  25
TORSDOF 10
ENDMDL
MODEL 4
REMARK VINA RESULT:      -6.4      1.753      2.464
REMARK  10 active torsions:
REMARK  status: ('A' for Active; 'I' for Inactive)
REMARK    1  A    between atoms: C_3  and  C_4 
REMARK    2  A    between atoms: C_7  and  N_8 
REMARK    3  A    between atoms: C_9  and  C_11 
REMARK    4  A    between atoms: C_11  and  O_14 
REMARK    5  A    between atoms: P_13  and  O_12 
REMARK    6  A    between atoms: P_13  and  O_14 
REMARK    7  A    between atoms: P_13  and  O_16 
REMARK    8  A    between atoms: O_16  and  P_17 
REMARK    9  A    between atoms: P_17  and  O_19 
REMARK   10  A    between atoms: P_17  and  O_20 
ROOT
HETATM    1  N   UNK N   1      35.122  12.262  13.603  0.00  0.00    -0.348 N 
ATOM      2  HN  UNK N   1      34.829  11.447  14.141  1.00  0.00     0.166 HD
HETATM    3  C   UNK N   1      35.672  13.329  14.246  0.00  0.00     0.192 A 
HETATM    4  N   UNK N   1      36.077  14.414  13.534  0.00  0.00    -0.325 N 
ATOM      5  HN  UNK N   1      36.497  15.206  14.021  1.00  0.00     0.169 HD
HETATM    6  C   UNK N   1      35.932  14.461  12.181  0.00  0.00     0.110 A 
HETATM    7  C   UNK N   1      35.356  13.378  11.507  0.00  0.00     0.025 A 
HETATM    8  C   UNK N   1      34.959  12.269  12.253  0.00  0.00     0.103 A 
ENDROOT
BRANCH   7   9
HETATM    9  C   UNK N   1      35.137  13.414  10.024  0.00  0.00     0.224 C 
BRANCH   9  10
HETATM   10  O   UNK N   1      33.925  14.041   9.715  0.00  0.00    -0.292 OA
BRANCH  10  11
HETATM   11  P   UNK N   1      34.270  15.074   8.355  0.00  0.00     0.402 P 
HETATM   12  O   UNK N   1      35.634  14.393   8.654  0.00  0.00    -0.631 OA
BRANCH  11  13
HETATM   13  O   UNK N   1      33.724  16.023   9.703  0.00  0.00    -0.307 OA
HETATM   14  H   UNK N   1      32.933  16.108  10.259  0.00  0.00     0.222 HD
ENDBRANCH  11  13
BRANCH  11  15
HETATM   15  O   UNK N   1      35.338  16.437   8.589  0.00  0.00    -0.195 OA
BRANCH  15  16
HETATM   16  P   UNK N   1      34.306  17.836   8.738  0.00  0.00     0.399 P 
HETATM   17  O   UNK N   1      35.060  19.125   8.318  0.00  0.00    -0.631 OA
BRANCH  16  18
HETATM   18  O   UNK N   1      35.590  17.967   9.899  0.00  0.00    -0.307 OA
HETATM   19  H   UNK N   1      35.552  18.440  10.745  0.00  0.00     0.222 HD
ENDBRANCH  16  18
BRANCH  16  20
HETATM   20  O   UNK N   1      34.683  17.590   7.060  0.00  0.00    -0.307 OA
HETATM   21  H   UNK N   1      35.075  18.180   6.397  0.00  0.00     0.222 HD
ENDBRANCH  16  20
ENDBRANCH  15  16
ENDBRANCH  11  15
ENDBRANCH  10  11
ENDBRANCH   9  10
ENDBRANCH   7   9
BRANCH   6  22
HETATM   22  N   UNK N   1      36.344  15.612  11.477  0.00  0.00    -0.385 N 
HETATM   23  H   UNK N   1      36.040  16.504  11.758  0.00  0.00     0.157 HD
HETATM   24  H   UNK N   1      36.940  15.521  10.699  0.00  0.00     0.157 HD
ENDBRANCH   6  22
BRANCH   3  25
HETATM   25  C   UNK N   1      35.799  13.330  15.739  0.00  0.00     0.449 C 
HETATM   26  F   UNK N   1      36.552  14.416  16.145  0.00  0.00    -0.163 F 
HETATM   27  F   UNK N   1      34.539  13.415  16.301  0.00  0.00    -0.163 F 
HETATM   28  F   UNK N   1      36.407  12.168  16.180  0.00  0.00    -0.163 F 
ENDBRANCH   3  25
TORSDOF 10
ENDMDL
MODEL 5
REMARK VINA RESULT:      -6.3      6.226      8.031
REMARK  10 active torsions:
REMARK  status: ('A' for Active; 'I' for Inactive)
REMARK    1  A    between atoms: C_3  and  C_4 
REMARK    2  A    between atoms: C_7  and  N_8 
REMARK    3  A    between atoms: C_9  and  C_11 
REMARK    4  A    between atoms: C_11  and  O_14 
REMARK    5  A    between atoms: P_13  and  O_12 
REMARK    6  A    between atoms: P_13  and  O_14 
REMARK    7  A    between atoms: P_13  and  O_16 
REMARK    8  A    between atoms: O_16  and  P_17 
REMARK    9  A    between atoms: P_17  and  O_19 
REMARK   10  A    between atoms: P_17  and  O_20 
ROOT
HETATM    1  N   UNK N   1      35.164  17.263  10.181  0.00  0.00    -0.348 N 
ATOM      2  HN  UNK N   1      35.628  18.161  10.318  1.00  0.00     0.166 HD
HETATM    3  C   UNK N   1      34.380  17.073   9.083  0.00  0.00     0.192 A 
HETATM    4  N   UNK N   1      33.769  15.875   8.887  0.00  0.00    -0.325 N 
ATOM      5  HN  UNK N   1      33.191  15.737   8.056  1.00  0.00     0.169 HD
HETATM    6  C   UNK N   1      33.913  14.857   9.778  0.00  0.00     0.110 A 
HETATM    7  C   UNK N   1      34.704  15.041  10.919  0.00  0.00     0.025 A 
HETATM    8  C   UNK N   1      35.334  16.273  11.096  0.00  0.00     0.103 A 
ENDROOT
BRANCH   7   9
HETATM    9  C   UNK N   1      34.847  13.959  11.947  0.00  0.00     0.224 C 
BRANCH   9  10
HETATM   10  O   UNK N   1      35.381  14.469  13.135  0.00  0.00    -0.292 OA
BRANCH  10  11
HETATM   11  P   UNK N   1      36.271  13.152  13.847  0.00  0.00     0.402 P 
HETATM   12  O   UNK N   1      34.845  12.992  14.439  0.00  0.00    -0.631 OA
BRANCH  11  13
HETATM   13  O   UNK N   1      36.984  14.669  14.301  0.00  0.00    -0.307 OA
HETATM   14  H   UNK N   1      37.457  15.405  13.881  0.00  0.00     0.222 HD
ENDBRANCH  11  13
BRANCH  11  15
HETATM   15  O   UNK N   1      36.565  13.174  15.569  0.00  0.00    -0.195 OA
BRANCH  15  16
HETATM   16  P   UNK N   1      35.104  12.578  16.313  0.00  0.00     0.399 P 
HETATM   17  O   UNK N   1      35.360  12.183  17.792  0.00  0.00    -0.631 OA
BRANCH  16  18
HETATM   18  O   UNK N   1      36.245  11.273  16.208  0.00  0.00    -0.307 OA
HETATM   19  H   UNK N   1      36.042  10.349  15.995  0.00  0.00     0.222 HD
ENDBRANCH  16  18
BRANCH  16  20
HETATM   20  O   UNK N   1      35.564  14.064  17.086  0.00  0.00    -0.307 OA
HETATM   21  H   UNK N   1      36.402  14.349  17.482  0.00  0.00     0.222 HD
ENDBRANCH  16  20
ENDBRANCH  15  16
ENDBRANCH  11  15
ENDBRANCH  10  11
ENDBRANCH   9  10
ENDBRANCH   7   9
BRANCH   6  22
HETATM   22  N   UNK N   1      33.246  13.635   9.553  0.00  0.00    -0.385 N 
HETATM   23  H   UNK N   1      33.094  13.006  10.295  0.00  0.00     0.157 HD
HETATM   24  H   UNK N   1      32.929  13.410   8.648  0.00  0.00     0.157 HD
ENDBRANCH   6  22
BRANCH   3  25
HETATM   25  C   UNK N   1      34.160  18.190   8.108  0.00  0.00     0.449 C 
HETATM   26  F   UNK N   1      32.871  18.673   8.234  0.00  0.00    -0.163 F 
HETATM   27  F   UNK N   1      35.055  19.208   8.376  0.00  0.00    -0.163 F 
HETATM   28  F   UNK N   1      34.354  17.752   6.810  0.00  0.00    -0.163 F 
ENDBRANCH   3  25
TORSDOF 10
ENDMDL
MODEL 6
REMARK VINA RESULT:      -6.2      6.194      7.697
REMARK  10 active torsions:
REMARK  status: ('A' for Active; 'I' for Inactive)
REMARK    1  A    between atoms: C_3  and  C_4 
REMARK    2  A    between atoms: C_7  and  N_8 
REMARK    3  A    between atoms: C_9  and  C_11 
REMARK    4  A    between atoms: C_11  and  O_14 
REMARK    5  A    between atoms: P_13  and  O_12 
REMARK    6  A    between atoms: P_13  and  O_14 
REMARK    7  A    between atoms: P_13  and  O_16 
REMARK    8  A    between atoms: O_16  and  P_17 
REMARK    9  A    between atoms: P_17  and  O_19 
REMARK   10  A    between atoms: P_17  and  O_20 
ROOT
HETATM    1  N   UNK N   1      33.292  15.905   8.668  0.00  0.00    -0.348 N 
ATOM      2  HN  UNK N   1      32.536  15.935   7.984  1.00  0.00     0.166 HD
HETATM    3  C   UNK N   1      34.053  17.015   8.877  0.00  0.00     0.192 A 
HETATM    4  N   UNK N   1      35.054  16.987   9.796  0.00  0.00    -0.325 N 
ATOM      5  HN  UNK N   1      35.613  17.826   9.955  1.00  0.00     0.169 HD
HETATM    6  C   UNK N   1      35.323  15.860  10.510  0.00  0.00     0.110 A 
HETATM    7  C   UNK N   1      34.559  14.706  10.296  0.00  0.00     0.025 A 
HETATM    8  C   UNK N   1      33.528  14.758   9.359  0.00  0.00     0.103 A 
ENDROOT
BRANCH   7   9
HETATM    9  C   UNK N   1      34.856  13.432  11.028  0.00  0.00     0.224 C 
BRANCH   9  10
HETATM   10  O   UNK N   1      36.205  13.084  10.895  0.00  0.00    -0.292 OA
BRANCH  10  11
HETATM   11  P   UNK N   1      36.561  12.071  12.266  0.00  0.00     0.402 P 
HETATM   12  O   UNK N   1      35.399  12.971  12.767  0.00  0.00    -0.631 OA
BRANCH  11  13
HETATM   13  O   UNK N   1      37.957  13.012  11.841  0.00  0.00    -0.307 OA
HETATM   14  H   UNK N   1      38.923  12.929  11.863  0.00  0.00     0.222 HD
ENDBRANCH  11  13
BRANCH  11  15
HETATM   15  O   UNK N   1      37.235  12.808  13.700  0.00  0.00    -0.195 OA
BRANCH  15  16
HETATM   16  P   UNK N   1      35.877  13.417  14.611  0.00  0.00     0.399 P 
HETATM   17  O   UNK N   1      36.342  13.988  15.977  0.00  0.00    -0.631 OA
BRANCH  16  18
HETATM   18  O   UNK N   1      36.530  12.039  15.442  0.00  0.00    -0.307 OA
HETATM   19  H   UNK N   1      37.465  11.883  15.648  0.00  0.00     0.222 HD
ENDBRANCH  16  18
BRANCH  16  20
HETATM   20  O   UNK N   1      36.917  14.745  14.194  0.00  0.00    -0.307 OA
HETATM   21  H   UNK N   1      37.862  14.894  14.353  0.00  0.00     0.222 HD
ENDBRANCH  16  20
ENDBRANCH  15  16
ENDBRANCH  11  15
ENDBRANCH  10  11
ENDBRANCH   9  10
ENDBRANCH   7   9
BRANCH   6  22
HETATM   22  N   UNK N   1      36.383  15.860  11.439  0.00  0.00    -0.385 N 
HETATM   23  H   UNK N   1      36.270  15.447  12.325  0.00  0.00     0.157 HD
HETATM   24  H   UNK N   1      37.242  16.277  11.200  0.00  0.00     0.157 HD
ENDBRANCH   6  22
BRANCH   3  25
HETATM   25  C   UNK N   1      33.816  18.257   8.073  0.00  0.00     0.449 C 
HETATM   26  F   UNK N   1      34.778  19.203   8.377  0.00  0.00    -0.163 F 
HETATM   27  F   UNK N   1      33.893  17.948   6.728  0.00  0.00    -0.163 F 
HETATM   28  F   UNK N   1      32.564  18.783   8.340  0.00  0.00    -0.163 F 
ENDBRANCH   3  25
TORSDOF 10
ENDMDL
MODEL 7
REMARK VINA RESULT:      -5.9      1.778      2.805
REMARK  10 active torsions:
REMARK  status: ('A' for Active; 'I' for Inactive)
REMARK    1  A    between atoms: C_3  and  C_4 
REMARK    2  A    between atoms: C_7  and  N_8 
REMARK    3  A    between atoms: C_9  and  C_11 
REMARK    4  A    between atoms: C_11  and  O_14 
REMARK    5  A    between atoms: P_13  and  O_12 
REMARK    6  A    between atoms: P_13  and  O_14 
REMARK    7  A    between atoms: P_13  and  O_16 
REMARK    8  A    between atoms: O_16  and  P_17 
REMARK    9  A    between atoms: P_17  and  O_19 
REMARK   10  A    between atoms: P_17  and  O_20 
ROOT
HETATM    1  N   UNK N   1      34.140  11.614  12.016  0.00  0.00    -0.348 N 
ATOM      2  HN  UNK N   1      33.221  11.179  12.093  1.00  0.00     0.166 HD
HETATM    3  C   UNK N   1      34.954  11.662  13.108  0.00  0.00     0.192 A 
HETATM    4  N   UNK N   1      36.185  12.228  13.010  0.00  0.00    -0.325 N 
ATOM      5  HN  UNK N   1      36.794  12.251  13.829  1.00  0.00     0.169 HD
HETATM    6  C   UNK N   1      36.622  12.765  11.838  0.00  0.00     0.110 A 
HETATM    7  C   UNK N   1      35.792  12.736  10.710  0.00  0.00     0.025 A 
HETATM    8  C   UNK N   1      34.537  12.139  10.827  0.00  0.00     0.103 A 
ENDROOT
BRANCH   7   9
HETATM    9  C   UNK N   1      36.220  13.359   9.416  0.00  0.00     0.224 C 
BRANCH   9  10
HETATM   10  O   UNK N   1      36.670  14.668   9.618  0.00  0.00    -0.292 OA
BRANCH  10  11
HETATM   11  P   UNK N   1      35.243  15.601   9.973  0.00  0.00     0.402 P 
HETATM   12  O   UNK N   1      35.373  15.703   8.429  0.00  0.00    -0.631 OA
BRANCH  11  13
HETATM   13  O   UNK N   1      36.621  16.289  10.775  0.00  0.00    -0.307 OA
HETATM   14  H   UNK N   1      36.815  17.002  11.404  0.00  0.00     0.222 HD
ENDBRANCH  11  13
BRANCH  11  15
HETATM   15  O   UNK N   1      35.282  17.327   9.703  0.00  0.00    -0.195 OA
BRANCH  15  16
HETATM   16  P   UNK N   1      34.328  17.611   8.271  0.00  0.00     0.399 P 
HETATM   17  O   UNK N   1      33.327  18.776   8.497  0.00  0.00    -0.631 OA
BRANCH  16  18
HETATM   18  O   UNK N   1      33.282  17.028   9.527  0.00  0.00    -0.307 OA
HETATM   19  H   UNK N   1      33.557  16.707  10.401  0.00  0.00     0.222 HD
ENDBRANCH  16  18
BRANCH  16  20
HETATM   20  O   UNK N   1      35.334  18.997   8.561  0.00  0.00    -0.307 OA
HETATM   21  H   UNK N   1      36.294  19.118   8.495  0.00  0.00     0.222 HD
ENDBRANCH  16  20
ENDBRANCH  15  16
ENDBRANCH  11  15
ENDBRANCH  10  11
ENDBRANCH   9  10
ENDBRANCH   7   9
BRANCH   6  22
HETATM   22  N   UNK N   1      37.897  13.364  11.779  0.00  0.00    -0.385 N 
HETATM   23  H   UNK N   1      38.462  13.415  12.582  0.00  0.00     0.157 HD
HETATM   24  H   UNK N   1      38.225  13.732  10.926  0.00  0.00     0.157 HD
ENDBRANCH   6  22
BRANCH   3  25
HETATM   25  C   UNK N   1      34.484  11.126  14.426  0.00  0.00     0.449 C 
HETATM   26  F   UNK N   1      34.324  12.165  15.324  0.00  0.00    -0.163 F 
HETATM   27  F   UNK N   1      33.271  10.487  14.249  0.00  0.00    -0.163 F 
HETATM   28  F   UNK N   1      35.395  10.220  14.940  0.00  0.00    -0.163 F 
ENDBRANCH   3  25
TORSDOF 10
ENDMDL
MODEL 8
REMARK VINA RESULT:      -5.7      6.480      7.791
REMARK  10 active torsions:
REMARK  status: ('A' for Active; 'I' for Inactive)
REMARK    1  A    between atoms: C_3  and  C_4 
REMARK    2  A    between atoms: C_7  and  N_8 
REMARK    3  A    between atoms: C_9  and  C_11 
REMARK    4  A    between atoms: C_11  and  O_14 
REMARK    5  A    between atoms: P_13  and  O_12 
REMARK    6  A    between atoms: P_13  and  O_14 
REMARK    7  A    between atoms: P_13  and  O_16 
REMARK    8  A    between atoms: O_16  and  P_17 
REMARK    9  A    between atoms: P_17  and  O_19 
REMARK   10  A    between atoms: P_17  and  O_20 
ROOT
HETATM    1  N   UNK N   1      31.183  16.107   9.193  0.00  0.00    -0.348 N 
ATOM      2  HN  UNK N   1      30.365  15.536   9.406  1.00  0.00     0.166 HD
HETATM    3  C   UNK N   1      31.036  17.450   9.018  0.00  0.00     0.192 A 
HETATM    4  N   UNK N   1      32.123  18.219   8.746  0.00  0.00    -0.325 N 
ATOM      5  HN  UNK N   1      32.007  19.226   8.626  1.00  0.00     0.169 HD
HETATM    6  C   UNK N   1      33.363  17.671   8.632  0.00  0.00     0.110 A 
HETATM    7  C   UNK N   1      33.528  16.290   8.796  0.00  0.00     0.025 A 
HETATM    8  C   UNK N   1      32.403  15.518   9.087  0.00  0.00     0.103 A 
ENDROOT
BRANCH   7   9
HETATM    9  C   UNK N   1      34.870  15.643   8.630  0.00  0.00     0.224 C 
BRANCH   9  10
HETATM   10  O   UNK N   1      35.641  15.792   9.788  0.00  0.00    -0.292 OA
BRANCH  10  11
HETATM   11  P   UNK N   1      36.417  14.252  10.031  0.00  0.00     0.402 P 
HETATM   12  O   UNK N   1      35.147  14.166  10.919  0.00  0.00    -0.631 OA
BRANCH  11  13
HETATM   13  O   UNK N   1      37.467  15.537  10.544  0.00  0.00    -0.307 OA
HETATM   14  H   UNK N   1      37.456  16.505  10.600  0.00  0.00     0.222 HD
ENDBRANCH  11  13
BRANCH  11  15
HETATM   15  O   UNK N   1      37.073  13.884  11.608  0.00  0.00    -0.195 OA
BRANCH  15  16
HETATM   16  P   UNK N   1      35.699  13.649  12.657  0.00  0.00     0.399 P 
HETATM   17  O   UNK N   1      36.151  13.141  14.052  0.00  0.00    -0.631 OA
BRANCH  16  18
HETATM   18  O   UNK N   1      36.418  12.103  12.329  0.00  0.00    -0.307 OA
HETATM   19  H   UNK N   1      36.335  11.304  12.874  0.00  0.00     0.222 HD
ENDBRANCH  16  18
BRANCH  16  20
HETATM   20  O   UNK N   1      36.677  14.937  13.290  0.00  0.00    -0.307 OA
HETATM   21  H   UNK N   1      36.585  15.901  13.233  0.00  0.00     0.222 HD
ENDBRANCH  16  20
ENDBRANCH  15  16
ENDBRANCH  11  15
ENDBRANCH  10  11
ENDBRANCH   9  10
ENDBRANCH   7   9
BRANCH   6  22
HETATM   22  N   UNK N   1      34.465  18.497   8.328  0.00  0.00    -0.385 N 
HETATM   23  H   UNK N   1      34.807  18.553   7.408  0.00  0.00     0.157 HD
HETATM   24  H   UNK N   1      34.894  19.021   9.043  0.00  0.00     0.157 HD
ENDBRANCH   6  22
BRANCH   3  25
HETATM   25  C   UNK N   1      29.678  18.078   9.086  0.00  0.00     0.449 C 
HETATM   26  F   UNK N   1      28.732  17.117   9.393  0.00  0.00    -0.163 F 
HETATM   27  F   UNK N   1      29.676  19.049  10.070  0.00  0.00    -0.163 F 
HETATM   28  F   UNK N   1      29.348  18.666   7.877  0.00  0.00    -0.163 F 
ENDBRANCH   3  25
TORSDOF 10
ENDMDL
MODEL 9
REMARK VINA RESULT:      -5.7      2.026      2.681
REMARK  10 active torsions:
REMARK  status: ('A' for Active; 'I' for Inactive)
REMARK    1  A    between atoms: C_3  and  C_4 
REMARK    2  A    between atoms: C_7  and  N_8 
REMARK    3  A    between atoms: C_9  and  C_11 
REMARK    4  A    between atoms: C_11  and  O_14 
REMARK    5  A    between atoms: P_13  and  O_12 
REMARK    6  A    between atoms: P_13  and  O_14 
REMARK    7  A    between atoms: P_13  and  O_16 
REMARK    8  A    between atoms: O_16  and  P_17 
REMARK    9  A    between atoms: P_17  and  O_19 
REMARK   10  A    between atoms: P_17  and  O_20 
ROOT
HETATM    1  N   UNK N   1      36.457  15.125  13.311  0.00  0.00    -0.348 N 
ATOM      2  HN  UNK N   1      36.984  15.812  13.850  1.00  0.00     0.166 HD
HETATM    3  C   UNK N   1      36.194  13.904  13.853  0.00  0.00     0.192 A 
HETATM    4  N   UNK N   1      35.480  12.989  13.147  0.00  0.00    -0.325 N 
ATOM      5  HN  UNK N   1      35.278  12.079  13.564  1.00  0.00     0.169 HD
HETATM    6  C   UNK N   1      35.028  13.264  11.893  0.00  0.00     0.110 A 
HETATM    7  C   UNK N   1      35.302  14.510  11.315  0.00  0.00     0.025 A 
HETATM    8  C   UNK N   1      36.025  15.441  12.061  0.00  0.00     0.103 A 
ENDROOT
BRANCH   7   9
HETATM    9  C   UNK N   1      34.863  14.832   9.919  0.00  0.00     0.224 C 
BRANCH   9  10
HETATM   10  O   UNK N   1      33.491  15.102   9.877  0.00  0.00    -0.292 OA
BRANCH  10  11
HETATM   11  P   UNK N   1      33.143  15.485   8.214  0.00  0.00     0.402 P 
HETATM   12  O   UNK N   1      34.613  15.950   8.397  0.00  0.00    -0.631 OA
BRANCH  11  13
HETATM   13  O   UNK N   1      32.065  16.352   9.265  0.00  0.00    -0.307 OA
HETATM   14  H   UNK N   1      31.137  16.314   9.545  0.00  0.00     0.222 HD
ENDBRANCH  11  13
BRANCH  11  15
HETATM   15  O   UNK N   1      33.077  17.165   7.738  0.00  0.00    -0.195 OA
BRANCH  15  16
HETATM   16  P   UNK N   1      32.851  17.165   6.008  0.00  0.00     0.399 P 
HETATM   17  O   UNK N   1      33.899  16.254   5.315  0.00  0.00    -0.631 OA
BRANCH  16  18
HETATM   18  O   UNK N   1      34.371  17.923   6.369  0.00  0.00    -0.307 OA
HETATM   19  H   UNK N   1      34.713  18.740   5.975  0.00  0.00     0.222 HD
ENDBRANCH  16  18
BRANCH  16  20
HETATM   20  O   UNK N   1      32.514  15.575   6.620  0.00  0.00    -0.307 OA
HETATM   21  H   UNK N   1      31.764  15.228   7.128  0.00  0.00     0.222 HD
ENDBRANCH  16  20
ENDBRANCH  15  16
ENDBRANCH  11  15
ENDBRANCH  10  11
ENDBRANCH   9  10
ENDBRANCH   7   9
BRANCH   6  22
HETATM   22  N   UNK N   1      34.309  12.283  11.180  0.00  0.00    -0.385 N 
HETATM   23  H   UNK N   1      33.380  12.070  11.424  0.00  0.00     0.157 HD
HETATM   24  H   UNK N   1      34.740  11.807  10.433  0.00  0.00     0.157 HD
ENDBRANCH   6  22
BRANCH   3  25
HETATM   25  C   UNK N   1      36.720  13.551  15.211  0.00  0.00     0.449 C 
HETATM   26  F   UNK N   1      37.500  14.585  15.695  0.00  0.00    -0.163 F 
HETATM   27  F   UNK N   1      35.656  13.343  16.069  0.00  0.00    -0.163 F 
HETATM   28  F   UNK N   1      37.482  12.397  15.156  0.00  0.00    -0.163 F 
ENDBRANCH   3  25
TORSDOF 10
ENDMDL
