MODEL 1
REMARK VINA RESULT:      -7.6      0.000      0.000
REMARK  11 active torsions:
REMARK  status: ('A' for Active; 'I' for Inactive)
REMARK    1  A    between atoms: C_10  and  N_2 
REMARK    2  A    between atoms: C_6  and  C_7 
REMARK       I    between atoms: C_7  and  N_9 
REMARK    3  A    between atoms: C_10  and  C_11 
REMARK    4  A    between atoms: C_10  and  C_13 
REMARK    5  A    between atoms: C_11  and  O_12 
REMARK    6  A    between atoms: C_13  and  C_14 
REMARK    7  A    between atoms: C_14  and  N_15 
REMARK    8  A    between atoms: C_22  and  N_24 
REMARK       I    between atoms: N_24  and  C_25 
REMARK    9  A    between atoms: C_25  and  C_27 
REMARK   10  A    between atoms: C_27  and  C_28 
REMARK   11  A    between atoms: C_28  and  C_30 
ROOT
HETATM    1  N   UNK N   1      34.810  14.046  10.153  0.00  0.00    -0.356 N 
HETATM    2  C   UNK N   1      35.093  13.236   9.109  0.00  0.00     0.092 A 
HETATM    3  C   UNK N   1      35.986  12.237   9.505  0.00  0.00     0.031 A 
HETATM    4  C   UNK N   1      36.231  12.482  10.836  0.00  0.00    -0.008 A 
HETATM    5  C   UNK N   1      35.505  13.578  11.208  0.00  0.00     0.046 A 
HETATM    6  C   UNK N   1      37.044  11.796  11.733  0.00  0.00     0.016 A 
HETATM    7  C   UNK N   1      37.075  12.250  13.063  0.00  0.00     0.030 A 
HETATM    8  C   UNK N   1      36.325  13.382  13.456  0.00  0.00     0.036 A 
HETATM    9  C   UNK N   1      35.529  14.057  12.508  0.00  0.00     0.060 A 
ENDROOT
BRANCH   1  10
HETATM   10  C   UNK N   1      33.908  15.195  10.035  0.00  0.00     0.131 C 
BRANCH  10  11
HETATM   11  C   UNK N   1      33.731  15.794   8.636  0.00  0.00     0.048 C 
BRANCH  11  12
HETATM   12  C   UNK N   1      33.218  17.249   8.644  0.00  0.00     0.115 C 
BRANCH  12  13
HETATM   13  N   UNK N   1      31.775  17.346   8.333  0.00  0.00    -0.344 N 
HETATM   14  C   UNK N   1      30.774  17.787   9.122  0.00  0.00     0.127 A 
HETATM   15  C   UNK N   1      29.597  17.607   8.413  0.00  0.00     0.117 A 
HETATM   16  N   UNK N   1      29.869  17.071   7.214  0.00  0.00    -0.347 N 
HETATM   17  C   UNK N   1      31.205  16.909   7.189  0.00  0.00     0.183 A 
ATOM     18  HN  UNK N   1      29.205  16.837   6.476  1.00  0.00     0.167 HD
BRANCH  15  19
HETATM   19  C   UNK N   1      28.229  17.891   8.877  0.00  0.00     0.267 C 
HETATM   20  O   UNK N   1      27.658  17.090   9.602  0.00  0.00    -0.266 OA
HETATM   21  N   UNK N   1      27.613  19.038   8.535  0.00  0.00    -0.365 N 
HETATM   22  H   UNK N   1      28.075  19.702   7.974  0.00  0.00     0.159 HD
HETATM   23  H   UNK N   1      26.697  19.213   8.848  0.00  0.00     0.159 HD
ENDBRANCH  15  19
ENDBRANCH  12  13
BRANCH  12  24
HETATM   24  C   UNK N   1      34.078  18.083   7.688  0.00  0.00     0.189 C 
BRANCH  24  25
HETATM   25  O   UNK N   1      34.886  18.986   8.387  0.00  0.00    -0.399 OA
HETATM   26  H   UNK N   1      34.990  19.753   8.971  0.00  0.00     0.209 HD
ENDBRANCH  24  25
ENDBRANCH  12  24
ENDBRANCH  11  12
ENDBRANCH  10  11
ENDBRANCH   1  10
BRANCH   8  27
HETATM   27  N   UNK N   1      36.246  13.697  14.835  0.00  0.00    -0.327 N 
HETATM   28  C   UNK N   1      35.409  13.141  15.746  0.00  0.00     0.222 C 
HETATM   29  O   UNK N   1      35.611  13.360  16.929  0.00  0.00    -0.273 OA
HETATM   30  H   UNK N   1      36.860  14.392  15.165  0.00  0.00     0.169 HD
BRANCH  28  31
HETATM   31  C   UNK N   1      34.225  12.282  15.351  0.00  0.00     0.108 C 
BRANCH  31  32
HETATM   32  C   UNK N   1      34.529  10.787  15.521  0.00  0.00     0.047 C 
BRANCH  32  33
HETATM   33  C   UNK N   1      34.650  10.112  14.194  0.00  0.00    -0.058 A 
HETATM   34  C   UNK N   1      33.834  10.532  13.136  0.00  0.00     0.007 A 
HETATM   35  C   UNK N   1      33.828   9.823  11.933  0.00  0.00     0.001 A 
HETATM   36  C   UNK N   1      34.636   8.692  11.786  0.00  0.00     0.000 A 
HETATM   37  C   UNK N   1      35.459   8.276  12.838  0.00  0.00     0.001 A 
HETATM   38  C   UNK N   1      35.459   8.979  14.046  0.00  0.00     0.007 A 
ENDBRANCH  32  33
ENDBRANCH  31  32
ENDBRANCH  28  31
ENDBRANCH   8  27
TORSDOF 11
ENDMDL
MODEL 2
REMARK VINA RESULT:      -7.3     16.868     21.754
REMARK  11 active torsions:
REMARK  status: ('A' for Active; 'I' for Inactive)
REMARK    1  A    between atoms: C_10  and  N_2 
REMARK    2  A    between atoms: C_6  and  C_7 
REMARK       I    between atoms: C_7  and  N_9 
REMARK    3  A    between atoms: C_10  and  C_11 
REMARK    4  A    between atoms: C_10  and  C_13 
REMARK    5  A    between atoms: C_11  and  O_12 
REMARK    6  A    between atoms: C_13  and  C_14 
REMARK    7  A    between atoms: C_14  and  N_15 
REMARK    8  A    between atoms: C_22  and  N_24 
REMARK       I    between atoms: N_24  and  C_25 
REMARK    9  A    between atoms: C_25  and  C_27 
REMARK   10  A    between atoms: C_27  and  C_28 
REMARK   11  A    between atoms: C_28  and  C_30 
ROOT
HETATM    1  N   UNK N   1      27.308  24.380  -4.825  0.00  0.00    -0.356 N 
HETATM    2  C   UNK N   1      26.915  23.716  -5.936  0.00  0.00     0.092 A 
HETATM    3  C   UNK N   1      25.934  24.448  -6.610  0.00  0.00     0.031 A 
HETATM    4  C   UNK N   1      25.752  25.584  -5.856  0.00  0.00    -0.008 A 
HETATM    5  C   UNK N   1      26.596  25.523  -4.784  0.00  0.00     0.046 A 
HETATM    6  C   UNK N   1      24.896  26.662  -6.062  0.00  0.00     0.016 A 
HETATM    7  C   UNK N   1      24.949  27.720  -5.139  0.00  0.00     0.030 A 
HETATM    8  C   UNK N   1      25.821  27.666  -4.028  0.00  0.00     0.036 A 
HETATM    9  C   UNK N   1      26.657  26.545  -3.849  0.00  0.00     0.060 A 
ENDROOT
BRANCH   1  10
HETATM   10  C   UNK N   1      28.320  23.849  -3.908  0.00  0.00     0.131 C 
BRANCH  10  11
HETATM   11  C   UNK N   1      29.301  22.820  -4.481  0.00  0.00     0.048 C 
BRANCH  11  12
HETATM   12  C   UNK N   1      30.770  23.081  -4.094  0.00  0.00     0.115 C 
BRANCH  12  13
HETATM   13  N   UNK N   1      31.581  21.843  -4.068  0.00  0.00    -0.344 N 
HETATM   14  C   UNK N   1      32.923  21.720  -4.011  0.00  0.00     0.127 A 
HETATM   15  C   UNK N   1      33.203  20.365  -4.091  0.00  0.00     0.117 A 
HETATM   16  N   UNK N   1      32.059  19.672  -4.192  0.00  0.00    -0.347 N 
HETATM   17  C   UNK N   1      31.080  20.595  -4.186  0.00  0.00     0.183 A 
ATOM     18  HN  UNK N   1      31.954  18.659  -4.257  1.00  0.00     0.167 HD
BRANCH  15  19
HETATM   19  C   UNK N   1      34.533  19.735  -4.123  0.00  0.00     0.267 C 
HETATM   20  O   UNK N   1      34.626  18.516  -4.090  0.00  0.00    -0.266 OA
HETATM   21  N   UNK N   1      35.646  20.486  -4.218  0.00  0.00    -0.365 N 
HETATM   22  H   UNK N   1      35.581  21.467  -4.273  0.00  0.00     0.159 HD
HETATM   23  H   UNK N   1      36.529  20.052  -4.233  0.00  0.00     0.159 HD
ENDBRANCH  15  19
ENDBRANCH  12  13
BRANCH  12  24
HETATM   24  C   UNK N   1      30.805  23.829  -2.756  0.00  0.00     0.189 C 
BRANCH  24  25
HETATM   25  O   UNK N   1      30.689  22.947  -1.677  0.00  0.00    -0.399 OA
HETATM   26  H   UNK N   1      30.235  22.643  -0.876  0.00  0.00     0.209 HD
ENDBRANCH  24  25
ENDBRANCH  12  24
ENDBRANCH  11  12
ENDBRANCH  10  11
ENDBRANCH   1  10
BRANCH   8  27
HETATM   27  N   UNK N   1      25.969  28.825  -3.226  0.00  0.00    -0.327 N 
HETATM   28  C   UNK N   1      26.995  29.711  -3.265  0.00  0.00     0.222 C 
HETATM   29  O   UNK N   1      26.871  30.768  -2.668  0.00  0.00    -0.273 OA
HETATM   30  H   UNK N   1      25.255  29.003  -2.572  0.00  0.00     0.169 HD
BRANCH  28  31
HETATM   31  C   UNK N   1      28.291  29.430  -3.996  0.00  0.00     0.108 C 
BRANCH  31  32
HETATM   32  C   UNK N   1      28.168  29.725  -5.499  0.00  0.00     0.047 C 
BRANCH  32  33
HETATM   33  C   UNK N   1      28.574  28.538  -6.310  0.00  0.00    -0.058 A 
HETATM   34  C   UNK N   1      27.892  28.258  -7.500  0.00  0.00     0.007 A 
HETATM   35  C   UNK N   1      28.157  27.076  -8.197  0.00  0.00     0.001 A 
HETATM   36  C   UNK N   1      29.104  26.173  -7.704  0.00  0.00     0.000 A 
HETATM   37  C   UNK N   1      29.793  26.456  -6.520  0.00  0.00     0.001 A 
HETATM   38  C   UNK N   1      29.522  27.633  -5.817  0.00  0.00     0.007 A 
ENDBRANCH  32  33
ENDBRANCH  31  32
ENDBRANCH  28  31
ENDBRANCH   8  27
TORSDOF 11
ENDMDL
MODEL 3
REMARK VINA RESULT:      -7.2      6.199     12.594
REMARK  11 active torsions:
REMARK  status: ('A' for Active; 'I' for Inactive)
REMARK    1  A    between atoms: C_10  and  N_2 
REMARK    2  A    between atoms: C_6  and  C_7 
REMARK       I    between atoms: C_7  and  N_9 
REMARK    3  A    between atoms: C_10  and  C_11 
REMARK    4  A    between atoms: C_10  and  C_13 
REMARK    5  A    between atoms: C_11  and  O_12 
REMARK    6  A    between atoms: C_13  and  C_14 
REMARK    7  A    between atoms: C_14  and  N_15 
REMARK    8  A    between atoms: C_22  and  N_24 
REMARK       I    between atoms: N_24  and  C_25 
REMARK    9  A    between atoms: C_25  and  C_27 
REMARK   10  A    between atoms: C_27  and  C_28 
REMARK   11  A    between atoms: C_28  and  C_30 
ROOT
HETATM    1  N   UNK N   1      29.035  17.633   6.145  0.00  0.00    -0.356 N 
HETATM    2  C   UNK N   1      29.206  17.685   7.485  0.00  0.00     0.092 A 
HETATM    3  C   UNK N   1      28.536  18.792   8.011  0.00  0.00     0.031 A 
HETATM    4  C   UNK N   1      27.953  19.407   6.927  0.00  0.00    -0.008 A 
HETATM    5  C   UNK N   1      28.266  18.686   5.810  0.00  0.00     0.046 A 
HETATM    6  C   UNK N   1      27.165  20.552   6.871  0.00  0.00     0.016 A 
HETATM    7  C   UNK N   1      26.663  20.936   5.615  0.00  0.00     0.030 A 
HETATM    8  C   UNK N   1      26.979  20.194   4.455  0.00  0.00     0.036 A 
HETATM    9  C   UNK N   1      27.798  19.050   4.557  0.00  0.00     0.060 A 
ENDROOT
BRANCH   1  10
HETATM   10  C   UNK N   1      29.636  16.584   5.316  0.00  0.00     0.131 C 
BRANCH  10  11
HETATM   11  C   UNK N   1      30.837  16.986   4.454  0.00  0.00     0.048 C 
BRANCH  11  12
HETATM   12  C   UNK N   1      32.096  16.132   4.706  0.00  0.00     0.115 C 
BRANCH  12  13
HETATM   13  N   UNK N   1      32.680  16.361   6.046  0.00  0.00    -0.344 N 
HETATM   14  C   UNK N   1      33.418  17.406   6.474  0.00  0.00     0.127 A 
HETATM   15  C   UNK N   1      33.797  17.122   7.776  0.00  0.00     0.117 A 
HETATM   16  N   UNK N   1      33.301  15.930   8.141  0.00  0.00    -0.347 N 
HETATM   17  C   UNK N   1      32.631  15.477   7.066  0.00  0.00     0.183 A 
ATOM     18  HN  UNK N   1      33.409  15.466   9.043  1.00  0.00     0.167 HD
BRANCH  15  19
HETATM   19  C   UNK N   1      34.657  17.938   8.647  0.00  0.00     0.267 C 
HETATM   20  O   UNK N   1      34.966  19.071   8.304  0.00  0.00    -0.266 OA
HETATM   21  N   UNK N   1      35.082  17.462   9.833  0.00  0.00    -0.365 N 
HETATM   22  H   UNK N   1      34.816  16.562  10.131  0.00  0.00     0.159 HD
HETATM   23  H   UNK N   1      35.660  18.017  10.404  0.00  0.00     0.159 HD
ENDBRANCH  15  19
ENDBRANCH  12  13
BRANCH  12  24
HETATM   24  C   UNK N   1      33.103  16.389   3.579  0.00  0.00     0.189 C 
BRANCH  24  25
HETATM   25  O   UNK N   1      32.478  16.932   2.453  0.00  0.00    -0.399 OA
HETATM   26  H   UNK N   1      32.506  17.460   1.640  0.00  0.00     0.209 HD
ENDBRANCH  24  25
ENDBRANCH  12  24
ENDBRANCH  11  12
ENDBRANCH  10  11
ENDBRANCH   1  10
BRANCH   8  27
HETATM   27  N   UNK N   1      26.313  20.510   3.245  0.00  0.00    -0.327 N 
HETATM   28  C   UNK N   1      25.014  20.259   2.947  0.00  0.00     0.222 C 
HETATM   29  O   UNK N   1      24.534  20.784   1.956  0.00  0.00    -0.273 OA
HETATM   30  H   UNK N   1      26.848  20.957   2.550  0.00  0.00     0.169 HD
BRANCH  28  31
HETATM   31  C   UNK N   1      24.148  19.335   3.778  0.00  0.00     0.108 C 
BRANCH  31  32
HETATM   32  C   UNK N   1      22.655  19.549   3.492  0.00  0.00     0.047 C 
BRANCH  32  33
HETATM   33  C   UNK N   1      21.834  18.451   4.086  0.00  0.00    -0.058 A 
HETATM   34  C   UNK N   1      20.849  17.834   3.306  0.00  0.00     0.007 A 
HETATM   35  C   UNK N   1      19.977  16.908   3.884  0.00  0.00     0.001 A 
HETATM   36  C   UNK N   1      20.088  16.599   5.243  0.00  0.00     0.000 A 
HETATM   37  C   UNK N   1      21.078  17.208   6.022  0.00  0.00     0.001 A 
HETATM   38  C   UNK N   1      21.945  18.141   5.447  0.00  0.00     0.007 A 
ENDBRANCH  32  33
ENDBRANCH  31  32
ENDBRANCH  28  31
ENDBRANCH   8  27
TORSDOF 11
ENDMDL
MODEL 4
REMARK VINA RESULT:      -7.1      5.054     11.441
REMARK  11 active torsions:
REMARK  status: ('A' for Active; 'I' for Inactive)
REMARK    1  A    between atoms: C_10  and  N_2 
REMARK    2  A    between atoms: C_6  and  C_7 
REMARK       I    between atoms: C_7  and  N_9 
REMARK    3  A    between atoms: C_10  and  C_11 
REMARK    4  A    between atoms: C_10  and  C_13 
REMARK    5  A    between atoms: C_11  and  O_12 
REMARK    6  A    between atoms: C_13  and  C_14 
REMARK    7  A    between atoms: C_14  and  N_15 
REMARK    8  A    between atoms: C_22  and  N_24 
REMARK       I    between atoms: N_24  and  C_25 
REMARK    9  A    between atoms: C_25  and  C_27 
REMARK   10  A    between atoms: C_27  and  C_28 
REMARK   11  A    between atoms: C_28  and  C_30 
ROOT
HETATM    1  N   UNK N   1      29.489  17.717   6.376  0.00  0.00    -0.356 N 
HETATM    2  C   UNK N   1      29.523  17.691   7.727  0.00  0.00     0.092 A 
HETATM    3  C   UNK N   1      28.649  18.648   8.247  0.00  0.00     0.031 A 
HETATM    4  C   UNK N   1      28.086  19.255   7.148  0.00  0.00    -0.008 A 
HETATM    5  C   UNK N   1      28.607  18.673   6.027  0.00  0.00     0.046 A 
HETATM    6  C   UNK N   1      27.144  20.277   7.080  0.00  0.00     0.016 A 
HETATM    7  C   UNK N   1      26.712  20.680   5.804  0.00  0.00     0.030 A 
HETATM    8  C   UNK N   1      27.244  20.081   4.640  0.00  0.00     0.036 A 
HETATM    9  C   UNK N   1      28.210  19.060   4.757  0.00  0.00     0.060 A 
ENDROOT
BRANCH   1  10
HETATM   10  C   UNK N   1      30.315  16.830   5.552  0.00  0.00     0.131 C 
BRANCH  10  11
HETATM   11  C   UNK N   1      30.794  15.528   6.203  0.00  0.00     0.048 C 
BRANCH  11  12
HETATM   12  C   UNK N   1      32.329  15.399   6.274  0.00  0.00     0.115 C 
BRANCH  12  13
HETATM   13  N   UNK N   1      32.861  15.662   7.629  0.00  0.00    -0.344 N 
HETATM   14  C   UNK N   1      34.049  16.201   7.975  0.00  0.00     0.127 A 
HETATM   15  C   UNK N   1      34.116  16.166   9.358  0.00  0.00     0.117 A 
HETATM   16  N   UNK N   1      32.993  15.622   9.852  0.00  0.00    -0.347 N 
HETATM   17  C   UNK N   1      32.245  15.311   8.778  0.00  0.00     0.183 A 
ATOM     18  HN  UNK N   1      32.757  15.476  10.833  1.00  0.00     0.167 HD
BRANCH  15  19
HETATM   19  C   UNK N   1      35.243  16.594  10.203  0.00  0.00     0.267 C 
HETATM   20  O   UNK N   1      35.583  17.769  10.208  0.00  0.00    -0.266 OA
HETATM   21  N   UNK N   1      35.882  15.711  10.993  0.00  0.00    -0.365 N 
HETATM   22  H   UNK N   1      35.598  14.769  11.016  0.00  0.00     0.159 HD
HETATM   23  H   UNK N   1      36.638  16.010  11.549  0.00  0.00     0.159 HD
ENDBRANCH  15  19
ENDBRANCH  12  13
BRANCH  12  24
HETATM   24  C   UNK N   1      32.954  16.314   5.214  0.00  0.00     0.189 C 
BRANCH  24  25
HETATM   25  O   UNK N   1      33.396  15.582   4.107  0.00  0.00    -0.399 OA
HETATM   26  H   UNK N   1      33.633  14.741   3.688  0.00  0.00     0.209 HD
ENDBRANCH  24  25
ENDBRANCH  12  24
ENDBRANCH  11  12
ENDBRANCH  10  11
ENDBRANCH   1  10
BRANCH   8  27
HETATM   27  N   UNK N   1      26.655  20.390   3.389  0.00  0.00    -0.327 N 
HETATM   28  C   UNK N   1      25.345  20.271   3.059  0.00  0.00     0.222 C 
HETATM   29  O   UNK N   1      24.960  20.781   2.019  0.00  0.00    -0.273 OA
HETATM   30  H   UNK N   1      27.260  20.725   2.688  0.00  0.00     0.169 HD
BRANCH  28  31
HETATM   31  C   UNK N   1      24.353  19.512   3.914  0.00  0.00     0.108 C 
BRANCH  31  32
HETATM   32  C   UNK N   1      24.086  18.105   3.358  0.00  0.00     0.047 C 
BRANCH  32  33
HETATM   33  C   UNK N   1      25.041  17.112   3.936  0.00  0.00    -0.058 A 
HETATM   34  C   UNK N   1      25.060  16.907   5.320  0.00  0.00     0.007 A 
HETATM   35  C   UNK N   1      26.040  16.093   5.894  0.00  0.00     0.001 A 
HETATM   36  C   UNK N   1      27.004  15.486   5.084  0.00  0.00     0.000 A 
HETATM   37  C   UNK N   1      26.982  15.683   3.699  0.00  0.00     0.001 A 
HETATM   38  C   UNK N   1      26.007  16.504   3.125  0.00  0.00     0.007 A 
ENDBRANCH  32  33
ENDBRANCH  31  32
ENDBRANCH  28  31
ENDBRANCH   8  27
TORSDOF 11
ENDMDL
MODEL 5
REMARK VINA RESULT:      -7.1     17.438     22.055
REMARK  11 active torsions:
REMARK  status: ('A' for Active; 'I' for Inactive)
REMARK    1  A    between atoms: C_10  and  N_2 
REMARK    2  A    between atoms: C_6  and  C_7 
REMARK       I    between atoms: C_7  and  N_9 
REMARK    3  A    between atoms: C_10  and  C_11 
REMARK    4  A    between atoms: C_10  and  C_13 
REMARK    5  A    between atoms: C_11  and  O_12 
REMARK    6  A    between atoms: C_13  and  C_14 
REMARK    7  A    between atoms: C_14  and  N_15 
REMARK    8  A    between atoms: C_22  and  N_24 
REMARK       I    between atoms: N_24  and  C_25 
REMARK    9  A    between atoms: C_25  and  C_27 
REMARK   10  A    between atoms: C_27  and  C_28 
REMARK   11  A    between atoms: C_28  and  C_30 
ROOT
HETATM    1  N   UNK N   1      27.557  24.396  -4.651  0.00  0.00    -0.356 N 
HETATM    2  C   UNK N   1      27.053  23.697  -5.693  0.00  0.00     0.092 A 
HETATM    3  C   UNK N   1      25.993  24.397  -6.272  0.00  0.00     0.031 A 
HETATM    4  C   UNK N   1      25.878  25.552  -5.532  0.00  0.00    -0.008 A 
HETATM    5  C   UNK N   1      26.837  25.531  -4.560  0.00  0.00     0.046 A 
HETATM    6  C   UNK N   1      24.989  26.613  -5.670  0.00  0.00     0.016 A 
HETATM    7  C   UNK N   1      25.127  27.697  -4.786  0.00  0.00     0.030 A 
HETATM    8  C   UNK N   1      26.118  27.684  -3.778  0.00  0.00     0.036 A 
HETATM    9  C   UNK N   1      26.986  26.578  -3.665  0.00  0.00     0.060 A 
ENDROOT
BRANCH   1  10
HETATM   10  C   UNK N   1      28.673  23.902  -3.839  0.00  0.00     0.131 C 
BRANCH  10  11
HETATM   11  C   UNK N   1      30.075  24.021  -4.445  0.00  0.00     0.048 C 
BRANCH  11  12
HETATM   12  C   UNK N   1      30.958  22.779  -4.214  0.00  0.00     0.115 C 
BRANCH  12  13
HETATM   13  N   UNK N   1      30.870  21.802  -5.322  0.00  0.00    -0.344 N 
HETATM   14  C   UNK N   1      29.779  21.415  -6.014  0.00  0.00     0.127 A 
HETATM   15  C   UNK N   1      30.193  20.426  -6.892  0.00  0.00     0.117 A 
HETATM   16  N   UNK N   1      31.509  20.212  -6.744  0.00  0.00    -0.347 N 
HETATM   17  C   UNK N   1      31.901  21.056  -5.773  0.00  0.00     0.183 A 
ATOM     18  HN  UNK N   1      32.090  19.551  -7.260  1.00  0.00     0.167 HD
BRANCH  15  19
HETATM   19  C   UNK N   1      29.351  19.656  -7.823  0.00  0.00     0.267 C 
HETATM   20  O   UNK N   1      28.816  20.224  -8.764  0.00  0.00    -0.266 OA
HETATM   21  N   UNK N   1      29.190  18.329  -7.665  0.00  0.00    -0.365 N 
HETATM   22  H   UNK N   1      29.638  17.859  -6.926  0.00  0.00     0.159 HD
HETATM   23  H   UNK N   1      28.620  17.828  -8.291  0.00  0.00     0.159 HD
ENDBRANCH  15  19
ENDBRANCH  12  13
BRANCH  12  24
HETATM   24  C   UNK N   1      30.596  22.158  -2.859  0.00  0.00     0.189 C 
BRANCH  24  25
HETATM   25  O   UNK N   1      31.731  21.674  -2.202  0.00  0.00    -0.399 OA
HETATM   26  H   UNK N   1      32.217  21.471  -1.388  0.00  0.00     0.209 HD
ENDBRANCH  24  25
ENDBRANCH  12  24
ENDBRANCH  11  12
ENDBRANCH  10  11
ENDBRANCH   1  10
BRANCH   8  27
HETATM   27  N   UNK N   1      26.337  28.866  -3.028  0.00  0.00    -0.327 N 
HETATM   28  C   UNK N   1      26.773  30.058  -3.504  0.00  0.00     0.222 C 
HETATM   29  O   UNK N   1      26.702  31.034  -2.775  0.00  0.00    -0.273 OA
HETATM   30  H   UNK N   1      26.155  28.814  -2.061  0.00  0.00     0.169 HD
BRANCH  28  31
HETATM   31  C   UNK N   1      27.365  30.219  -4.888  0.00  0.00     0.108 C 
BRANCH  31  32
HETATM   32  C   UNK N   1      28.776  29.619  -4.974  0.00  0.00     0.047 C 
BRANCH  32  33
HETATM   33  C   UNK N   1      28.845  28.568  -6.034  0.00  0.00    -0.058 A 
HETATM   34  C   UNK N   1      27.895  28.570  -7.062  0.00  0.00     0.007 A 
HETATM   35  C   UNK N   1      27.855  27.517  -7.979  0.00  0.00     0.001 A 
HETATM   36  C   UNK N   1      28.763  26.459  -7.868  0.00  0.00     0.000 A 
HETATM   37  C   UNK N   1      29.718  26.460  -6.846  0.00  0.00     0.001 A 
HETATM   38  C   UNK N   1      29.754  27.509  -5.923  0.00  0.00     0.007 A 
ENDBRANCH  32  33
ENDBRANCH  31  32
ENDBRANCH  28  31
ENDBRANCH   8  27
TORSDOF 11
ENDMDL
MODEL 6
REMARK VINA RESULT:      -7.0      2.044      2.547
REMARK  11 active torsions:
REMARK  status: ('A' for Active; 'I' for Inactive)
REMARK    1  A    between atoms: C_10  and  N_2 
REMARK    2  A    between atoms: C_6  and  C_7 
REMARK       I    between atoms: C_7  and  N_9 
REMARK    3  A    between atoms: C_10  and  C_11 
REMARK    4  A    between atoms: C_10  and  C_13 
REMARK    5  A    between atoms: C_11  and  O_12 
REMARK    6  A    between atoms: C_13  and  C_14 
REMARK    7  A    between atoms: C_14  and  N_15 
REMARK    8  A    between atoms: C_22  and  N_24 
REMARK       I    between atoms: N_24  and  C_25 
REMARK    9  A    between atoms: C_25  and  C_27 
REMARK   10  A    between atoms: C_27  and  C_28 
REMARK   11  A    between atoms: C_28  and  C_30 
ROOT
HETATM    1  N   UNK N   1      35.383  13.664  11.180  0.00  0.00    -0.356 N 
HETATM    2  C   UNK N   1      36.114  13.004  10.253  0.00  0.00     0.092 A 
HETATM    3  C   UNK N   1      37.095  12.231  10.879  0.00  0.00     0.031 A 
HETATM    4  C   UNK N   1      36.924  12.455  12.226  0.00  0.00    -0.008 A 
HETATM    5  C   UNK N   1      35.880  13.322  12.384  0.00  0.00     0.046 A 
HETATM    6  C   UNK N   1      37.626  11.938  13.310  0.00  0.00     0.016 A 
HETATM    7  C   UNK N   1      37.204  12.313  14.597  0.00  0.00     0.030 A 
HETATM    8  C   UNK N   1      36.123  13.208  14.770  0.00  0.00     0.036 A 
HETATM    9  C   UNK N   1      35.453  13.721  13.640  0.00  0.00     0.060 A 
ENDROOT
BRANCH   1  10
HETATM   10  C   UNK N   1      34.285  14.566  10.818  0.00  0.00     0.131 C 
BRANCH  10  11
HETATM   11  C   UNK N   1      34.191  14.987   9.348  0.00  0.00     0.048 C 
BRANCH  11  12
HETATM   12  C   UNK N   1      33.707  16.437   9.147  0.00  0.00     0.115 C 
BRANCH  12  13
HETATM   13  N   UNK N   1      32.788  16.577   7.996  0.00  0.00    -0.344 N 
HETATM   14  C   UNK N   1      33.070  16.986   6.742  0.00  0.00     0.127 A 
HETATM   15  C   UNK N   1      31.867  17.026   6.055  0.00  0.00     0.117 A 
HETATM   16  N   UNK N   1      30.869  16.647   6.868  0.00  0.00    -0.347 N 
HETATM   17  C   UNK N   1      31.452  16.387   8.052  0.00  0.00     0.183 A 
ATOM     18  HN  UNK N   1      29.879  16.570   6.637  1.00  0.00     0.167 HD
BRANCH  15  19
HETATM   19  C   UNK N   1      31.653  17.463   4.666  0.00  0.00     0.267 C 
HETATM   20  O   UNK N   1      32.614  17.626   3.928  0.00  0.00    -0.266 OA
HETATM   21  N   UNK N   1      30.408  17.655   4.192  0.00  0.00    -0.365 N 
HETATM   22  H   UNK N   1      29.627  17.500   4.770  0.00  0.00     0.159 HD
HETATM   23  H   UNK N   1      30.279  17.952   3.262  0.00  0.00     0.159 HD
ENDBRANCH  15  19
ENDBRANCH  12  13
BRANCH  12  24
HETATM   24  C   UNK N   1      34.929  17.356   9.034  0.00  0.00     0.189 C 
BRANCH  24  25
HETATM   25  O   UNK N   1      35.478  17.629  10.290  0.00  0.00    -0.399 OA
HETATM   26  H   UNK N   1      35.419  17.633  11.258  0.00  0.00     0.209 HD
ENDBRANCH  24  25
ENDBRANCH  12  24
ENDBRANCH  11  12
ENDBRANCH  10  11
ENDBRANCH   1  10
BRANCH   8  27
HETATM   27  N   UNK N   1      35.620  13.418  16.077  0.00  0.00    -0.327 N 
HETATM   28  C   UNK N   1      35.553  12.504  17.077  0.00  0.00     0.222 C 
HETATM   29  O   UNK N   1      35.299  12.895  18.204  0.00  0.00    -0.273 OA
HETATM   30  H   UNK N   1      35.282  14.321  16.280  0.00  0.00     0.169 HD
BRANCH  28  31
HETATM   31  C   UNK N   1      35.757  11.022  16.843  0.00  0.00     0.108 C 
BRANCH  31  32
HETATM   32  C   UNK N   1      34.457  10.334  16.400  0.00  0.00     0.047 C 
BRANCH  32  33
HETATM   33  C   UNK N   1      34.529   9.933  14.962  0.00  0.00    -0.058 A 
HETATM   34  C   UNK N   1      35.522   9.036  14.552  0.00  0.00     0.007 A 
HETATM   35  C   UNK N   1      35.698   8.761  13.194  0.00  0.00     0.001 A 
HETATM   36  C   UNK N   1      34.881   9.383  12.244  0.00  0.00     0.000 A 
HETATM   37  C   UNK N   1      33.882  10.273  12.654  0.00  0.00     0.001 A 
HETATM   38  C   UNK N   1      33.712  10.556  14.011  0.00  0.00     0.007 A 
ENDBRANCH  32  33
ENDBRANCH  31  32
ENDBRANCH  28  31
ENDBRANCH   8  27
TORSDOF 11
ENDMDL
MODEL 7
REMARK VINA RESULT:      -7.0     17.923     22.106
REMARK  11 active torsions:
REMARK  status: ('A' for Active; 'I' for Inactive)
REMARK    1  A    between atoms: C_10  and  N_2 
REMARK    2  A    between atoms: C_6  and  C_7 
REMARK       I    between atoms: C_7  and  N_9 
REMARK    3  A    between atoms: C_10  and  C_11 
REMARK    4  A    between atoms: C_10  and  C_13 
REMARK    5  A    between atoms: C_11  and  O_12 
REMARK    6  A    between atoms: C_13  and  C_14 
REMARK    7  A    between atoms: C_14  and  N_15 
REMARK    8  A    between atoms: C_22  and  N_24 
REMARK       I    between atoms: N_24  and  C_25 
REMARK    9  A    between atoms: C_25  and  C_27 
REMARK   10  A    between atoms: C_27  and  C_28 
REMARK   11  A    between atoms: C_28  and  C_30 
ROOT
HETATM    1  N   UNK N   1      29.806  27.035  -4.389  0.00  0.00    -0.356 N 
HETATM    2  C   UNK N   1      29.693  28.308  -3.948  0.00  0.00     0.092 A 
HETATM    3  C   UNK N   1      29.060  29.095  -4.914  0.00  0.00     0.031 A 
HETATM    4  C   UNK N   1      28.797  28.240  -5.958  0.00  0.00    -0.008 A 
HETATM    5  C   UNK N   1      29.253  26.998  -5.617  0.00  0.00     0.046 A 
HETATM    6  C   UNK N   1      28.178  28.489  -7.179  0.00  0.00     0.016 A 
HETATM    7  C   UNK N   1      28.002  27.403  -8.054  0.00  0.00     0.030 A 
HETATM    8  C   UNK N   1      28.470  26.115  -7.708  0.00  0.00     0.036 A 
HETATM    9  C   UNK N   1      29.108  25.913  -6.467  0.00  0.00     0.060 A 
ENDROOT
BRANCH   1  10
HETATM   10  C   UNK N   1      30.443  25.981  -3.594  0.00  0.00     0.131 C 
BRANCH  10  11
HETATM   11  C   UNK N   1      31.189  24.887  -4.365  0.00  0.00     0.048 C 
BRANCH  11  12
HETATM   12  C   UNK N   1      31.044  23.483  -3.746  0.00  0.00     0.115 C 
BRANCH  12  13
HETATM   13  N   UNK N   1      30.754  22.442  -4.757  0.00  0.00    -0.344 N 
HETATM   14  C   UNK N   1      29.843  22.468  -5.752  0.00  0.00     0.127 A 
HETATM   15  C   UNK N   1      29.896  21.231  -6.375  0.00  0.00     0.117 A 
HETATM   16  N   UNK N   1      30.820  20.463  -5.778  0.00  0.00    -0.347 N 
HETATM   17  C   UNK N   1      31.325  21.218  -4.785  0.00  0.00     0.183 A 
ATOM     18  HN  UNK N   1      31.085  19.510  -6.025  1.00  0.00     0.167 HD
BRANCH  15  19
HETATM   19  C   UNK N   1      29.053  20.761  -7.486  0.00  0.00     0.267 C 
HETATM   20  O   UNK N   1      29.397  19.783  -8.135  0.00  0.00    -0.266 OA
HETATM   21  N   UNK N   1      27.892  21.378  -7.775  0.00  0.00    -0.365 N 
HETATM   22  H   UNK N   1      27.593  22.149  -7.241  0.00  0.00     0.159 HD
HETATM   23  H   UNK N   1      27.341  21.056  -8.524  0.00  0.00     0.159 HD
ENDBRANCH  15  19
ENDBRANCH  12  13
BRANCH  12  24
HETATM   24  C   UNK N   1      29.982  23.535  -2.642  0.00  0.00     0.189 C 
BRANCH  24  25
HETATM   25  O   UNK N   1      30.474  23.022  -1.438  0.00  0.00    -0.399 OA
HETATM   26  H   UNK N   1      31.193  22.907  -0.797  0.00  0.00     0.209 HD
ENDBRANCH  24  25
ENDBRANCH  12  24
ENDBRANCH  11  12
ENDBRANCH  10  11
ENDBRANCH   1  10
BRANCH   8  27
HETATM   27  N   UNK N   1      28.117  25.021  -8.536  0.00  0.00    -0.327 N 
HETATM   28  C   UNK N   1      26.869  24.531  -8.742  0.00  0.00     0.222 C 
HETATM   29  O   UNK N   1      26.703  23.729  -9.647  0.00  0.00    -0.273 OA
HETATM   30  H   UNK N   1      28.853  24.570  -9.009  0.00  0.00     0.169 HD
BRANCH  28  31
HETATM   31  C   UNK N   1      25.686  24.918  -7.880  0.00  0.00     0.108 C 
BRANCH  31  32
HETATM   32  C   UNK N   1      25.800  24.332  -6.465  0.00  0.00     0.047 C 
BRANCH  32  33
HETATM   33  C   UNK N   1      25.739  25.411  -5.433  0.00  0.00    -0.058 A 
HETATM   34  C   UNK N   1      25.178  26.648  -5.770  0.00  0.00     0.007 A 
HETATM   35  C   UNK N   1      25.241  27.714  -4.870  0.00  0.00     0.001 A 
HETATM   36  C   UNK N   1      25.867  27.544  -3.631  0.00  0.00     0.000 A 
HETATM   37  C   UNK N   1      26.421  26.306  -3.289  0.00  0.00     0.001 A 
HETATM   38  C   UNK N   1      26.366  25.242  -4.193  0.00  0.00     0.007 A 
ENDBRANCH  32  33
ENDBRANCH  31  32
ENDBRANCH  28  31
ENDBRANCH   8  27
TORSDOF 11
ENDMDL
MODEL 8
REMARK VINA RESULT:      -6.9     16.840     21.615
REMARK  11 active torsions:
REMARK  status: ('A' for Active; 'I' for Inactive)
REMARK    1  A    between atoms: C_10  and  N_2 
REMARK    2  A    between atoms: C_6  and  C_7 
REMARK       I    between atoms: C_7  and  N_9 
REMARK    3  A    between atoms: C_10  and  C_11 
REMARK    4  A    between atoms: C_10  and  C_13 
REMARK    5  A    between atoms: C_11  and  O_12 
REMARK    6  A    between atoms: C_13  and  C_14 
REMARK    7  A    between atoms: C_14  and  N_15 
REMARK    8  A    between atoms: C_22  and  N_24 
REMARK       I    between atoms: N_24  and  C_25 
REMARK    9  A    between atoms: C_25  and  C_27 
REMARK   10  A    between atoms: C_27  and  C_28 
REMARK   11  A    between atoms: C_28  and  C_30 
ROOT
HETATM    1  N   UNK N   1      27.619  23.102  -7.383  0.00  0.00    -0.356 N 
HETATM    2  C   UNK N   1      26.383  22.553  -7.382  0.00  0.00     0.092 A 
HETATM    3  C   UNK N   1      25.711  22.889  -6.205  0.00  0.00     0.031 A 
HETATM    4  C   UNK N   1      26.597  23.665  -5.494  0.00  0.00    -0.008 A 
HETATM    5  C   UNK N   1      27.743  23.783  -6.228  0.00  0.00     0.046 A 
HETATM    6  C   UNK N   1      26.451  24.272  -4.251  0.00  0.00     0.016 A 
HETATM    7  C   UNK N   1      27.520  25.051  -3.776  0.00  0.00     0.030 A 
HETATM    8  C   UNK N   1      28.708  25.180  -4.531  0.00  0.00     0.036 A 
HETATM    9  C   UNK N   1      28.819  24.531  -5.778  0.00  0.00     0.060 A 
ENDROOT
BRANCH   1  10
HETATM   10  C   UNK N   1      28.563  22.910  -8.488  0.00  0.00     0.131 C 
BRANCH  10  11
HETATM   11  C   UNK N   1      29.798  22.048  -8.201  0.00  0.00     0.048 C 
BRANCH  11  12
HETATM   12  C   UNK N   1      29.505  20.823  -7.311  0.00  0.00     0.115 C 
BRANCH  12  13
HETATM   13  N   UNK N   1      30.295  20.825  -6.061  0.00  0.00    -0.344 N 
HETATM   14  C   UNK N   1      30.111  21.572  -4.952  0.00  0.00     0.127 A 
HETATM   15  C   UNK N   1      31.153  21.271  -4.090  0.00  0.00     0.117 A 
HETATM   16  N   UNK N   1      31.958  20.358  -4.655  0.00  0.00    -0.347 N 
HETATM   17  C   UNK N   1      31.422  20.107  -5.862  0.00  0.00     0.183 A 
ATOM     18  HN  UNK N   1      32.798  19.942  -4.252  1.00  0.00     0.167 HD
BRANCH  15  19
HETATM   19  C   UNK N   1      31.415  21.872  -2.772  0.00  0.00     0.267 C 
HETATM   20  O   UNK N   1      32.432  21.573  -2.162  0.00  0.00    -0.266 OA
HETATM   21  N   UNK N   1      30.562  22.770  -2.245  0.00  0.00    -0.365 N 
HETATM   22  H   UNK N   1      29.754  23.037  -2.740  0.00  0.00     0.159 HD
HETATM   23  H   UNK N   1      30.746  23.160  -1.361  0.00  0.00     0.159 HD
ENDBRANCH  15  19
ENDBRANCH  12  13
BRANCH  12  24
HETATM   24  C   UNK N   1      29.723  19.549  -8.136  0.00  0.00     0.189 C 
BRANCH  24  25
HETATM   25  O   UNK N   1      28.978  18.481  -7.627  0.00  0.00    -0.399 OA
HETATM   26  H   UNK N   1      28.523  17.632  -7.745  0.00  0.00     0.209 HD
ENDBRANCH  24  25
ENDBRANCH  12  24
ENDBRANCH  11  12
ENDBRANCH  10  11
ENDBRANCH   1  10
BRANCH   8  27
HETATM   27  N   UNK N   1      29.686  26.112  -4.102  0.00  0.00    -0.327 N 
HETATM   28  C   UNK N   1      30.082  27.230  -4.758  0.00  0.00     0.222 C 
HETATM   29  O   UNK N   1      30.771  28.040  -4.160  0.00  0.00    -0.273 OA
HETATM   30  H   UNK N   1      30.123  25.927  -3.239  0.00  0.00     0.169 HD
BRANCH  28  31
HETATM   31  C   UNK N   1      29.726  27.498  -6.206  0.00  0.00     0.108 C 
BRANCH  31  32
HETATM   32  C   UNK N   1      28.627  28.563  -6.330  0.00  0.00     0.047 C 
BRANCH  32  33
HETATM   33  C   UNK N   1      27.281  27.977  -6.049  0.00  0.00    -0.058 A 
HETATM   34  C   UNK N   1      26.667  27.177  -7.020  0.00  0.00     0.007 A 
HETATM   35  C   UNK N   1      25.353  26.740  -6.837  0.00  0.00     0.001 A 
HETATM   36  C   UNK N   1      24.651  27.103  -5.685  0.00  0.00     0.000 A 
HETATM   37  C   UNK N   1      25.266  27.895  -4.709  0.00  0.00     0.001 A 
HETATM   38  C   UNK N   1      26.577  28.340  -4.895  0.00  0.00     0.007 A 
ENDBRANCH  32  33
ENDBRANCH  31  32
ENDBRANCH  28  31
ENDBRANCH   8  27
TORSDOF 11
ENDMDL
MODEL 9
REMARK VINA RESULT:      -6.8      3.002      5.002
REMARK  11 active torsions:
REMARK  status: ('A' for Active; 'I' for Inactive)
REMARK    1  A    between atoms: C_10  and  N_2 
REMARK    2  A    between atoms: C_6  and  C_7 
REMARK       I    between atoms: C_7  and  N_9 
REMARK    3  A    between atoms: C_10  and  C_11 
REMARK    4  A    between atoms: C_10  and  C_13 
REMARK    5  A    between atoms: C_11  and  O_12 
REMARK    6  A    between atoms: C_13  and  C_14 
REMARK    7  A    between atoms: C_14  and  N_15 
REMARK    8  A    between atoms: C_22  and  N_24 
REMARK       I    between atoms: N_24  and  C_25 
REMARK    9  A    between atoms: C_25  and  C_27 
REMARK   10  A    between atoms: C_27  and  C_28 
REMARK   11  A    between atoms: C_28  and  C_30 
ROOT
HETATM    1  N   UNK N   1      36.232  12.075  11.571  0.00  0.00    -0.356 N 
HETATM    2  C   UNK N   1      35.811  11.152  10.677  0.00  0.00     0.092 A 
HETATM    3  C   UNK N   1      34.813  10.355  11.245  0.00  0.00     0.031 A 
HETATM    4  C   UNK N   1      34.652  10.838  12.523  0.00  0.00    -0.008 A 
HETATM    5  C   UNK N   1      35.518  11.881  12.696  0.00  0.00     0.046 A 
HETATM    6  C   UNK N   1      33.789  10.420  13.531  0.00  0.00     0.016 A 
HETATM    7  C   UNK N   1      33.810  11.131  14.743  0.00  0.00     0.030 A 
HETATM    8  C   UNK N   1      34.701  12.212  14.929  0.00  0.00     0.036 A 
HETATM    9  C   UNK N   1      35.571  12.590  13.886  0.00  0.00     0.060 A 
ENDROOT
BRANCH   1  10
HETATM   10  C   UNK N   1      37.286  13.045  11.261  0.00  0.00     0.131 C 
BRANCH  10  11
HETATM   11  C   UNK N   1      36.859  14.316  10.518  0.00  0.00     0.048 C 
BRANCH  11  12
HETATM   12  C   UNK N   1      35.361  14.348  10.154  0.00  0.00     0.115 C 
BRANCH  12  13
HETATM   13  N   UNK N   1      35.124  14.733   8.745  0.00  0.00    -0.344 N 
HETATM   14  C   UNK N   1      34.689  15.913   8.259  0.00  0.00     0.127 A 
HETATM   15  C   UNK N   1      34.551  15.755   6.889  0.00  0.00     0.117 A 
HETATM   16  N   UNK N   1      34.897  14.506   6.542  0.00  0.00    -0.347 N 
HETATM   17  C   UNK N   1      35.234  13.895   7.692  0.00  0.00     0.183 A 
ATOM     18  HN  UNK N   1      34.904  14.105   5.604  1.00  0.00     0.167 HD
BRANCH  15  19
HETATM   19  C   UNK N   1      34.053  16.751   5.927  0.00  0.00     0.267 C 
HETATM   20  O   UNK N   1      34.226  17.942   6.144  0.00  0.00    -0.266 OA
HETATM   21  N   UNK N   1      33.436  16.362   4.795  0.00  0.00    -0.365 N 
HETATM   22  H   UNK N   1      33.316  15.405   4.598  0.00  0.00     0.159 HD
HETATM   23  H   UNK N   1      33.103  17.039   4.163  0.00  0.00     0.159 HD
ENDBRANCH  15  19
ENDBRANCH  12  13
BRANCH  12  24
HETATM   24  C   UNK N   1      34.632  15.268  11.140  0.00  0.00     0.189 C 
BRANCH  24  25
HETATM   25  O   UNK N   1      33.272  14.954  11.219  0.00  0.00    -0.399 OA
HETATM   26  H   UNK N   1      32.519  14.561  11.687  0.00  0.00     0.209 HD
ENDBRANCH  24  25
ENDBRANCH  12  24
ENDBRANCH  11  12
ENDBRANCH  10  11
ENDBRANCH   1  10
BRANCH   8  27
HETATM   27  N   UNK N   1      34.565  13.009  16.093  0.00  0.00    -0.327 N 
HETATM   28  C   UNK N   1      35.060  12.734  17.325  0.00  0.00     0.222 C 
HETATM   29  O   UNK N   1      35.047  13.618  18.166  0.00  0.00    -0.273 OA
HETATM   30  H   UNK N   1      34.058  13.848  15.997  0.00  0.00     0.169 HD
BRANCH  28  31
HETATM   31  C   UNK N   1      35.602  11.371  17.702  0.00  0.00     0.108 C 
BRANCH  31  32
HETATM   32  C   UNK N   1      35.732  11.215  19.225  0.00  0.00     0.047 C 
BRANCH  32  33
HETATM   33  C   UNK N   1      34.710  10.260  19.752  0.00  0.00    -0.058 A 
HETATM   34  C   UNK N   1      34.146   9.315  18.888  0.00  0.00     0.007 A 
HETATM   35  C   UNK N   1      33.089   8.512  19.322  0.00  0.00     0.001 A 
HETATM   36  C   UNK N   1      32.593   8.655  20.622  0.00  0.00     0.000 A 
HETATM   37  C   UNK N   1      33.162   9.593  21.490  0.00  0.00     0.001 A 
HETATM   38  C   UNK N   1      34.213  10.403  21.054  0.00  0.00     0.007 A 
ENDBRANCH  32  33
ENDBRANCH  31  32
ENDBRANCH  28  31
ENDBRANCH   8  27
TORSDOF 11
ENDMDL
