REMARK  7 active torsions:
REMARK  status: ('A' for Active; 'I' for Inactive)
REMARK       I    between atoms: C_2  and  N_4 
REMARK    1  A    between atoms: N_4  and  C_5 
REMARK    2  A    between atoms: C_8  and  N_11 
REMARK    3  A    between atoms: C_23  and  N_24 
REMARK       I    between atoms: N_24  and  C_25 
REMARK    4  A    between atoms: C_25  and  O_27 
REMARK    5  A    between atoms: O_27  and  C_28 
REMARK    6  A    between atoms: C_28  and  C_29 
REMARK    7  A    between atoms: C_29  and  O_31 
ROOT
HETATM    1  N   UNK N   1       0.473   0.294   0.771  0.00  0.00    -0.252 N 
HETATM    2  C   UNK N   1       0.249   0.451  -0.535  0.00  0.00     0.236 C 
HETATM    3  C   UNK N   1      -1.164   0.343  -0.889  0.00  0.00     0.098 C 
HETATM    4  C   UNK N   1      -1.700  -0.492   0.274  0.00  0.00     0.120 C 
HETATM    5  C   UNK N   1      -0.658  -0.142   1.355  0.00  0.00     0.238 C 
HETATM    6  O   UNK N   1       1.127   0.739  -1.338  0.00  0.00    -0.272 OA
HETATM    7  O   UNK N   1      -0.780  -0.305   2.562  0.00  0.00    -0.272 OA
HETATM    8  C   UNK N   1      -1.900   1.732  -0.823  0.00  0.00    -0.000 C 
HETATM    9  C   UNK N   1      -2.336   2.154   0.639  0.00  0.00     0.008 C 
HETATM   10  C   UNK N   1      -3.286   1.072   1.304  0.00  0.00     0.032 C 
HETATM   11  C   UNK N   1      -3.929   0.301  -0.917  0.00  0.00     0.032 C 
HETATM   12  C   UNK N   1      -3.217   1.511  -1.551  0.00  0.00     0.008 C 
HETATM   13  C   UNK N   1      -3.230  -0.175   0.409  0.00  0.00     0.048 C 
ENDROOT
BRANCH   1  14
HETATM   14  C   UNK N   1       1.743   0.609   1.297  0.00  0.00     0.045 A 
HETATM   15  C   UNK N   1       2.737  -0.375   1.165  0.00  0.00     0.032 A 
HETATM   16  C   UNK N   1       4.060  -0.024   0.873  0.00  0.00     0.032 A 
HETATM   17  C   UNK N   1       4.405   1.316   0.664  0.00  0.00     0.034 A 
HETATM   18  C   UNK N   1       3.434   2.305   0.851  0.00  0.00     0.032 A 
HETATM   19  C   UNK N   1       2.125   1.952   1.148  0.00  0.00     0.032 A 
BRANCH  17  20
HETATM   20  N   UNK N   1       5.691   1.625   0.132  0.00  0.00    -0.328 N 
HETATM   21  C   UNK N   1       6.129   2.866  -0.224  0.00  0.00     0.218 C 
HETATM   22  C   UNK N   1       7.451   3.009  -0.893  0.00  0.00     0.117 C 
HETATM   23  O   UNK N   1       5.451   3.863  -0.027  0.00  0.00    -0.274 OA
HETATM   24  H   UNK N   1       6.319   0.876   0.012  0.00  0.00     0.169 HD
ENDBRANCH  17  20
ENDBRANCH   1  14
BRANCH  13  25
HETATM   25  N   UNK N   1      -3.817  -1.440   0.829  0.00  0.00    -0.327 N 
HETATM   26  C   UNK N   1      -3.757  -2.492  -0.065  0.00  0.00     0.361 C 
HETATM   27  O   UNK N   1      -3.581  -2.274  -1.263  0.00  0.00    -0.238 OA
HETATM   28  H   UNK N   1      -4.238  -1.541   1.713  0.00  0.00     0.165 HD
BRANCH  26  29
HETATM   29  O   UNK N   1      -3.582  -3.753   0.389  0.00  0.00    -0.294 OA
BRANCH  29  30
HETATM   30  C   UNK N   1      -2.888  -4.660  -0.398  0.00  0.00     0.290 C 
BRANCH  30  31
HETATM   31  C   UNK N   1      -1.454  -4.740   0.046  0.00  0.00     0.165 C 
HETATM   32  O   UNK N   1      -0.562  -4.268  -0.645  0.00  0.00    -0.648 OA
BRANCH  31  33
HETATM   33  O   UNK N   1      -1.149  -5.341   1.209  0.00  0.00    -0.775 OA
HETATM   34  H   UNK N   1      -1.405  -5.735   2.020  0.00  0.00     0.167 HD
ENDBRANCH  31  33
ENDBRANCH  30  31
ENDBRANCH  29  30
ENDBRANCH  26  29
ENDBRANCH  13  25
TORSDOF 7
