MODEL 1
REMARK VINA RESULT:      -7.9      0.000      0.000
REMARK  7 active torsions:
REMARK  status: ('A' for Active; 'I' for Inactive)
REMARK       I    between atoms: C_2  and  N_4 
REMARK    1  A    between atoms: N_4  and  C_5 
REMARK    2  A    between atoms: C_8  and  N_11 
REMARK    3  A    between atoms: C_23  and  N_24 
REMARK       I    between atoms: N_24  and  C_25 
REMARK    4  A    between atoms: C_25  and  O_27 
REMARK    5  A    between atoms: O_27  and  C_28 
REMARK    6  A    between atoms: C_28  and  C_29 
REMARK    7  A    between atoms: C_29  and  O_31 
ROOT
HETATM    1  N   UNK N   1      35.178  11.747  12.106  0.00  0.00    -0.252 N 
HETATM    2  C   UNK N   1      35.284  11.186  10.900  0.00  0.00     0.236 C 
HETATM    3  C   UNK N   1      35.406  12.165   9.823  0.00  0.00     0.098 C 
HETATM    4  C   UNK N   1      34.760  13.394  10.463  0.00  0.00     0.120 C 
HETATM    5  C   UNK N   1      34.990  13.071  11.952  0.00  0.00     0.238 C 
HETATM    6  O   UNK N   1      35.357   9.976  10.725  0.00  0.00    -0.272 OA
HETATM    7  O   UNK N   1      34.933  13.861  12.885  0.00  0.00    -0.272 OA
HETATM    8  C   UNK N   1      36.905  12.544   9.532  0.00  0.00    -0.000 C 
HETATM    9  C   UNK N   1      37.495  13.622  10.530  0.00  0.00     0.008 C 
HETATM   10  C   UNK N   1      36.646  14.962  10.516  0.00  0.00     0.032 C 
HETATM   11  C   UNK N   1      35.855  14.414   8.277  0.00  0.00     0.032 C 
HETATM   12  C   UNK N   1      36.873  13.262   8.192  0.00  0.00     0.008 C 
HETATM   13  C   UNK N   1      35.352  14.658   9.747  0.00  0.00     0.048 C 
ENDROOT
BRANCH   1  14
HETATM   14  C   UNK N   1      35.297  10.940  13.256  0.00  0.00     0.045 A 
HETATM   15  C   UNK N   1      36.493  11.059  13.984  0.00  0.00     0.032 A 
HETATM   16  C   UNK N   1      36.488  11.025  15.383  0.00  0.00     0.032 A 
HETATM   17  C   UNK N   1      35.281  10.915  16.082  0.00  0.00     0.034 A 
HETATM   18  C   UNK N   1      34.093  10.737  15.365  0.00  0.00     0.032 A 
HETATM   19  C   UNK N   1      34.104  10.765  13.977  0.00  0.00     0.032 A 
BRANCH  17  20
HETATM   20  N   UNK N   1      35.275  11.126  17.492  0.00  0.00    -0.328 N 
HETATM   21  C   UNK N   1      35.157  12.332  18.116  0.00  0.00     0.218 C 
HETATM   22  C   UNK N   1      35.305  12.406  19.596  0.00  0.00     0.117 C 
HETATM   23  O   UNK N   1      34.954  13.360  17.487  0.00  0.00    -0.274 OA
HETATM   24  H   UNK N   1      35.364  10.331  18.066  0.00  0.00     0.169 HD
ENDBRANCH  17  20
ENDBRANCH   1  14
BRANCH  13  25
HETATM   25  N   UNK N   1      34.243  15.601   9.721  0.00  0.00    -0.327 N 
HETATM   26  C   UNK N   1      34.557  16.947   9.735  0.00  0.00     0.361 C 
HETATM   27  O   UNK N   1      35.659  17.318  10.138  0.00  0.00    -0.238 OA
HETATM   28  H   UNK N   1      33.309  15.293   9.693  0.00  0.00     0.165 HD
BRANCH  26  29
HETATM   29  O   UNK N   1      33.802  17.823   9.037  0.00  0.00    -0.294 OA
BRANCH  29  30
HETATM   30  C   UNK N   1      32.860  17.334   8.143  0.00  0.00     0.290 C 
BRANCH  30  31
HETATM   31  C   UNK N   1      33.306  17.587   6.730  0.00  0.00     0.165 C 
HETATM   32  O   UNK N   1      34.462  17.905   6.491  0.00  0.00    -0.648 OA
BRANCH  31  33
HETATM   33  O   UNK N   1      32.425  17.469   5.722  0.00  0.00    -0.775 OA
HETATM   34  H   UNK N   1      31.916  17.844   5.030  0.00  0.00     0.167 HD
ENDBRANCH  31  33
ENDBRANCH  30  31
ENDBRANCH  29  30
ENDBRANCH  26  29
ENDBRANCH  13  25
TORSDOF 7
ENDMDL
MODEL 2
REMARK VINA RESULT:      -7.7     17.886     21.320
REMARK  7 active torsions:
REMARK  status: ('A' for Active; 'I' for Inactive)
REMARK       I    between atoms: C_2  and  N_4 
REMARK    1  A    between atoms: N_4  and  C_5 
REMARK    2  A    between atoms: C_8  and  N_11 
REMARK    3  A    between atoms: C_23  and  N_24 
REMARK       I    between atoms: N_24  and  C_25 
REMARK    4  A    between atoms: C_25  and  O_27 
REMARK    5  A    between atoms: O_27  and  C_28 
REMARK    6  A    between atoms: C_28  and  C_29 
REMARK    7  A    between atoms: C_29  and  O_31 
ROOT
HETATM    1  N   UNK N   1      28.365  24.532  -3.872  0.00  0.00    -0.252 N 
HETATM    2  C   UNK N   1      27.082  24.564  -3.504  0.00  0.00     0.236 C 
HETATM    3  C   UNK N   1      26.392  25.773  -3.945  0.00  0.00     0.098 C 
HETATM    4  C   UNK N   1      27.562  26.743  -4.107  0.00  0.00     0.120 C 
HETATM    5  C   UNK N   1      28.706  25.740  -4.357  0.00  0.00     0.238 C 
HETATM    6  O   UNK N   1      26.524  23.637  -2.931  0.00  0.00    -0.272 OA
HETATM    7  O   UNK N   1      29.801  25.992  -4.843  0.00  0.00    -0.272 OA
HETATM    8  C   UNK N   1      25.747  25.602  -5.370  0.00  0.00    -0.000 C 
HETATM    9  C   UNK N   1      26.771  25.797  -6.560  0.00  0.00     0.008 C 
HETATM   10  C   UNK N   1      27.464  27.223  -6.512  0.00  0.00     0.032 C 
HETATM   11  C   UNK N   1      25.572  28.077  -5.235  0.00  0.00     0.032 C 
HETATM   12  C   UNK N   1      24.791  26.777  -5.509  0.00  0.00     0.008 C 
HETATM   13  C   UNK N   1      27.123  27.834  -5.144  0.00  0.00     0.048 C 
ENDROOT
BRANCH   1  14
HETATM   14  C   UNK N   1      29.094  23.333  -3.734  0.00  0.00     0.045 A 
HETATM   15  C   UNK N   1      29.508  22.711  -4.923  0.00  0.00     0.032 A 
HETATM   16  C   UNK N   1      30.764  22.099  -5.014  0.00  0.00     0.032 A 
HETATM   17  C   UNK N   1      31.646  22.135  -3.928  0.00  0.00     0.034 A 
HETATM   18  C   UNK N   1      31.218  22.701  -2.723  0.00  0.00     0.032 A 
HETATM   19  C   UNK N   1      29.969  23.300  -2.636  0.00  0.00     0.032 A 
BRANCH  17  20
HETATM   20  N   UNK N   1      32.998  21.725  -4.121  0.00  0.00    -0.328 N 
HETATM   21  C   UNK N   1      33.425  20.442  -4.293  0.00  0.00     0.218 C 
HETATM   22  C   UNK N   1      34.885  20.159  -4.346  0.00  0.00     0.117 C 
HETATM   23  O   UNK N   1      32.636  19.513  -4.382  0.00  0.00    -0.274 OA
HETATM   24  H   UNK N   1      33.684  22.431  -4.132  0.00  0.00     0.169 HD
ENDBRANCH  17  20
ENDBRANCH   1  14
BRANCH  13  25
HETATM   25  N   UNK N   1      27.768  29.051  -4.672  0.00  0.00    -0.327 N 
HETATM   26  C   UNK N   1      27.403  29.516  -3.423  0.00  0.00     0.361 C 
HETATM   27  O   UNK N   1      26.338  29.161  -2.920  0.00  0.00    -0.238 OA
HETATM   28  H   UNK N   1      28.438  29.521  -5.219  0.00  0.00     0.165 HD
BRANCH  26  29
HETATM   29  O   UNK N   1      28.325  30.100  -2.625  0.00  0.00    -0.294 OA
BRANCH  29  30
HETATM   30  C   UNK N   1      27.915  30.660  -1.424  0.00  0.00     0.290 C 
BRANCH  30  31
HETATM   31  C   UNK N   1      28.584  29.963  -0.273  0.00  0.00     0.165 C 
HETATM   32  O   UNK N   1      29.801  29.847  -0.239  0.00  0.00    -0.648 OA
BRANCH  31  33
HETATM   33  O   UNK N   1      27.839  29.457   0.725  0.00  0.00    -0.775 OA
HETATM   34  H   UNK N   1      27.388  28.742   1.130  0.00  0.00     0.167 HD
ENDBRANCH  31  33
ENDBRANCH  30  31
ENDBRANCH  29  30
ENDBRANCH  26  29
ENDBRANCH  13  25
TORSDOF 7
ENDMDL
MODEL 3
REMARK VINA RESULT:      -7.6      2.336      8.201
REMARK  7 active torsions:
REMARK  status: ('A' for Active; 'I' for Inactive)
REMARK       I    between atoms: C_2  and  N_4 
REMARK    1  A    between atoms: N_4  and  C_5 
REMARK    2  A    between atoms: C_8  and  N_11 
REMARK    3  A    between atoms: C_23  and  N_24 
REMARK       I    between atoms: N_24  and  C_25 
REMARK    4  A    between atoms: C_25  and  O_27 
REMARK    5  A    between atoms: O_27  and  C_28 
REMARK    6  A    between atoms: C_28  and  C_29 
REMARK    7  A    between atoms: C_29  and  O_31 
ROOT
HETATM    1  N   UNK N   1      35.331  14.608   9.691  0.00  0.00    -0.252 N 
HETATM    2  C   UNK N   1      36.478  14.058   9.288  0.00  0.00     0.236 C 
HETATM    3  C   UNK N   1      37.110  13.236  10.317  0.00  0.00     0.098 C 
HETATM    4  C   UNK N   1      36.511  13.837  11.588  0.00  0.00     0.120 C 
HETATM    5  C   UNK N   1      35.203  14.419  11.017  0.00  0.00     0.238 C 
HETATM    6  O   UNK N   1      36.911  14.165   8.148  0.00  0.00    -0.272 OA
HETATM    7  O   UNK N   1      34.213  14.748  11.657  0.00  0.00    -0.272 OA
HETATM    8  C   UNK N   1      36.630  11.739  10.257  0.00  0.00    -0.000 C 
HETATM    9  C   UNK N   1      35.236  11.487  10.963  0.00  0.00     0.008 C 
HETATM   10  C   UNK N   1      35.262  11.925  12.487  0.00  0.00     0.032 C 
HETATM   11  C   UNK N   1      37.683  11.645  12.505  0.00  0.00     0.032 C 
HETATM   12  C   UNK N   1      37.623  10.975  11.119  0.00  0.00     0.008 C 
HETATM   13  C   UNK N   1      36.556  12.726  12.694  0.00  0.00     0.048 C 
ENDROOT
BRANCH   1  14
HETATM   14  C   UNK N   1      34.490  15.225   8.742  0.00  0.00     0.045 A 
HETATM   15  C   UNK N   1      33.349  14.502   8.353  0.00  0.00     0.032 A 
HETATM   16  C   UNK N   1      32.129  15.151   8.132  0.00  0.00     0.032 A 
HETATM   17  C   UNK N   1      32.016  16.530   8.338  0.00  0.00     0.034 A 
HETATM   18  C   UNK N   1      33.160  17.264   8.669  0.00  0.00     0.032 A 
HETATM   19  C   UNK N   1      34.369  16.617   8.880  0.00  0.00     0.032 A 
BRANCH  17  20
HETATM   20  N   UNK N   1      30.721  17.125   8.345  0.00  0.00    -0.328 N 
HETATM   21  C   UNK N   1      30.008  17.497   7.244  0.00  0.00     0.218 C 
HETATM   22  C   UNK N   1      28.726  18.231   7.418  0.00  0.00     0.117 C 
HETATM   23  O   UNK N   1      30.410  17.261   6.114  0.00  0.00    -0.274 OA
HETATM   24  H   UNK N   1      30.303  17.280   9.223  0.00  0.00     0.169 HD
ENDBRANCH  17  20
ENDBRANCH   1  14
BRANCH  13  25
HETATM   25  N   UNK N   1      36.805  13.463  13.926  0.00  0.00    -0.327 N 
HETATM   26  C   UNK N   1      35.790  13.488  14.863  0.00  0.00     0.361 C 
HETATM   27  O   UNK N   1      34.632  13.248  14.525  0.00  0.00    -0.238 OA
HETATM   28  H   UNK N   1      37.661  13.923  14.083  0.00  0.00     0.165 HD
BRANCH  26  29
HETATM   29  O   UNK N   1      36.089  13.470  16.181  0.00  0.00    -0.294 OA
BRANCH  29  30
HETATM   30  C   UNK N   1      35.091  13.160  17.092  0.00  0.00     0.290 C 
BRANCH  30  31
HETATM   31  C   UNK N   1      35.286  13.942  18.361  0.00  0.00     0.165 C 
HETATM   32  O   UNK N   1      35.682  15.099  18.323  0.00  0.00    -0.648 OA
BRANCH  31  33
HETATM   33  O   UNK N   1      35.030  13.363  19.547  0.00  0.00    -0.775 OA
HETATM   34  H   UNK N   1      35.291  13.121  20.414  0.00  0.00     0.167 HD
ENDBRANCH  31  33
ENDBRANCH  30  31
ENDBRANCH  29  30
ENDBRANCH  26  29
ENDBRANCH  13  25
TORSDOF 7
ENDMDL
MODEL 4
REMARK VINA RESULT:      -7.6      2.192      2.865
REMARK  7 active torsions:
REMARK  status: ('A' for Active; 'I' for Inactive)
REMARK       I    between atoms: C_2  and  N_4 
REMARK    1  A    between atoms: N_4  and  C_5 
REMARK    2  A    between atoms: C_8  and  N_11 
REMARK    3  A    between atoms: C_23  and  N_24 
REMARK       I    between atoms: N_24  and  C_25 
REMARK    4  A    between atoms: C_25  and  O_27 
REMARK    5  A    between atoms: O_27  and  C_28 
REMARK    6  A    between atoms: C_28  and  C_29 
REMARK    7  A    between atoms: C_29  and  O_31 
ROOT
HETATM    1  N   UNK N   1      35.643  12.361  14.708  0.00  0.00    -0.252 N 
HETATM    2  C   UNK N   1      34.825  11.554  14.030  0.00  0.00     0.236 C 
HETATM    3  C   UNK N   1      34.568  12.014  12.668  0.00  0.00     0.098 C 
HETATM    4  C   UNK N   1      34.851  13.511  12.801  0.00  0.00     0.120 C 
HETATM    5  C   UNK N   1      35.817  13.493  14.002  0.00  0.00     0.238 C 
HETATM    6  O   UNK N   1      34.404  10.494  14.476  0.00  0.00    -0.272 OA
HETATM    7  O   UNK N   1      36.576  14.393  14.337  0.00  0.00    -0.272 OA
HETATM    8  C   UNK N   1      35.617  11.447  11.642  0.00  0.00    -0.000 C 
HETATM    9  C   UNK N   1      36.982  12.249  11.616  0.00  0.00     0.008 C 
HETATM   10  C   UNK N   1      36.756  13.782  11.279  0.00  0.00     0.032 C 
HETATM   11  C   UNK N   1      34.659  13.210  10.176  0.00  0.00     0.032 C 
HETATM   12  C   UNK N   1      35.008  11.713  10.274  0.00  0.00     0.008 C 
HETATM   13  C   UNK N   1      35.245  14.039  11.378  0.00  0.00     0.048 C 
ENDROOT
BRANCH   1  14
HETATM   14  C   UNK N   1      36.174  11.930  15.941  0.00  0.00     0.045 A 
HETATM   15  C   UNK N   1      35.412  12.215  17.086  0.00  0.00     0.032 A 
HETATM   16  C   UNK N   1      35.315  11.290  18.132  0.00  0.00     0.032 A 
HETATM   17  C   UNK N   1      35.944  10.044  18.033  0.00  0.00     0.034 A 
HETATM   18  C   UNK N   1      36.752   9.776  16.923  0.00  0.00     0.032 A 
HETATM   19  C   UNK N   1      36.850  10.700  15.892  0.00  0.00     0.032 A 
BRANCH  17  20
HETATM   20  N   UNK N   1      35.634   9.034  18.990  0.00  0.00    -0.328 N 
HETATM   21  C   UNK N   1      36.328   8.782  20.136  0.00  0.00     0.218 C 
HETATM   22  C   UNK N   1      35.960   7.603  20.967  0.00  0.00     0.117 C 
HETATM   23  O   UNK N   1      37.260   9.489  20.486  0.00  0.00    -0.274 OA
HETATM   24  H   UNK N   1      34.848   8.469  18.808  0.00  0.00     0.169 HD
ENDBRANCH  17  20
ENDBRANCH   1  14
BRANCH  13  25
HETATM   25  N   UNK N   1      34.698  15.388  11.338  0.00  0.00    -0.327 N 
HETATM   26  C   UNK N   1      35.538  16.398  10.908  0.00  0.00     0.361 C 
HETATM   27  O   UNK N   1      36.758  16.239  10.936  0.00  0.00    -0.238 OA
HETATM   28  H   UNK N   1      33.769  15.572  11.605  0.00  0.00     0.165 HD
BRANCH  26  29
HETATM   29  O   UNK N   1      35.043  17.422  10.179  0.00  0.00    -0.294 OA
BRANCH  29  30
HETATM   30  C   UNK N   1      34.333  17.141   9.021  0.00  0.00     0.290 C 
BRANCH  30  31
HETATM   31  C   UNK N   1      34.576  18.210   7.992  0.00  0.00     0.165 C 
HETATM   32  O   UNK N   1      34.971  19.318   8.328  0.00  0.00    -0.648 OA
BRANCH  31  33
HETATM   33  O   UNK N   1      34.351  17.948   6.693  0.00  0.00    -0.775 OA
HETATM   34  H   UNK N   1      33.960  18.163   5.869  0.00  0.00     0.167 HD
ENDBRANCH  31  33
ENDBRANCH  30  31
ENDBRANCH  29  30
ENDBRANCH  26  29
ENDBRANCH  13  25
TORSDOF 7
ENDMDL
MODEL 5
REMARK VINA RESULT:      -7.4      2.886      5.216
REMARK  7 active torsions:
REMARK  status: ('A' for Active; 'I' for Inactive)
REMARK       I    between atoms: C_2  and  N_4 
REMARK    1  A    between atoms: N_4  and  C_5 
REMARK    2  A    between atoms: C_8  and  N_11 
REMARK    3  A    between atoms: C_23  and  N_24 
REMARK       I    between atoms: N_24  and  C_25 
REMARK    4  A    between atoms: C_25  and  O_27 
REMARK    5  A    between atoms: O_27  and  C_28 
REMARK    6  A    between atoms: C_28  and  C_29 
REMARK    7  A    between atoms: C_29  and  O_31 
ROOT
HETATM    1  N   UNK N   1      34.434  14.375   8.214  0.00  0.00    -0.252 N 
HETATM    2  C   UNK N   1      34.412  14.288   6.883  0.00  0.00     0.236 C 
HETATM    3  C   UNK N   1      33.457  15.206   6.266  0.00  0.00     0.098 C 
HETATM    4  C   UNK N   1      32.477  15.433   7.417  0.00  0.00     0.120 C 
HETATM    5  C   UNK N   1      33.400  15.136   8.615  0.00  0.00     0.238 C 
HETATM    6  O   UNK N   1      35.173  13.574   6.243  0.00  0.00    -0.272 OA
HETATM    7  O   UNK N   1      33.204  15.457   9.781  0.00  0.00    -0.272 OA
HETATM    8  C   UNK N   1      34.103  16.603   5.941  0.00  0.00    -0.000 C 
HETATM    9  C   UNK N   1      34.178  17.576   7.188  0.00  0.00     0.008 C 
HETATM   10  C   UNK N   1      32.745  17.840   7.814  0.00  0.00     0.032 C 
HETATM   11  C   UNK N   1      31.727  17.280   5.672  0.00  0.00     0.032 C 
HETATM   12  C   UNK N   1      33.115  17.281   5.004  0.00  0.00     0.008 C 
HETATM   13  C   UNK N   1      31.789  16.822   7.175  0.00  0.00     0.048 C 
ENDROOT
BRANCH   1  14
HETATM   14  C   UNK N   1      35.466  13.735   8.931  0.00  0.00     0.045 A 
HETATM   15  C   UNK N   1      36.478  14.562   9.446  0.00  0.00     0.032 A 
HETATM   16  C   UNK N   1      37.036  14.315  10.706  0.00  0.00     0.032 A 
HETATM   17  C   UNK N   1      36.560  13.260  11.493  0.00  0.00     0.034 A 
HETATM   18  C   UNK N   1      35.595  12.398  10.964  0.00  0.00     0.032 A 
HETATM   19  C   UNK N   1      35.050  12.643   9.711  0.00  0.00     0.032 A 
BRANCH  17  20
HETATM   20  N   UNK N   1      36.967  13.177  12.857  0.00  0.00    -0.328 N 
HETATM   21  C   UNK N   1      36.200  13.496  13.938  0.00  0.00     0.218 C 
HETATM   22  C   UNK N   1      36.812  13.487  15.295  0.00  0.00     0.117 C 
HETATM   23  O   UNK N   1      35.026  13.812  13.817  0.00  0.00    -0.274 OA
HETATM   24  H   UNK N   1      37.882  12.861  13.034  0.00  0.00     0.169 HD
ENDBRANCH  17  20
ENDBRANCH   1  14
BRANCH  13  25
HETATM   25  N   UNK N   1      30.433  16.636   7.672  0.00  0.00    -0.327 N 
HETATM   26  C   UNK N   1      29.916  17.627   8.484  0.00  0.00     0.361 C 
HETATM   27  O   UNK N   1      30.671  18.407   9.063  0.00  0.00    -0.238 OA
HETATM   28  H   UNK N   1      29.907  15.837   7.439  0.00  0.00     0.165 HD
BRANCH  26  29
HETATM   29  O   UNK N   1      28.604  17.943   8.409  0.00  0.00    -0.294 OA
BRANCH  29  30
HETATM   30  C   UNK N   1      28.228  19.093   7.731  0.00  0.00     0.290 C 
BRANCH  30  31
HETATM   31  C   UNK N   1      27.737  18.745   6.354  0.00  0.00     0.165 C 
HETATM   32  O   UNK N   1      28.504  18.289   5.517  0.00  0.00    -0.648 OA
BRANCH  31  33
HETATM   33  O   UNK N   1      26.445  18.943   6.037  0.00  0.00    -0.775 OA
HETATM   34  H   UNK N   1      25.705  19.507   5.926  0.00  0.00     0.167 HD
ENDBRANCH  31  33
ENDBRANCH  30  31
ENDBRANCH  29  30
ENDBRANCH  26  29
ENDBRANCH  13  25
TORSDOF 7
ENDMDL
MODEL 6
REMARK VINA RESULT:      -7.3      4.054     10.158
REMARK  7 active torsions:
REMARK  status: ('A' for Active; 'I' for Inactive)
REMARK       I    between atoms: C_2  and  N_4 
REMARK    1  A    between atoms: N_4  and  C_5 
REMARK    2  A    between atoms: C_8  and  N_11 
REMARK    3  A    between atoms: C_23  and  N_24 
REMARK       I    between atoms: N_24  and  C_25 
REMARK    4  A    between atoms: C_25  and  O_27 
REMARK    5  A    between atoms: O_27  and  C_28 
REMARK    6  A    between atoms: C_28  and  C_29 
REMARK    7  A    between atoms: C_29  and  O_31 
ROOT
HETATM    1  N   UNK N   1      30.710  16.134   6.938  0.00  0.00    -0.252 N 
HETATM    2  C   UNK N   1      30.881  17.290   7.582  0.00  0.00     0.236 C 
HETATM    3  C   UNK N   1      32.164  17.375   8.274  0.00  0.00     0.098 C 
HETATM    4  C   UNK N   1      32.497  15.896   8.467  0.00  0.00     0.120 C 
HETATM    5  C   UNK N   1      31.690  15.287   7.303  0.00  0.00     0.238 C 
HETATM    6  O   UNK N   1      30.080  18.215   7.526  0.00  0.00    -0.272 OA
HETATM    7  O   UNK N   1      31.840  14.172   6.820  0.00  0.00    -0.272 OA
HETATM    8  C   UNK N   1      33.294  17.975   7.357  0.00  0.00    -0.000 C 
HETATM    9  C   UNK N   1      33.939  16.921   6.368  0.00  0.00     0.008 C 
HETATM   10  C   UNK N   1      34.554  15.684   7.146  0.00  0.00     0.032 C 
HETATM   11  C   UNK N   1      34.774  17.072   9.137  0.00  0.00     0.032 C 
HETATM   12  C   UNK N   1      34.426  18.325   8.311  0.00  0.00     0.008 C 
HETATM   13  C   UNK N   1      34.056  15.782   8.596  0.00  0.00     0.048 C 
ENDROOT
BRANCH   1  14
HETATM   14  C   UNK N   1      29.638  15.998   6.032  0.00  0.00     0.045 A 
HETATM   15  C   UNK N   1      28.358  16.294   6.529  0.00  0.00     0.032 A 
HETATM   16  C   UNK N   1      27.417  16.961   5.736  0.00  0.00     0.032 A 
HETATM   17  C   UNK N   1      27.754  17.383   4.445  0.00  0.00     0.034 A 
HETATM   18  C   UNK N   1      29.006  17.042   3.924  0.00  0.00     0.032 A 
HETATM   19  C   UNK N   1      29.933  16.374   4.712  0.00  0.00     0.032 A 
BRANCH  17  20
HETATM   20  N   UNK N   1      26.874  18.266   3.754  0.00  0.00    -0.328 N 
HETATM   21  C   UNK N   1      26.894  19.628   3.823  0.00  0.00     0.218 C 
HETATM   22  C   UNK N   1      25.822  20.409   3.148  0.00  0.00     0.117 C 
HETATM   23  O   UNK N   1      27.761  20.222   4.445  0.00  0.00    -0.274 OA
HETATM   24  H   UNK N   1      26.191  17.857   3.174  0.00  0.00     0.169 HD
ENDBRANCH  17  20
ENDBRANCH   1  14
BRANCH  13  25
HETATM   25  N   UNK N   1      34.254  14.693   9.543  0.00  0.00    -0.327 N 
HETATM   26  C   UNK N   1      35.496  14.088   9.559  0.00  0.00     0.361 C 
HETATM   27  O   UNK N   1      36.244  14.189   8.588  0.00  0.00    -0.238 OA
HETATM   28  H   UNK N   1      33.533  14.402  10.147  0.00  0.00     0.165 HD
BRANCH  26  29
HETATM   29  O   UNK N   1      36.018  13.654  10.728  0.00  0.00    -0.294 OA
BRANCH  29  30
HETATM   30  C   UNK N   1      35.163  13.174  11.709  0.00  0.00     0.290 C 
BRANCH  30  31
HETATM   31  C   UNK N   1      35.614  13.643  13.064  0.00  0.00     0.165 C 
HETATM   32  O   UNK N   1      34.877  13.541  14.034  0.00  0.00    -0.648 OA
BRANCH  31  33
HETATM   33  O   UNK N   1      36.835  14.186  13.209  0.00  0.00    -0.775 OA
HETATM   34  H   UNK N   1      37.591  14.377  13.729  0.00  0.00     0.167 HD
ENDBRANCH  31  33
ENDBRANCH  30  31
ENDBRANCH  29  30
ENDBRANCH  26  29
ENDBRANCH  13  25
TORSDOF 7
ENDMDL
MODEL 7
REMARK VINA RESULT:      -7.3      4.273     10.142
REMARK  7 active torsions:
REMARK  status: ('A' for Active; 'I' for Inactive)
REMARK       I    between atoms: C_2  and  N_4 
REMARK    1  A    between atoms: N_4  and  C_5 
REMARK    2  A    between atoms: C_8  and  N_11 
REMARK    3  A    between atoms: C_23  and  N_24 
REMARK       I    between atoms: N_24  and  C_25 
REMARK    4  A    between atoms: C_25  and  O_27 
REMARK    5  A    between atoms: O_27  and  C_28 
REMARK    6  A    between atoms: C_28  and  C_29 
REMARK    7  A    between atoms: C_29  and  O_31 
ROOT
HETATM    1  N   UNK N   1      30.281  17.165   7.336  0.00  0.00    -0.252 N 
HETATM    2  C   UNK N   1      30.818  17.930   8.289  0.00  0.00     0.236 C 
HETATM    3  C   UNK N   1      32.162  17.506   8.671  0.00  0.00     0.098 C 
HETATM    4  C   UNK N   1      32.140  16.034   8.260  0.00  0.00     0.120 C 
HETATM    5  C   UNK N   1      31.059  16.081   7.161  0.00  0.00     0.238 C 
HETATM    6  O   UNK N   1      30.272  18.931   8.734  0.00  0.00    -0.272 OA
HETATM    7  O   UNK N   1      30.861  15.235   6.300  0.00  0.00    -0.272 OA
HETATM    8  C   UNK N   1      33.273  18.200   7.800  0.00  0.00    -0.000 C 
HETATM    9  C   UNK N   1      33.498  17.516   6.390  0.00  0.00     0.008 C 
HETATM   10  C   UNK N   1      33.885  15.985   6.535  0.00  0.00     0.032 C 
HETATM   11  C   UNK N   1      34.706  16.426   8.787  0.00  0.00     0.032 C 
HETATM   12  C   UNK N   1      34.573  17.942   8.546  0.00  0.00     0.008 C 
HETATM   13  C   UNK N   1      33.624  15.600   7.999  0.00  0.00     0.048 C 
ENDROOT
BRANCH   1  14
HETATM   14  C   UNK N   1      29.098  17.588   6.696  0.00  0.00     0.045 A 
HETATM   15  C   UNK N   1      29.235  18.072   5.384  0.00  0.00     0.032 A 
HETATM   16  C   UNK N   1      28.276  17.781   4.407  0.00  0.00     0.032 A 
HETATM   17  C   UNK N   1      27.183  16.962   4.713  0.00  0.00     0.034 A 
HETATM   18  C   UNK N   1      27.010  16.524   6.030  0.00  0.00     0.032 A 
HETATM   19  C   UNK N   1      27.960  16.822   6.997  0.00  0.00     0.032 A 
BRANCH  17  20
HETATM   20  N   UNK N   1      26.360  16.482   3.654  0.00  0.00    -0.328 N 
HETATM   21  C   UNK N   1      26.662  15.451   2.814  0.00  0.00     0.218 C 
HETATM   22  C   UNK N   1      25.759  15.155   1.668  0.00  0.00     0.117 C 
HETATM   23  O   UNK N   1      27.669  14.777   2.967  0.00  0.00    -0.274 OA
HETATM   24  H   UNK N   1      25.496  16.934   3.517  0.00  0.00     0.169 HD
ENDBRANCH  17  20
ENDBRANCH   1  14
BRANCH  13  25
HETATM   25  N   UNK N   1      33.669  14.213   8.441  0.00  0.00    -0.327 N 
HETATM   26  C   UNK N   1      34.914  13.673   8.702  0.00  0.00     0.361 C 
HETATM   27  O   UNK N   1      35.923  14.190   8.223  0.00  0.00    -0.238 OA
HETATM   28  H   UNK N   1      32.847  13.683   8.550  0.00  0.00     0.165 HD
BRANCH  26  29
HETATM   29  O   UNK N   1      35.067  12.786   9.710  0.00  0.00    -0.294 OA
BRANCH  29  30
HETATM   30  C   UNK N   1      35.774  13.168  10.840  0.00  0.00     0.290 C 
BRANCH  30  31
HETATM   31  C   UNK N   1      34.840  13.748  11.865  0.00  0.00     0.165 C 
HETATM   32  O   UNK N   1      35.069  13.619  13.059  0.00  0.00    -0.648 OA
BRANCH  31  33
HETATM   33  O   UNK N   1      33.740  14.410  11.465  0.00  0.00    -0.775 OA
HETATM   34  H   UNK N   1      33.331  15.142  11.047  0.00  0.00     0.167 HD
ENDBRANCH  31  33
ENDBRANCH  30  31
ENDBRANCH  29  30
ENDBRANCH  26  29
ENDBRANCH  13  25
TORSDOF 7
ENDMDL
MODEL 8
REMARK VINA RESULT:      -7.2      2.901      5.295
REMARK  7 active torsions:
REMARK  status: ('A' for Active; 'I' for Inactive)
REMARK       I    between atoms: C_2  and  N_4 
REMARK    1  A    between atoms: N_4  and  C_5 
REMARK    2  A    between atoms: C_8  and  N_11 
REMARK    3  A    between atoms: C_23  and  N_24 
REMARK       I    between atoms: N_24  and  C_25 
REMARK    4  A    between atoms: C_25  and  O_27 
REMARK    5  A    between atoms: O_27  and  C_28 
REMARK    6  A    between atoms: C_28  and  C_29 
REMARK    7  A    between atoms: C_29  and  O_31 
ROOT
HETATM    1  N   UNK N   1      34.419  14.797   8.747  0.00  0.00    -0.252 N 
HETATM    2  C   UNK N   1      34.908  14.933   7.513  0.00  0.00     0.236 C 
HETATM    3  C   UNK N   1      33.984  15.606   6.604  0.00  0.00     0.098 C 
HETATM    4  C   UNK N   1      32.642  15.326   7.281  0.00  0.00     0.120 C 
HETATM    5  C   UNK N   1      33.115  15.127   8.735  0.00  0.00     0.238 C 
HETATM    6  O   UNK N   1      36.045  14.604   7.200  0.00  0.00    -0.272 OA
HETATM    7  O   UNK N   1      32.416  15.171   9.739  0.00  0.00    -0.272 OA
HETATM    8  C   UNK N   1      34.175  17.168   6.612  0.00  0.00    -0.000 C 
HETATM    9  C   UNK N   1      33.455  17.892   7.821  0.00  0.00     0.008 C 
HETATM   10  C   UNK N   1      31.897  17.597   7.840  0.00  0.00     0.032 C 
HETATM   11  C   UNK N   1      31.979  17.122   5.451  0.00  0.00     0.032 C 
HETATM   12  C   UNK N   1      33.421  17.660   5.386  0.00  0.00     0.008 C 
HETATM   13  C   UNK N   1      31.652  16.458   6.838  0.00  0.00     0.048 C 
ENDROOT
BRANCH   1  14
HETATM   14  C   UNK N   1      35.278  14.391   9.789  0.00  0.00     0.045 A 
HETATM   15  C   UNK N   1      35.690  15.390  10.687  0.00  0.00     0.032 A 
HETATM   16  C   UNK N   1      35.808  15.121  12.055  0.00  0.00     0.032 A 
HETATM   17  C   UNK N   1      35.474  13.859  12.558  0.00  0.00     0.034 A 
HETATM   18  C   UNK N   1      35.119  12.844  11.665  0.00  0.00     0.032 A 
HETATM   19  C   UNK N   1      35.010  13.113  10.308  0.00  0.00     0.032 A 
BRANCH  17  20
HETATM   20  N   UNK N   1      35.367  13.682  13.969  0.00  0.00    -0.328 N 
HETATM   21  C   UNK N   1      36.179  12.901  14.738  0.00  0.00     0.218 C 
HETATM   22  C   UNK N   1      35.856  12.711  16.178  0.00  0.00     0.117 C 
HETATM   23  O   UNK N   1      37.153  12.335  14.266  0.00  0.00    -0.274 OA
HETATM   24  H   UNK N   1      34.644  14.167  14.429  0.00  0.00     0.169 HD
ENDBRANCH  17  20
ENDBRANCH   1  14
BRANCH  13  25
HETATM   25  N   UNK N   1      30.362  15.786   6.752  0.00  0.00    -0.327 N 
HETATM   26  C   UNK N   1      29.248  16.579   6.554  0.00  0.00     0.361 C 
HETATM   27  O   UNK N   1      29.289  17.778   6.824  0.00  0.00    -0.238 OA
HETATM   28  H   UNK N   1      30.289  14.807   6.831  0.00  0.00     0.165 HD
BRANCH  26  29
HETATM   29  O   UNK N   1      28.228  16.129   5.789  0.00  0.00    -0.294 OA
BRANCH  29  30
HETATM   30  C   UNK N   1      28.497  15.690   4.501  0.00  0.00     0.290 C 
BRANCH  30  31
HETATM   31  C   UNK N   1      28.629  16.865   3.572  0.00  0.00     0.165 C 
HETATM   32  O   UNK N   1      27.798  17.762   3.581  0.00  0.00    -0.648 OA
BRANCH  31  33
HETATM   33  O   UNK N   1      29.666  16.926   2.719  0.00  0.00    -0.775 OA
HETATM   34  H   UNK N   1      30.324  16.509   2.197  0.00  0.00     0.167 HD
ENDBRANCH  31  33
ENDBRANCH  30  31
ENDBRANCH  29  30
ENDBRANCH  26  29
ENDBRANCH  13  25
TORSDOF 7
ENDMDL
MODEL 9
REMARK VINA RESULT:      -7.2      2.619      8.872
REMARK  7 active torsions:
REMARK  status: ('A' for Active; 'I' for Inactive)
REMARK       I    between atoms: C_2  and  N_4 
REMARK    1  A    between atoms: N_4  and  C_5 
REMARK    2  A    between atoms: C_8  and  N_11 
REMARK    3  A    between atoms: C_23  and  N_24 
REMARK       I    between atoms: N_24  and  C_25 
REMARK    4  A    between atoms: C_25  and  O_27 
REMARK    5  A    between atoms: O_27  and  C_28 
REMARK    6  A    between atoms: C_28  and  C_29 
REMARK    7  A    between atoms: C_29  and  O_31 
ROOT
HETATM    1  N   UNK N   1      33.475  16.309   9.059  0.00  0.00    -0.252 N 
HETATM    2  C   UNK N   1      34.657  16.819   9.411  0.00  0.00     0.236 C 
HETATM    3  C   UNK N   1      35.479  15.882  10.173  0.00  0.00     0.098 C 
HETATM    4  C   UNK N   1      34.412  14.952  10.752  0.00  0.00     0.120 C 
HETATM    5  C   UNK N   1      33.296  15.143   9.705  0.00  0.00     0.238 C 
HETATM    6  O   UNK N   1      35.043  17.926   9.060  0.00  0.00    -0.272 OA
HETATM    7  O   UNK N   1      32.335  14.407   9.525  0.00  0.00    -0.272 OA
HETATM    8  C   UNK N   1      36.389  14.999   9.241  0.00  0.00    -0.000 C 
HETATM    9  C   UNK N   1      35.636  13.762   8.601  0.00  0.00     0.008 C 
HETATM   10  C   UNK N   1      35.016  12.813   9.710  0.00  0.00     0.032 C 
HETATM   11  C   UNK N   1      36.651  13.651  11.312  0.00  0.00     0.032 C 
HETATM   12  C   UNK N   1      37.407  14.366  10.177  0.00  0.00     0.008 C 
HETATM   13  C   UNK N   1      35.103  13.574  11.042  0.00  0.00     0.048 C 
ENDROOT
BRANCH   1  14
HETATM   14  C   UNK N   1      32.677  16.998   8.122  0.00  0.00     0.045 A 
HETATM   15  C   UNK N   1      32.594  16.437   6.837  0.00  0.00     0.032 A 
HETATM   16  C   UNK N   1      31.390  16.450   6.125  0.00  0.00     0.032 A 
HETATM   17  C   UNK N   1      30.233  16.985   6.703  0.00  0.00     0.034 A 
HETATM   18  C   UNK N   1      30.321  17.597   7.957  0.00  0.00     0.032 A 
HETATM   19  C   UNK N   1      31.520  17.589   8.656  0.00  0.00     0.032 A 
BRANCH  17  20
HETATM   20  N   UNK N   1      28.977  16.769   6.066  0.00  0.00    -0.328 N 
HETATM   21  C   UNK N   1      28.353  17.636   5.218  0.00  0.00     0.218 C 
HETATM   22  C   UNK N   1      26.978  17.325   4.739  0.00  0.00     0.117 C 
HETATM   23  O   UNK N   1      28.888  18.674   4.860  0.00  0.00    -0.274 OA
HETATM   24  H   UNK N   1      28.519  15.917   6.253  0.00  0.00     0.169 HD
ENDBRANCH  17  20
ENDBRANCH   1  14
BRANCH  13  25
HETATM   25  N   UNK N   1      34.434  13.089  12.241  0.00  0.00    -0.327 N 
HETATM   26  C   UNK N   1      34.864  11.883  12.760  0.00  0.00     0.361 C 
HETATM   27  O   UNK N   1      35.483  11.092  12.050  0.00  0.00    -0.238 OA
HETATM   28  H   UNK N   1      33.707  13.600  12.664  0.00  0.00     0.165 HD
BRANCH  26  29
HETATM   29  O   UNK N   1      34.883  11.693  14.098  0.00  0.00    -0.294 OA
BRANCH  29  30
HETATM   30  C   UNK N   1      36.102  11.706  14.760  0.00  0.00     0.290 C 
BRANCH  30  31
HETATM   31  C   UNK N   1      36.343  13.056  15.376  0.00  0.00     0.165 C 
HETATM   32  O   UNK N   1      35.723  13.405  16.371  0.00  0.00    -0.648 OA
BRANCH  31  33
HETATM   33  O   UNK N   1      37.241  13.890  14.824  0.00  0.00    -0.775 OA
HETATM   34  H   UNK N   1      37.788  14.148  14.108  0.00  0.00     0.167 HD
ENDBRANCH  31  33
ENDBRANCH  30  31
ENDBRANCH  29  30
ENDBRANCH  26  29
ENDBRANCH  13  25
TORSDOF 7
ENDMDL
