MODEL 1
REMARK VINA RESULT:      -8.1      0.000      0.000
REMARK  8 active torsions:
REMARK  status: ('A' for Active; 'I' for Inactive)
REMARK    1  A    between atoms: C_10  and  N_2 
REMARK    2  A    between atoms: C_6  and  C_7 
REMARK       I    between atoms: C_7  and  N_9 
REMARK    3  A    between atoms: C_10  and  C_11 
REMARK    4  A    between atoms: C_10  and  C_13 
REMARK    5  A    between atoms: C_11  and  O_12 
REMARK    6  A    between atoms: C_13  and  C_14 
REMARK    7  A    between atoms: C_14  and  O_16 
REMARK    8  A    between atoms: O_16  and  C_25 
ROOT
HETATM    1  C   UNK N   1      36.017  13.776  10.250  0.00  0.00     0.120 C 
ENDROOT
BRANCH   1   2
HETATM    2  N   UNK N   1      35.422  15.122  10.187  0.00  0.00    -0.343 N 
HETATM    3  C   UNK N   1      35.087  15.745   9.045  0.00  0.00     0.127 A 
HETATM    4  C   UNK N   1      34.817  17.052   9.356  0.00  0.00     0.117 A 
HETATM    5  N   UNK N   1      35.009  17.257  10.671  0.00  0.00    -0.347 N 
HETATM    6  C   UNK N   1      35.405  16.062  11.158  0.00  0.00     0.183 A 
ATOM      7  HN  UNK N   1      34.884  18.128  11.188  1.00  0.00     0.167 HD
BRANCH   4   8
HETATM    8  C   UNK N   1      34.446  18.091   8.384  0.00  0.00     0.267 C 
HETATM    9  O   UNK N   1      35.261  18.937   8.052  0.00  0.00    -0.266 OA
HETATM   10  N   UNK N   1      33.216  18.097   7.835  0.00  0.00    -0.365 N 
HETATM   11  H   UNK N   1      32.516  17.493   8.172  0.00  0.00     0.159 HD
HETATM   12  H   UNK N   1      33.016  18.709   7.090  0.00  0.00     0.159 HD
ENDBRANCH   4   8
ENDBRANCH   1   2
BRANCH   1  13
HETATM   13  C   UNK N   1      37.533  13.749  10.568  0.00  0.00     0.137 C 
HETATM   14  C   UNK N   1      38.205  12.498  10.024  0.00  0.00     0.041 C 
BRANCH  13  15
HETATM   15  O   UNK N   1      38.179  14.878  10.067  0.00  0.00    -0.394 OA
HETATM   16  H   UNK N   1      38.585  15.738   9.874  0.00  0.00     0.210 HD
ENDBRANCH  13  15
ENDBRANCH   1  13
BRANCH   1  17
HETATM   17  C   UNK N   1      35.211  12.865  11.189  0.00  0.00     0.055 C 
BRANCH  17  18
HETATM   18  C   UNK N   1      35.685  12.869  12.645  0.00  0.00     0.178 C 
BRANCH  18  19
HETATM   19  O   UNK N   1      34.595  12.731  13.481  0.00  0.00    -0.351 OA
BRANCH  19  20
HETATM   20  C   UNK N   1      34.703  12.186  14.717  0.00  0.00     0.069 A 
HETATM   21  C   UNK N   1      34.692  10.794  14.869  0.00  0.00     0.037 A 
HETATM   22  C   UNK N   1      34.845  10.225  16.141  0.00  0.00     0.015 A 
HETATM   23  C   UNK N   1      35.007  11.049  17.261  0.00  0.00    -0.026 A 
HETATM   24  C   UNK N   1      35.172  10.496  18.533  0.00  0.00     0.012 A 
HETATM   25  C   UNK N   1      35.005  12.451  17.107  0.00  0.00    -0.023 A 
HETATM   26  C   UNK N   1      35.334  11.335  19.643  0.00  0.00     0.001 A 
HETATM   27  C   UNK N   1      35.329  12.725  19.484  0.00  0.00     0.001 A 
HETATM   28  C   UNK N   1      35.165  13.284  18.216  0.00  0.00     0.012 A 
HETATM   29  C   UNK N   1      34.854  13.006  15.846  0.00  0.00     0.049 A 
ENDBRANCH  19  20
ENDBRANCH  18  19
ENDBRANCH  17  18
ENDBRANCH   1  17
TORSDOF 8
ENDMDL
MODEL 2
REMARK VINA RESULT:      -7.4     14.149     16.153
REMARK  8 active torsions:
REMARK  status: ('A' for Active; 'I' for Inactive)
REMARK    1  A    between atoms: C_10  and  N_2 
REMARK    2  A    between atoms: C_6  and  C_7 
REMARK       I    between atoms: C_7  and  N_9 
REMARK    3  A    between atoms: C_10  and  C_11 
REMARK    4  A    between atoms: C_10  and  C_13 
REMARK    5  A    between atoms: C_11  and  O_12 
REMARK    6  A    between atoms: C_13  and  C_14 
REMARK    7  A    between atoms: C_14  and  O_16 
REMARK    8  A    between atoms: O_16  and  C_25 
ROOT
HETATM    1  C   UNK N   1      20.493  16.489   4.221  0.00  0.00     0.120 C 
ENDROOT
BRANCH   1   2
HETATM    2  N   UNK N   1      20.591  17.349   3.029  0.00  0.00    -0.343 N 
HETATM    3  C   UNK N   1      20.953  18.643   3.061  0.00  0.00     0.127 A 
HETATM    4  C   UNK N   1      20.680  19.176   1.828  0.00  0.00     0.117 A 
HETATM    5  N   UNK N   1      20.123  18.239   1.040  0.00  0.00    -0.347 N 
HETATM    6  C   UNK N   1      20.055  17.129   1.808  0.00  0.00     0.183 A 
ATOM      7  HN  UNK N   1      19.818  18.343   0.072  1.00  0.00     0.167 HD
BRANCH   4   8
HETATM    8  C   UNK N   1      20.893  20.580   1.450  0.00  0.00     0.267 C 
HETATM    9  O   UNK N   1      21.547  21.315   2.174  0.00  0.00    -0.266 OA
HETATM   10  N   UNK N   1      20.394  21.053   0.293  0.00  0.00    -0.365 N 
HETATM   11  H   UNK N   1      19.775  20.508  -0.244  0.00  0.00     0.159 HD
HETATM   12  H   UNK N   1      20.650  21.952  -0.019  0.00  0.00     0.159 HD
ENDBRANCH   4   8
ENDBRANCH   1   2
BRANCH   1  13
HETATM   13  C   UNK N   1      19.279  15.527   4.231  0.00  0.00     0.137 C 
HETATM   14  C   UNK N   1      19.671  14.123   4.666  0.00  0.00     0.041 C 
BRANCH  13  15
HETATM   15  O   UNK N   1      18.260  16.000   5.058  0.00  0.00    -0.394 OA
HETATM   16  H   UNK N   1      17.666  16.460   5.672  0.00  0.00     0.210 HD
ENDBRANCH  13  15
ENDBRANCH   1  13
BRANCH   1  17
HETATM   17  C   UNK N   1      21.819  15.754   4.474  0.00  0.00     0.055 C 
BRANCH  17  18
HETATM   18  C   UNK N   1      22.585  16.228   5.711  0.00  0.00     0.178 C 
BRANCH  18  19
HETATM   19  O   UNK N   1      23.162  15.140   6.336  0.00  0.00    -0.351 OA
BRANCH  19  20
HETATM   20  C   UNK N   1      22.626  14.586   7.450  0.00  0.00     0.069 A 
HETATM   21  C   UNK N   1      21.285  14.827   7.775  0.00  0.00     0.037 A 
HETATM   22  C   UNK N   1      20.715  14.223   8.903  0.00  0.00     0.015 A 
HETATM   23  C   UNK N   1      21.487  13.379   9.710  0.00  0.00    -0.026 A 
HETATM   24  C   UNK N   1      20.930  12.761  10.832  0.00  0.00     0.012 A 
HETATM   25  C   UNK N   1      22.841  13.147   9.389  0.00  0.00    -0.023 A 
HETATM   26  C   UNK N   1      21.716  11.918  11.628  0.00  0.00     0.001 A 
HETATM   27  C   UNK N   1      23.059  11.694  11.305  0.00  0.00     0.001 A 
HETATM   28  C   UNK N   1      23.622  12.308  10.185  0.00  0.00     0.012 A 
HETATM   29  C   UNK N   1      23.397  13.748   8.270  0.00  0.00     0.049 A 
ENDBRANCH  19  20
ENDBRANCH  18  19
ENDBRANCH  17  18
ENDBRANCH   1  17
TORSDOF 8
ENDMDL
MODEL 3
REMARK VINA RESULT:      -7.1      3.369      9.408
REMARK  8 active torsions:
REMARK  status: ('A' for Active; 'I' for Inactive)
REMARK    1  A    between atoms: C_10  and  N_2 
REMARK    2  A    between atoms: C_6  and  C_7 
REMARK       I    between atoms: C_7  and  N_9 
REMARK    3  A    between atoms: C_10  and  C_11 
REMARK    4  A    between atoms: C_10  and  C_13 
REMARK    5  A    between atoms: C_11  and  O_12 
REMARK    6  A    between atoms: C_13  and  C_14 
REMARK    7  A    between atoms: C_14  and  O_16 
REMARK    8  A    between atoms: O_16  and  C_25 
ROOT
HETATM    1  C   UNK N   1      35.117  14.116  10.192  0.00  0.00     0.120 C 
ENDROOT
BRANCH   1   2
HETATM    2  N   UNK N   1      35.772  13.665  11.432  0.00  0.00    -0.343 N 
HETATM    3  C   UNK N   1      35.589  14.239  12.633  0.00  0.00     0.127 A 
HETATM    4  C   UNK N   1      36.542  13.733  13.479  0.00  0.00     0.117 A 
HETATM    5  N   UNK N   1      37.334  12.876  12.811  0.00  0.00    -0.347 N 
HETATM    6  C   UNK N   1      36.858  12.868  11.547  0.00  0.00     0.183 A 
ATOM      7  HN  UNK N   1      38.125  12.345  13.180  1.00  0.00     0.167 HD
BRANCH   4   8
HETATM    8  C   UNK N   1      36.717  14.126  14.884  0.00  0.00     0.267 C 
HETATM    9  O   UNK N   1      36.290  13.410  15.777  0.00  0.00    -0.266 OA
HETATM   10  N   UNK N   1      37.372  15.261  15.193  0.00  0.00    -0.365 N 
HETATM   11  H   UNK N   1      37.623  15.900  14.488  0.00  0.00     0.159 HD
HETATM   12  H   UNK N   1      37.603  15.452  16.132  0.00  0.00     0.159 HD
ENDBRANCH   4   8
ENDBRANCH   1   2
BRANCH   1  13
HETATM   13  C   UNK N   1      34.176  13.076   9.537  0.00  0.00     0.137 C 
HETATM   14  C   UNK N   1      33.036  13.738   8.779  0.00  0.00     0.041 C 
BRANCH  13  15
HETATM   15  O   UNK N   1      34.873  12.227   8.677  0.00  0.00    -0.394 OA
HETATM   16  H   UNK N   1      35.285  11.506   8.175  0.00  0.00     0.210 HD
ENDBRANCH  13  15
ENDBRANCH   1  13
BRANCH   1  17
HETATM   17  C   UNK N   1      34.425  15.473  10.403  0.00  0.00     0.055 C 
BRANCH  17  18
HETATM   18  C   UNK N   1      35.113  16.654   9.714  0.00  0.00     0.178 C 
BRANCH  18  19
HETATM   19  O   UNK N   1      34.169  17.607   9.391  0.00  0.00    -0.351 OA
BRANCH  19  20
HETATM   20  C   UNK N   1      33.323  17.453   8.343  0.00  0.00     0.069 A 
HETATM   21  C   UNK N   1      31.944  17.356   8.567  0.00  0.00     0.037 A 
HETATM   22  C   UNK N   1      31.062  17.237   7.485  0.00  0.00     0.015 A 
HETATM   23  C   UNK N   1      31.560  17.213   6.176  0.00  0.00    -0.026 A 
HETATM   24  C   UNK N   1      30.693  17.107   5.087  0.00  0.00     0.012 A 
HETATM   25  C   UNK N   1      32.951  17.299   5.953  0.00  0.00    -0.023 A 
HETATM   26  C   UNK N   1      31.207  17.086   3.784  0.00  0.00     0.001 A 
HETATM   27  C   UNK N   1      32.587  17.168   3.569  0.00  0.00     0.001 A 
HETATM   28  C   UNK N   1      33.459  17.275   4.654  0.00  0.00     0.012 A 
HETATM   29  C   UNK N   1      33.815  17.417   7.030  0.00  0.00     0.049 A 
ENDBRANCH  19  20
ENDBRANCH  18  19
ENDBRANCH  17  18
ENDBRANCH   1  17
TORSDOF 8
ENDMDL
MODEL 4
REMARK VINA RESULT:      -7.1      2.489      4.517
REMARK  8 active torsions:
REMARK  status: ('A' for Active; 'I' for Inactive)
REMARK    1  A    between atoms: C_10  and  N_2 
REMARK    2  A    between atoms: C_6  and  C_7 
REMARK       I    between atoms: C_7  and  N_9 
REMARK    3  A    between atoms: C_10  and  C_11 
REMARK    4  A    between atoms: C_10  and  C_13 
REMARK    5  A    between atoms: C_11  and  O_12 
REMARK    6  A    between atoms: C_13  and  C_14 
REMARK    7  A    between atoms: C_14  and  O_16 
REMARK    8  A    between atoms: O_16  and  C_25 
ROOT
HETATM    1  C   UNK N   1      35.325  11.876  14.495  0.00  0.00     0.120 C 
ENDROOT
BRANCH   1   2
HETATM    2  N   UNK N   1      35.623  13.233  14.006  0.00  0.00    -0.343 N 
HETATM    3  C   UNK N   1      35.231  13.707  12.811  0.00  0.00     0.127 A 
HETATM    4  C   UNK N   1      35.902  14.883  12.596  0.00  0.00     0.117 A 
HETATM    5  N   UNK N   1      36.730  15.130  13.627  0.00  0.00    -0.347 N 
HETATM    6  C   UNK N   1      36.560  14.089  14.471  0.00  0.00     0.183 A 
ATOM      7  HN  UNK N   1      37.352  15.930  13.745  1.00  0.00     0.167 HD
BRANCH   4   8
HETATM    8  C   UNK N   1      35.789  15.709  11.386  0.00  0.00     0.267 C 
HETATM    9  O   UNK N   1      36.795  16.068  10.795  0.00  0.00    -0.266 OA
HETATM   10  N   UNK N   1      34.577  16.049  10.909  0.00  0.00    -0.365 N 
HETATM   11  H   UNK N   1      33.764  15.863  11.432  0.00  0.00     0.159 HD
HETATM   12  H   UNK N   1      34.503  16.487  10.029  0.00  0.00     0.159 HD
ENDBRANCH   4   8
ENDBRANCH   1   2
BRANCH   1  13
HETATM   13  C   UNK N   1      34.208  11.135  13.719  0.00  0.00     0.137 C 
HETATM   14  C   UNK N   1      34.755   9.968  12.912  0.00  0.00     0.041 C 
BRANCH  13  15
HETATM   15  O   UNK N   1      33.209  10.677  14.577  0.00  0.00    -0.394 OA
HETATM   16  H   UNK N   1      32.630  10.397  15.304  0.00  0.00     0.210 HD
ENDBRANCH  13  15
ENDBRANCH   1  13
BRANCH   1  17
HETATM   17  C   UNK N   1      36.610  11.039  14.602  0.00  0.00     0.055 C 
BRANCH  17  18
HETATM   18  C   UNK N   1      36.829  10.379  15.965  0.00  0.00     0.178 C 
BRANCH  18  19
HETATM   19  O   UNK N   1      35.649   9.802  16.389  0.00  0.00    -0.351 OA
BRANCH  19  20
HETATM   20  C   UNK N   1      35.207   9.928  17.664  0.00  0.00     0.069 A 
HETATM   21  C   UNK N   1      35.725  10.936  18.487  0.00  0.00     0.037 A 
HETATM   22  C   UNK N   1      35.242  11.096  19.792  0.00  0.00     0.015 A 
HETATM   23  C   UNK N   1      34.241  10.245  20.277  0.00  0.00    -0.026 A 
HETATM   24  C   UNK N   1      33.742  10.400  21.572  0.00  0.00     0.012 A 
HETATM   25  C   UNK N   1      33.729   9.222  19.451  0.00  0.00    -0.023 A 
HETATM   26  C   UNK N   1      32.739   9.540  22.040  0.00  0.00     0.001 A 
HETATM   27  C   UNK N   1      32.237   8.526  21.217  0.00  0.00     0.001 A 
HETATM   28  C   UNK N   1      32.732   8.367  19.922  0.00  0.00     0.012 A 
HETATM   29  C   UNK N   1      34.212   9.072  18.160  0.00  0.00     0.049 A 
ENDBRANCH  19  20
ENDBRANCH  18  19
ENDBRANCH  17  18
ENDBRANCH   1  17
TORSDOF 8
ENDMDL
MODEL 5
REMARK VINA RESULT:      -7.0      1.340      1.979
REMARK  8 active torsions:
REMARK  status: ('A' for Active; 'I' for Inactive)
REMARK    1  A    between atoms: C_10  and  N_2 
REMARK    2  A    between atoms: C_6  and  C_7 
REMARK       I    between atoms: C_7  and  N_9 
REMARK    3  A    between atoms: C_10  and  C_11 
REMARK    4  A    between atoms: C_10  and  C_13 
REMARK    5  A    between atoms: C_11  and  O_12 
REMARK    6  A    between atoms: C_13  and  C_14 
REMARK    7  A    between atoms: C_14  and  O_16 
REMARK    8  A    between atoms: O_16  and  C_25 
ROOT
HETATM    1  C   UNK N   1      36.118  13.763  10.216  0.00  0.00     0.120 C 
ENDROOT
BRANCH   1   2
HETATM    2  N   UNK N   1      35.497  15.098  10.174  0.00  0.00    -0.343 N 
HETATM    3  C   UNK N   1      35.150  15.732   9.041  0.00  0.00     0.127 A 
HETATM    4  C   UNK N   1      34.856  17.030   9.372  0.00  0.00     0.117 A 
HETATM    5  N   UNK N   1      35.046  17.218  10.690  0.00  0.00    -0.347 N 
HETATM    6  C   UNK N   1      35.464  16.023  11.159  0.00  0.00     0.183 A 
ATOM      7  HN  UNK N   1      34.905  18.079  11.220  1.00  0.00     0.167 HD
BRANCH   4   8
HETATM    8  C   UNK N   1      34.465  18.075   8.416  0.00  0.00     0.267 C 
HETATM    9  O   UNK N   1      35.086  19.126   8.372  0.00  0.00    -0.266 OA
HETATM   10  N   UNK N   1      33.440  17.869   7.567  0.00  0.00    -0.365 N 
HETATM   11  H   UNK N   1      32.863  17.078   7.665  0.00  0.00     0.159 HD
HETATM   12  H   UNK N   1      33.268  18.514   6.843  0.00  0.00     0.159 HD
ENDBRANCH   4   8
ENDBRANCH   1   2
BRANCH   1  13
HETATM   13  C   UNK N   1      36.883  13.360   8.932  0.00  0.00     0.137 C 
HETATM   14  C   UNK N   1      38.303  12.907   9.235  0.00  0.00     0.041 C 
BRANCH  13  15
HETATM   15  O   UNK N   1      36.215  12.353   8.235  0.00  0.00    -0.394 OA
HETATM   16  H   UNK N   1      35.620  11.679   7.869  0.00  0.00     0.210 HD
ENDBRANCH  13  15
ENDBRANCH   1  13
BRANCH   1  17
HETATM   17  C   UNK N   1      36.978  13.600  11.480  0.00  0.00     0.055 C 
BRANCH  17  18
HETATM   18  C   UNK N   1      36.327  12.776  12.593  0.00  0.00     0.178 C 
BRANCH  18  19
HETATM   19  O   UNK N   1      36.500  13.423  13.801  0.00  0.00    -0.351 OA
BRANCH  19  20
HETATM   20  C   UNK N   1      36.217  12.823  14.983  0.00  0.00     0.069 A 
HETATM   21  C   UNK N   1      35.428  13.486  15.931  0.00  0.00     0.037 A 
HETATM   22  C   UNK N   1      35.099  12.854  17.138  0.00  0.00     0.015 A 
HETATM   23  C   UNK N   1      35.562  11.558  17.397  0.00  0.00    -0.026 A 
HETATM   24  C   UNK N   1      35.233  10.911  18.590  0.00  0.00     0.012 A 
HETATM   25  C   UNK N   1      36.367  10.896  16.446  0.00  0.00    -0.023 A 
HETATM   26  C   UNK N   1      35.703   9.613  18.834  0.00  0.00     0.001 A 
HETATM   27  C   UNK N   1      36.502   8.964  17.887  0.00  0.00     0.001 A 
HETATM   28  C   UNK N   1      36.834   9.605  16.693  0.00  0.00     0.012 A 
HETATM   29  C   UNK N   1      36.686  11.529  15.255  0.00  0.00     0.049 A 
ENDBRANCH  19  20
ENDBRANCH  18  19
ENDBRANCH  17  18
ENDBRANCH   1  17
TORSDOF 8
ENDMDL
MODEL 6
REMARK VINA RESULT:      -7.0     19.060     23.937
REMARK  8 active torsions:
REMARK  status: ('A' for Active; 'I' for Inactive)
REMARK    1  A    between atoms: C_10  and  N_2 
REMARK    2  A    between atoms: C_6  and  C_7 
REMARK       I    between atoms: C_7  and  N_9 
REMARK    3  A    between atoms: C_10  and  C_11 
REMARK    4  A    between atoms: C_10  and  C_13 
REMARK    5  A    between atoms: C_11  and  O_12 
REMARK    6  A    between atoms: C_13  and  C_14 
REMARK    7  A    between atoms: C_14  and  O_16 
REMARK    8  A    between atoms: O_16  and  C_25 
ROOT
HETATM    1  C   UNK N   1      28.054  23.248  -6.816  0.00  0.00     0.120 C 
ENDROOT
BRANCH   1   2
HETATM    2  N   UNK N   1      28.546  23.533  -5.458  0.00  0.00    -0.343 N 
HETATM    3  C   UNK N   1      29.640  22.969  -4.919  0.00  0.00     0.127 A 
HETATM    4  C   UNK N   1      29.636  23.265  -3.581  0.00  0.00     0.117 A 
HETATM    5  N   UNK N   1      28.537  23.977  -3.274  0.00  0.00    -0.347 N 
HETATM    6  C   UNK N   1      27.869  24.110  -4.440  0.00  0.00     0.183 A 
ATOM      7  HN  UNK N   1      28.268  24.340  -2.359  1.00  0.00     0.167 HD
BRANCH   4   8
HETATM    8  C   UNK N   1      30.642  22.806  -2.613  0.00  0.00     0.267 C 
HETATM    9  O   UNK N   1      30.477  23.003  -1.419  0.00  0.00    -0.266 OA
HETATM   10  N   UNK N   1      31.735  22.142  -3.035  0.00  0.00    -0.365 N 
HETATM   11  H   UNK N   1      31.937  22.073  -3.996  0.00  0.00     0.159 HD
HETATM   12  H   UNK N   1      32.337  21.722  -2.378  0.00  0.00     0.159 HD
ENDBRANCH   4   8
ENDBRANCH   1   2
BRANCH   1  13
HETATM   13  C   UNK N   1      28.906  22.234  -7.618  0.00  0.00     0.137 C 
HETATM   14  C   UNK N   1      28.175  20.916  -7.827  0.00  0.00     0.041 C 
BRANCH  13  15
HETATM   15  O   UNK N   1      29.287  22.753  -8.856  0.00  0.00    -0.394 OA
HETATM   16  H   UNK N   1      29.502  23.272  -9.647  0.00  0.00     0.210 HD
ENDBRANCH  13  15
ENDBRANCH   1  13
BRANCH   1  17
HETATM   17  C   UNK N   1      26.566  22.861  -6.788  0.00  0.00     0.055 C 
BRANCH  17  18
HETATM   18  C   UNK N   1      25.639  23.836  -7.518  0.00  0.00     0.178 C 
BRANCH  18  19
HETATM   19  O   UNK N   1      26.324  25.005  -7.785  0.00  0.00    -0.351 OA
BRANCH  19  20
HETATM   20  C   UNK N   1      26.273  26.073  -6.952  0.00  0.00     0.069 A 
HETATM   21  C   UNK N   1      25.288  26.135  -5.957  0.00  0.00     0.037 A 
HETATM   22  C   UNK N   1      25.256  27.217  -5.068  0.00  0.00     0.015 A 
HETATM   23  C   UNK N   1      26.208  28.239  -5.174  0.00  0.00    -0.026 A 
HETATM   24  C   UNK N   1      26.195  29.318  -4.287  0.00  0.00     0.012 A 
HETATM   25  C   UNK N   1      27.191  28.180  -6.184  0.00  0.00    -0.023 A 
HETATM   26  C   UNK N   1      27.156  30.331  -4.406  0.00  0.00     0.001 A 
HETATM   27  C   UNK N   1      28.127  30.267  -5.411  0.00  0.00     0.001 A 
HETATM   28  C   UNK N   1      28.145  29.192  -6.300  0.00  0.00     0.012 A 
HETATM   29  C   UNK N   1      27.216  27.106  -7.059  0.00  0.00     0.049 A 
ENDBRANCH  19  20
ENDBRANCH  18  19
ENDBRANCH  17  18
ENDBRANCH   1  17
TORSDOF 8
ENDMDL
MODEL 7
REMARK VINA RESULT:      -6.9      1.965      2.693
REMARK  8 active torsions:
REMARK  status: ('A' for Active; 'I' for Inactive)
REMARK    1  A    between atoms: C_10  and  N_2 
REMARK    2  A    between atoms: C_6  and  C_7 
REMARK       I    between atoms: C_7  and  N_9 
REMARK    3  A    between atoms: C_10  and  C_11 
REMARK    4  A    between atoms: C_10  and  C_13 
REMARK    5  A    between atoms: C_11  and  O_12 
REMARK    6  A    between atoms: C_13  and  C_14 
REMARK    7  A    between atoms: C_14  and  O_16 
REMARK    8  A    between atoms: O_16  and  C_25 
ROOT
HETATM    1  C   UNK N   1      35.314  11.835  11.213  0.00  0.00     0.120 C 
ENDROOT
BRANCH   1   2
HETATM    2  N   UNK N   1      35.626  13.274  11.199  0.00  0.00    -0.343 N 
HETATM    3  C   UNK N   1      34.777  14.225  10.771  0.00  0.00     0.127 A 
HETATM    4  C   UNK N   1      35.491  15.390  10.658  0.00  0.00     0.117 A 
HETATM    5  N   UNK N   1      36.778  15.169  10.979  0.00  0.00    -0.347 N 
HETATM    6  C   UNK N   1      36.843  13.855  11.285  0.00  0.00     0.183 A 
ATOM      7  HN  UNK N   1      37.541  15.847  10.989  1.00  0.00     0.167 HD
BRANCH   4   8
HETATM    8  C   UNK N   1      34.946  16.669  10.183  0.00  0.00     0.267 C 
HETATM    9  O   UNK N   1      35.626  17.682  10.241  0.00  0.00    -0.266 OA
HETATM   10  N   UNK N   1      33.707  16.725   9.657  0.00  0.00    -0.365 N 
HETATM   11  H   UNK N   1      33.109  15.945   9.706  0.00  0.00     0.159 HD
HETATM   12  H   UNK N   1      33.398  17.552   9.221  0.00  0.00     0.159 HD
ENDBRANCH   4   8
ENDBRANCH   1   2
BRANCH   1  13
HETATM   13  C   UNK N   1      34.232  11.393  10.197  0.00  0.00     0.137 C 
HETATM   14  C   UNK N   1      34.826  10.611   9.037  0.00  0.00     0.041 C 
BRANCH  13  15
HETATM   15  O   UNK N   1      33.239  10.628  10.811  0.00  0.00    -0.394 OA
HETATM   16  H   UNK N   1      32.627   9.958  11.156  0.00  0.00     0.210 HD
ENDBRANCH  13  15
ENDBRANCH   1  13
BRANCH   1  17
HETATM   17  C   UNK N   1      36.597  10.997  11.094  0.00  0.00     0.055 C 
BRANCH  17  18
HETATM   18  C   UNK N   1      36.949  10.187  12.345  0.00  0.00     0.178 C 
BRANCH  18  19
HETATM   19  O   UNK N   1      37.464  11.032  13.306  0.00  0.00    -0.351 OA
BRANCH  19  20
HETATM   20  C   UNK N   1      36.932  11.114  14.550  0.00  0.00     0.069 A 
HETATM   21  C   UNK N   1      36.787   9.956  15.325  0.00  0.00     0.037 A 
HETATM   22  C   UNK N   1      36.275  10.041  16.626  0.00  0.00     0.015 A 
HETATM   23  C   UNK N   1      35.905  11.284  17.153  0.00  0.00    -0.026 A 
HETATM   24  C   UNK N   1      35.403  11.386  18.452  0.00  0.00     0.012 A 
HETATM   25  C   UNK N   1      36.040  12.448  16.366  0.00  0.00    -0.023 A 
HETATM   26  C   UNK N   1      35.039  12.638  18.965  0.00  0.00     0.001 A 
HETATM   27  C   UNK N   1      35.173  13.787  18.178  0.00  0.00     0.001 A 
HETATM   28  C   UNK N   1      35.674  13.693  16.879  0.00  0.00     0.012 A 
HETATM   29  C   UNK N   1      36.548  12.355  15.080  0.00  0.00     0.049 A 
ENDBRANCH  19  20
ENDBRANCH  18  19
ENDBRANCH  17  18
ENDBRANCH   1  17
TORSDOF 8
ENDMDL
MODEL 8
REMARK VINA RESULT:      -6.9      3.118      5.266
REMARK  8 active torsions:
REMARK  status: ('A' for Active; 'I' for Inactive)
REMARK    1  A    between atoms: C_10  and  N_2 
REMARK    2  A    between atoms: C_6  and  C_7 
REMARK       I    between atoms: C_7  and  N_9 
REMARK    3  A    between atoms: C_10  and  C_11 
REMARK    4  A    between atoms: C_10  and  C_13 
REMARK    5  A    between atoms: C_11  and  O_12 
REMARK    6  A    between atoms: C_13  and  C_14 
REMARK    7  A    between atoms: C_14  and  O_16 
REMARK    8  A    between atoms: O_16  and  C_25 
ROOT
HETATM    1  C   UNK N   1      36.354  12.204  15.432  0.00  0.00     0.120 C 
ENDROOT
BRANCH   1   2
HETATM    2  N   UNK N   1      36.400  12.954  14.165  0.00  0.00    -0.343 N 
HETATM    3  C   UNK N   1      36.769  12.421  12.987  0.00  0.00     0.127 A 
HETATM    4  C   UNK N   1      36.942  13.456  12.106  0.00  0.00     0.117 A 
HETATM    5  N   UNK N   1      36.718  14.627  12.728  0.00  0.00    -0.347 N 
HETATM    6  C   UNK N   1      36.409  14.295  14.001  0.00  0.00     0.183 A 
ATOM      7  HN  UNK N   1      36.769  15.564  12.326  1.00  0.00     0.167 HD
BRANCH   4   8
HETATM    8  C   UNK N   1      37.383  13.311  10.711  0.00  0.00     0.267 C 
HETATM    9  O   UNK N   1      36.869  12.468   9.993  0.00  0.00    -0.266 OA
HETATM   10  N   UNK N   1      38.332  14.125  10.213  0.00  0.00    -0.365 N 
HETATM   11  H   UNK N   1      38.831  14.731  10.805  0.00  0.00     0.159 HD
HETATM   12  H   UNK N   1      38.528  14.113   9.247  0.00  0.00     0.159 HD
ENDBRANCH   4   8
ENDBRANCH   1   2
BRANCH   1  13
HETATM   13  C   UNK N   1      34.971  12.186  16.128  0.00  0.00     0.137 C 
HETATM   14  C   UNK N   1      34.894  13.192  17.267  0.00  0.00     0.041 C 
BRANCH  13  15
HETATM   15  O   UNK N   1      33.940  12.434  15.221  0.00  0.00    -0.394 OA
HETATM   16  H   UNK N   1      33.281  12.775  14.596  0.00  0.00     0.210 HD
ENDBRANCH  13  15
ENDBRANCH   1  13
BRANCH   1  17
HETATM   17  C   UNK N   1      36.931  10.791  15.253  0.00  0.00     0.055 C 
BRANCH  17  18
HETATM   18  C   UNK N   1      36.064   9.669  15.829  0.00  0.00     0.178 C 
BRANCH  18  19
HETATM   19  O   UNK N   1      36.545   9.313  17.072  0.00  0.00    -0.351 OA
BRANCH  19  20
HETATM   20  C   UNK N   1      35.834   9.530  18.205  0.00  0.00     0.069 A 
HETATM   21  C   UNK N   1      36.351  10.364  19.205  0.00  0.00     0.037 A 
HETATM   22  C   UNK N   1      35.602  10.624  20.360  0.00  0.00     0.015 A 
HETATM   23  C   UNK N   1      34.335  10.047  20.518  0.00  0.00    -0.026 A 
HETATM   24  C   UNK N   1      33.572  10.307  21.658  0.00  0.00     0.012 A 
HETATM   25  C   UNK N   1      33.822   9.198  19.515  0.00  0.00    -0.023 A 
HETATM   26  C   UNK N   1      32.307   9.723  21.799  0.00  0.00     0.001 A 
HETATM   27  C   UNK N   1      31.804   8.879  20.803  0.00  0.00     0.001 A 
HETATM   28  C   UNK N   1      32.561   8.617  19.660  0.00  0.00     0.012 A 
HETATM   29  C   UNK N   1      34.569   8.947  18.375  0.00  0.00     0.049 A 
ENDBRANCH  19  20
ENDBRANCH  18  19
ENDBRANCH  17  18
ENDBRANCH   1  17
TORSDOF 8
ENDMDL
MODEL 9
REMARK VINA RESULT:      -6.9     12.286     14.282
REMARK  8 active torsions:
REMARK  status: ('A' for Active; 'I' for Inactive)
REMARK    1  A    between atoms: C_10  and  N_2 
REMARK    2  A    between atoms: C_6  and  C_7 
REMARK       I    between atoms: C_7  and  N_9 
REMARK    3  A    between atoms: C_10  and  C_11 
REMARK    4  A    between atoms: C_10  and  C_13 
REMARK    5  A    between atoms: C_11  and  O_12 
REMARK    6  A    between atoms: C_13  and  C_14 
REMARK    7  A    between atoms: C_14  and  O_16 
REMARK    8  A    between atoms: O_16  and  C_25 
ROOT
HETATM    1  C   UNK N   1      21.820  16.814   5.898  0.00  0.00     0.120 C 
ENDROOT
BRANCH   1   2
HETATM    2  N   UNK N   1      22.393  17.717   4.885  0.00  0.00    -0.343 N 
HETATM    3  C   UNK N   1      23.662  18.159   4.902  0.00  0.00     0.127 A 
HETATM    4  C   UNK N   1      23.757  19.165   3.976  0.00  0.00     0.117 A 
HETATM    5  N   UNK N   1      22.557  19.375   3.407  0.00  0.00    -0.347 N 
HETATM    6  C   UNK N   1      21.727  18.489   3.999  0.00  0.00     0.183 A 
ATOM      7  HN  UNK N   1      22.324  20.057   2.683  1.00  0.00     0.167 HD
BRANCH   4   8
HETATM    8  C   UNK N   1      24.971  19.948   3.702  0.00  0.00     0.267 C 
HETATM    9  O   UNK N   1      25.863  20.002   4.534  0.00  0.00    -0.266 OA
HETATM   10  N   UNK N   1      25.116  20.583   2.524  0.00  0.00    -0.365 N 
HETATM   11  H   UNK N   1      24.364  20.641   1.892  0.00  0.00     0.159 HD
HETATM   12  H   UNK N   1      25.981  20.993   2.293  0.00  0.00     0.159 HD
ENDBRANCH   4   8
ENDBRANCH   1   2
BRANCH   1  13
HETATM   13  C   UNK N   1      20.711  17.441   6.778  0.00  0.00     0.137 C 
HETATM   14  C   UNK N   1      20.319  16.533   7.933  0.00  0.00     0.041 C 
BRANCH  13  15
HETATM   15  O   UNK N   1      21.099  18.685   7.277  0.00  0.00    -0.394 OA
HETATM   16  H   UNK N   1      21.286  19.498   7.773  0.00  0.00     0.210 HD
ENDBRANCH  13  15
ENDBRANCH   1  13
BRANCH   1  17
HETATM   17  C   UNK N   1      21.373  15.489   5.259  0.00  0.00     0.055 C 
BRANCH  17  18
HETATM   18  C   UNK N   1      22.220  14.275   5.648  0.00  0.00     0.178 C 
BRANCH  18  19
HETATM   19  O   UNK N   1      23.184  14.662   6.556  0.00  0.00    -0.351 OA
BRANCH  19  20
HETATM   20  C   UNK N   1      23.386  13.993   7.718  0.00  0.00     0.069 A 
HETATM   21  C   UNK N   1      24.686  13.642   8.104  0.00  0.00     0.037 A 
HETATM   22  C   UNK N   1      24.904  12.987   9.323  0.00  0.00     0.015 A 
HETATM   23  C   UNK N   1      23.821  12.681  10.156  0.00  0.00    -0.026 A 
HETATM   24  C   UNK N   1      24.024  12.038  11.380  0.00  0.00     0.012 A 
HETATM   25  C   UNK N   1      22.511  13.024   9.759  0.00  0.00    -0.023 A 
HETATM   26  C   UNK N   1      22.929  11.740  12.202  0.00  0.00     0.001 A 
HETATM   27  C   UNK N   1      21.633  12.081  11.801  0.00  0.00     0.001 A 
HETATM   28  C   UNK N   1      21.423  12.724  10.580  0.00  0.00     0.012 A 
HETATM   29  C   UNK N   1      22.305  13.673   8.552  0.00  0.00     0.049 A 
ENDBRANCH  19  20
ENDBRANCH  18  19
ENDBRANCH  17  18
ENDBRANCH   1  17
TORSDOF 8
ENDMDL
