MODEL 1
REMARK VINA RESULT:      -8.1      0.000      0.000
REMARK  8 active torsions:
REMARK  status: ('A' for Active; 'I' for Inactive)
REMARK    1  A    between atoms: C_3  and  C_8 
REMARK    2  A    between atoms: C_17  and  C_18 
REMARK    3  A    between atoms: C_18  and  C_19 
REMARK    4  A    between atoms: C_19  and  C_20 
REMARK    5  A    between atoms: C_20  and  C_21 
REMARK    6  A    between atoms: C_20  and  N_23 
REMARK    7  A    between atoms: C_21  and  O_22 
REMARK    8  A    between atoms: C_28  and  C_30 
REMARK       I    between atoms: C_30  and  N_32 
ROOT
HETATM    1  C   UNK N   1      33.565  14.962   9.639  0.00  0.00     0.043 C 
ENDROOT
BRANCH   1   2
HETATM    2  C   UNK N   1      34.993  14.498   9.796  0.00  0.00    -0.022 A 
HETATM    3  C   UNK N   1      35.573  14.147  11.021  0.00  0.00     0.111 A 
HETATM    4  C   UNK N   1      36.874  13.755  11.125  0.00  0.00     0.069 A 
HETATM    5  O   UNK N   1      35.040  14.127  12.209  0.00  0.00    -0.290 OA
HETATM    6  N   UNK N   1      37.160  13.490  12.414  0.00  0.00    -0.334 N 
HETATM    7  C   UNK N   1      37.715  13.669  10.021  0.00  0.00     0.032 A 
HETATM    8  C   UNK N   1      35.984  13.734  13.047  0.00  0.00     0.159 A 
ATOM      9  HN  UNK N   1      38.045  13.181  12.816  1.00  0.00     0.168 HD
HETATM   10  C   UNK N   1      37.169  14.004   8.766  0.00  0.00     0.003 A 
HETATM   11  C   UNK N   1      35.818  14.415   8.655  0.00  0.00     0.010 A 
BRANCH   8  12
HETATM   12  C   UNK N   1      35.757  13.589  14.490  0.00  0.00     0.015 A 
HETATM   13  C   UNK N   1      36.564  14.308  15.376  0.00  0.00     0.017 A 
HETATM   14  C   UNK N   1      36.381  14.201  16.753  0.00  0.00     0.025 A 
HETATM   15  C   UNK N   1      35.388  13.363  17.257  0.00  0.00     0.034 A 
HETATM   16  C   UNK N   1      34.575  12.633  16.380  0.00  0.00     0.025 A 
HETATM   17 Cl   UNK N   1      35.170  13.227  18.987  0.00  0.00    -0.084 Cl
HETATM   18  C   UNK N   1      34.757  12.748  14.995  0.00  0.00     0.017 A 
ENDBRANCH   8  12
ENDBRANCH   1   2
BRANCH   1  19
HETATM   19  C   UNK N   1      33.357  16.297   8.910  0.00  0.00     0.033 C 
BRANCH  19  20
HETATM   20  C   UNK N   1      32.765  16.145   7.494  0.00  0.00     0.118 C 
BRANCH  20  21
HETATM   21  C   UNK N   1      33.599  16.893   6.420  0.00  0.00     0.137 C 
HETATM   22  C   UNK N   1      34.402  15.958   5.533  0.00  0.00     0.041 C 
BRANCH  21  23
HETATM   23  O   UNK N   1      34.466  17.807   7.025  0.00  0.00    -0.394 OA
HETATM   24  H   UNK N   1      35.071  18.095   7.727  0.00  0.00     0.210 HD
ENDBRANCH  21  23
ENDBRANCH  20  21
BRANCH  20  25
HETATM   25  N   UNK N   1      31.367  16.614   7.493  0.00  0.00    -0.343 N 
HETATM   26  C   UNK N   1      30.646  16.916   6.395  0.00  0.00     0.183 A 
HETATM   27  N   UNK N   1      29.418  17.368   6.720  0.00  0.00    -0.347 N 
HETATM   28  C   UNK N   1      29.383  17.355   8.066  0.00  0.00     0.117 A 
ATOM     29  HN  UNK N   1      28.675  17.659   6.084  1.00  0.00     0.167 HD
HETATM   30  C   UNK N   1      30.582  16.886   8.556  0.00  0.00     0.127 A 
BRANCH  28  31
HETATM   31  C   UNK N   1      28.236  17.816   8.867  0.00  0.00     0.267 C 
HETATM   32  O   UNK N   1      27.766  17.095   9.733  0.00  0.00    -0.266 OA
HETATM   33  N   UNK N   1      27.687  19.025   8.634  0.00  0.00    -0.365 N 
HETATM   34  H   UNK N   1      28.082  19.624   7.960  0.00  0.00     0.159 HD
HETATM   35  H   UNK N   1      26.890  19.308   9.137  0.00  0.00     0.159 HD
ENDBRANCH  28  31
ENDBRANCH  20  25
ENDBRANCH  19  20
ENDBRANCH   1  19
TORSDOF 8
ENDMDL
MODEL 2
REMARK VINA RESULT:      -7.8      3.397      6.211
REMARK  8 active torsions:
REMARK  status: ('A' for Active; 'I' for Inactive)
REMARK    1  A    between atoms: C_3  and  C_8 
REMARK    2  A    between atoms: C_17  and  C_18 
REMARK    3  A    between atoms: C_18  and  C_19 
REMARK    4  A    between atoms: C_19  and  C_20 
REMARK    5  A    between atoms: C_20  and  C_21 
REMARK    6  A    between atoms: C_20  and  N_23 
REMARK    7  A    between atoms: C_21  and  O_22 
REMARK    8  A    between atoms: C_28  and  C_30 
REMARK       I    between atoms: C_30  and  N_32 
ROOT
HETATM    1  C   UNK N   1      29.234  15.917   6.592  0.00  0.00     0.043 C 
ENDROOT
BRANCH   1   2
HETATM    2  C   UNK N   1      30.501  16.515   6.030  0.00  0.00    -0.022 A 
HETATM    3  C   UNK N   1      31.724  16.540   6.711  0.00  0.00     0.111 A 
HETATM    4  C   UNK N   1      32.842  17.111   6.180  0.00  0.00     0.069 A 
HETATM    5  O   UNK N   1      32.023  16.069   7.888  0.00  0.00    -0.290 OA
HETATM    6  N   UNK N   1      33.862  16.998   7.052  0.00  0.00    -0.334 N 
HETATM    7  C   UNK N   1      32.847  17.703   4.921  0.00  0.00     0.032 A 
HETATM    8  C   UNK N   1      33.300  16.339   8.098  0.00  0.00     0.159 A 
ATOM      9  HN  UNK N   1      34.821  17.327   6.951  1.00  0.00     0.168 HD
HETATM   10  C   UNK N   1      31.638  17.691   4.197  0.00  0.00     0.003 A 
HETATM   11  C   UNK N   1      30.474  17.101   4.749  0.00  0.00     0.010 A 
BRANCH   8  12
HETATM   12  C   UNK N   1      34.002  15.958   9.330  0.00  0.00     0.015 A 
HETATM   13  C   UNK N   1      34.964  16.825   9.854  0.00  0.00     0.017 A 
HETATM   14  C   UNK N   1      35.652  16.504  11.021  0.00  0.00     0.025 A 
HETATM   15  C   UNK N   1      35.386  15.302  11.673  0.00  0.00     0.034 A 
HETATM   16  C   UNK N   1      34.426  14.421  11.157  0.00  0.00     0.025 A 
HETATM   17 Cl   UNK N   1      36.259  14.901  13.135  0.00  0.00    -0.084 Cl
HETATM   18  C   UNK N   1      33.731  14.750   9.985  0.00  0.00     0.017 A 
ENDBRANCH   8  12
ENDBRANCH   1   2
BRANCH   1  19
HETATM   19  C   UNK N   1      28.084  16.894   6.875  0.00  0.00     0.033 C 
BRANCH  19  20
HETATM   20  C   UNK N   1      28.546  18.347   7.102  0.00  0.00     0.118 C 
BRANCH  20  21
HETATM   21  C   UNK N   1      28.510  18.755   8.598  0.00  0.00     0.137 C 
HETATM   22  C   UNK N   1      29.828  18.512   9.313  0.00  0.00     0.041 C 
BRANCH  21  23
HETATM   23  O   UNK N   1      27.494  18.066   9.266  0.00  0.00    -0.394 OA
HETATM   24  H   UNK N   1      26.642  17.602   9.308  0.00  0.00     0.210 HD
ENDBRANCH  21  23
ENDBRANCH  20  21
BRANCH  20  25
HETATM   25  N   UNK N   1      27.718  19.259   6.290  0.00  0.00    -0.343 N 
HETATM   26  C   UNK N   1      27.527  20.570   6.538  0.00  0.00     0.183 A 
HETATM   27  N   UNK N   1      26.675  21.120   5.650  0.00  0.00    -0.347 N 
HETATM   28  C   UNK N   1      26.320  20.113   4.831  0.00  0.00     0.117 A 
ATOM     29  HN  UNK N   1      26.365  22.091   5.608  1.00  0.00     0.167 HD
HETATM   30  C   UNK N   1      26.962  18.957   5.214  0.00  0.00     0.127 A 
BRANCH  28  31
HETATM   31  C   UNK N   1      25.357  20.248   3.724  0.00  0.00     0.267 C 
HETATM   32  O   UNK N   1      24.203  19.879   3.869  0.00  0.00    -0.266 OA
HETATM   33  N   UNK N   1      25.752  20.758   2.539  0.00  0.00    -0.365 N 
HETATM   34  H   UNK N   1      26.673  21.087   2.427  0.00  0.00     0.159 HD
HETATM   35  H   UNK N   1      25.118  20.800   1.788  0.00  0.00     0.159 HD
ENDBRANCH  28  31
ENDBRANCH  20  25
ENDBRANCH  19  20
ENDBRANCH   1  19
TORSDOF 8
ENDMDL
MODEL 3
REMARK VINA RESULT:      -7.5      7.278     12.019
REMARK  8 active torsions:
REMARK  status: ('A' for Active; 'I' for Inactive)
REMARK    1  A    between atoms: C_3  and  C_8 
REMARK    2  A    between atoms: C_17  and  C_18 
REMARK    3  A    between atoms: C_18  and  C_19 
REMARK    4  A    between atoms: C_19  and  C_20 
REMARK    5  A    between atoms: C_20  and  C_21 
REMARK    6  A    between atoms: C_20  and  N_23 
REMARK    7  A    between atoms: C_21  and  O_22 
REMARK    8  A    between atoms: C_28  and  C_30 
REMARK       I    between atoms: C_30  and  N_32 
ROOT
HETATM    1  C   UNK N   1      23.588  17.717   5.059  0.00  0.00     0.043 C 
ENDROOT
BRANCH   1   2
HETATM    2  C   UNK N   1      24.510  18.697   4.375  0.00  0.00    -0.022 A 
HETATM    3  C   UNK N   1      25.889  18.769   4.608  0.00  0.00     0.111 A 
HETATM    4  C   UNK N   1      26.686  19.684   3.988  0.00  0.00     0.069 A 
HETATM    5  O   UNK N   1      26.630  18.045   5.397  0.00  0.00    -0.290 OA
HETATM    6  N   UNK N   1      27.956  19.530   4.407  0.00  0.00    -0.334 N 
HETATM    7  C   UNK N   1      26.187  20.606   3.074  0.00  0.00     0.032 A 
HETATM    8  C   UNK N   1      27.868  18.495   5.281  0.00  0.00     0.159 A 
ATOM      9  HN  UNK N   1      28.783  20.061   4.134  1.00  0.00     0.168 HD
HETATM   10  C   UNK N   1      24.805  20.562   2.802  0.00  0.00     0.003 A 
HETATM   11  C   UNK N   1      23.973  19.614   3.448  0.00  0.00     0.010 A 
BRANCH   8  12
HETATM   12  C   UNK N   1      28.996  17.921   6.026  0.00  0.00     0.015 A 
HETATM   13  C   UNK N   1      29.979  17.216   5.325  0.00  0.00     0.017 A 
HETATM   14  C   UNK N   1      31.066  16.658   5.992  0.00  0.00     0.025 A 
HETATM   15  C   UNK N   1      31.176  16.795   7.374  0.00  0.00     0.034 A 
HETATM   16  C   UNK N   1      30.197  17.496   8.089  0.00  0.00     0.025 A 
HETATM   17 Cl   UNK N   1      32.541  16.084   8.206  0.00  0.00    -0.084 Cl
HETATM   18  C   UNK N   1      29.106  18.062   7.415  0.00  0.00     0.017 A 
ENDBRANCH   8  12
ENDBRANCH   1   2
BRANCH   1  19
HETATM   19  C   UNK N   1      22.114  17.752   4.629  0.00  0.00     0.033 C 
BRANCH  19  20
HETATM   20  C   UNK N   1      21.333  16.472   4.988  0.00  0.00     0.118 C 
BRANCH  20  21
HETATM   21  C   UNK N   1      20.225  16.144   3.952  0.00  0.00     0.137 C 
HETATM   22  C   UNK N   1      20.741  16.093   2.525  0.00  0.00     0.041 C 
BRANCH  21  23
HETATM   23  O   UNK N   1      19.191  17.081   4.032  0.00  0.00    -0.394 OA
HETATM   24  H   UNK N   1      18.611  17.694   4.510  0.00  0.00     0.210 HD
ENDBRANCH  21  23
ENDBRANCH  20  21
BRANCH  20  25
HETATM   25  N   UNK N   1      20.763  16.607   6.341  0.00  0.00    -0.343 N 
HETATM   26  C   UNK N   1      20.340  15.588   7.115  0.00  0.00     0.183 A 
HETATM   27  N   UNK N   1      19.819  16.034   8.276  0.00  0.00    -0.347 N 
HETATM   28  C   UNK N   1      19.912  17.375   8.212  0.00  0.00     0.117 A 
ATOM     29  HN  UNK N   1      19.434  15.476   9.039  1.00  0.00     0.167 HD
HETATM   30  C   UNK N   1      20.498  17.742   7.021  0.00  0.00     0.127 A 
BRANCH  28  31
HETATM   31  C   UNK N   1      19.418  18.289   9.256  0.00  0.00     0.267 C 
HETATM   32  O   UNK N   1      20.157  19.141   9.723  0.00  0.00    -0.266 OA
HETATM   33  N   UNK N   1      18.156  18.174   9.717  0.00  0.00    -0.365 N 
HETATM   34  H   UNK N   1      17.545  17.511   9.321  0.00  0.00     0.159 HD
HETATM   35  H   UNK N   1      17.845  18.753  10.449  0.00  0.00     0.159 HD
ENDBRANCH  28  31
ENDBRANCH  20  25
ENDBRANCH  19  20
ENDBRANCH   1  19
TORSDOF 8
ENDMDL
MODEL 4
REMARK VINA RESULT:      -7.4     16.574     20.370
REMARK  8 active torsions:
REMARK  status: ('A' for Active; 'I' for Inactive)
REMARK    1  A    between atoms: C_3  and  C_8 
REMARK    2  A    between atoms: C_17  and  C_18 
REMARK    3  A    between atoms: C_18  and  C_19 
REMARK    4  A    between atoms: C_19  and  C_20 
REMARK    5  A    between atoms: C_20  and  C_21 
REMARK    6  A    between atoms: C_20  and  N_23 
REMARK    7  A    between atoms: C_21  and  O_22 
REMARK    8  A    between atoms: C_28  and  C_30 
REMARK       I    between atoms: C_30  and  N_32 
ROOT
HETATM    1  C   UNK N   1      29.258  22.044  -8.195  0.00  0.00     0.043 C 
ENDROOT
BRANCH   1   2
HETATM    2  C   UNK N   1      27.778  21.931  -7.917  0.00  0.00    -0.022 A 
HETATM    3  C   UNK N   1      27.033  22.902  -7.237  0.00  0.00     0.111 A 
HETATM    4  C   UNK N   1      25.702  22.754  -6.984  0.00  0.00     0.069 A 
HETATM    5  O   UNK N   1      27.421  24.044  -6.745  0.00  0.00    -0.290 OA
HETATM    6  N   UNK N   1      25.250  23.830  -6.312  0.00  0.00    -0.334 N 
HETATM    7  C   UNK N   1      24.989  21.631  -7.391  0.00  0.00     0.032 A 
HETATM    8  C   UNK N   1      26.359  24.604  -6.191  0.00  0.00     0.159 A 
ATOM      9  HN  UNK N   1      24.306  24.016  -5.975  1.00  0.00     0.168 HD
HETATM   10  C   UNK N   1      25.698  20.633  -8.088  0.00  0.00     0.003 A 
HETATM   11  C   UNK N   1      27.083  20.783  -8.349  0.00  0.00     0.010 A 
BRANCH   8  12
HETATM   12  C   UNK N   1      26.405  25.913  -5.527  0.00  0.00     0.015 A 
HETATM   13  C   UNK N   1      26.176  25.980  -4.150  0.00  0.00     0.017 A 
HETATM   14  C   UNK N   1      26.212  27.201  -3.481  0.00  0.00     0.025 A 
HETATM   15  C   UNK N   1      26.472  28.372  -4.191  0.00  0.00     0.034 A 
HETATM   16  C   UNK N   1      26.700  28.320  -5.572  0.00  0.00     0.025 A 
HETATM   17 Cl   UNK N   1      26.508  29.903  -3.345  0.00  0.00    -0.084 Cl
HETATM   18  C   UNK N   1      26.669  27.088  -6.241  0.00  0.00     0.017 A 
ENDBRANCH   8  12
ENDBRANCH   1   2
BRANCH   1  19
HETATM   19  C   UNK N   1      30.140  20.903  -7.669  0.00  0.00     0.033 C 
BRANCH  19  20
HETATM   20  C   UNK N   1      31.408  21.386  -6.936  0.00  0.00     0.118 C 
BRANCH  20  21
HETATM   21  C   UNK N   1      32.639  20.486  -7.225  0.00  0.00     0.137 C 
HETATM   22  C   UNK N   1      33.721  21.197  -8.019  0.00  0.00     0.041 C 
BRANCH  21  23
HETATM   23  O   UNK N   1      32.249  19.333  -7.911  0.00  0.00    -0.394 OA
HETATM   24  H   UNK N   1      32.284  18.715  -8.658  0.00  0.00     0.210 HD
ENDBRANCH  21  23
ENDBRANCH  20  21
BRANCH  20  25
HETATM   25  N   UNK N   1      31.141  21.461  -5.488  0.00  0.00    -0.343 N 
HETATM   26  C   UNK N   1      31.378  20.476  -4.598  0.00  0.00     0.183 A 
HETATM   27  N   UNK N   1      30.977  20.825  -3.359  0.00  0.00    -0.347 N 
HETATM   28  C   UNK N   1      30.465  22.063  -3.489  0.00  0.00     0.117 A 
ATOM     29  HN  UNK N   1      31.046  20.270  -2.506  1.00  0.00     0.167 HD
HETATM   30  C   UNK N   1      30.565  22.469  -4.801  0.00  0.00     0.127 A 
BRANCH  28  31
HETATM   31  C   UNK N   1      29.862  22.828  -2.384  0.00  0.00     0.267 C 
HETATM   32  O   UNK N   1      30.490  23.014  -1.354  0.00  0.00    -0.266 OA
HETATM   33  N   UNK N   1      28.606  23.307  -2.497  0.00  0.00    -0.365 N 
HETATM   34  H   UNK N   1      28.107  23.189  -3.337  0.00  0.00     0.159 HD
HETATM   35  H   UNK N   1      28.189  23.774  -1.738  0.00  0.00     0.159 HD
ENDBRANCH  28  31
ENDBRANCH  20  25
ENDBRANCH  19  20
ENDBRANCH   1  19
TORSDOF 8
ENDMDL
MODEL 5
REMARK VINA RESULT:      -7.4      7.488     12.353
REMARK  8 active torsions:
REMARK  status: ('A' for Active; 'I' for Inactive)
REMARK    1  A    between atoms: C_3  and  C_8 
REMARK    2  A    between atoms: C_17  and  C_18 
REMARK    3  A    between atoms: C_18  and  C_19 
REMARK    4  A    between atoms: C_19  and  C_20 
REMARK    5  A    between atoms: C_20  and  C_21 
REMARK    6  A    between atoms: C_20  and  N_23 
REMARK    7  A    between atoms: C_21  and  O_22 
REMARK    8  A    between atoms: C_28  and  C_30 
REMARK       I    between atoms: C_30  and  N_32 
ROOT
HETATM    1  C   UNK N   1      23.567  17.760   4.841  0.00  0.00     0.043 C 
ENDROOT
BRANCH   1   2
HETATM    2  C   UNK N   1      24.510  18.748   4.197  0.00  0.00    -0.022 A 
HETATM    3  C   UNK N   1      25.885  18.799   4.454  0.00  0.00     0.111 A 
HETATM    4  C   UNK N   1      26.701  19.721   3.871  0.00  0.00     0.069 A 
HETATM    5  O   UNK N   1      26.606  18.047   5.236  0.00  0.00    -0.290 OA
HETATM    6  N   UNK N   1      27.963  19.543   4.306  0.00  0.00    -0.334 N 
HETATM    7  C   UNK N   1      26.226  20.671   2.973  0.00  0.00     0.032 A 
HETATM    8  C   UNK N   1      27.851  18.487   5.151  0.00  0.00     0.159 A 
ATOM      9  HN  UNK N   1      28.799  20.073   4.060  1.00  0.00     0.168 HD
HETATM   10  C   UNK N   1      24.848  20.649   2.678  0.00  0.00     0.003 A 
HETATM   11  C   UNK N   1      23.997  19.693   3.286  0.00  0.00     0.010 A 
BRANCH   8  12
HETATM   12  C   UNK N   1      28.961  17.882   5.898  0.00  0.00     0.015 A 
HETATM   13  C   UNK N   1      28.907  17.870   7.295  0.00  0.00     0.017 A 
HETATM   14  C   UNK N   1      29.938  17.305   8.042  0.00  0.00     0.025 A 
HETATM   15  C   UNK N   1      31.040  16.751   7.393  0.00  0.00     0.034 A 
HETATM   16  C   UNK N   1      31.109  16.761   5.994  0.00  0.00     0.025 A 
HETATM   17 Cl   UNK N   1      32.335  16.051   8.338  0.00  0.00    -0.084 Cl
HETATM   18  C   UNK N   1      30.067  17.325   5.245  0.00  0.00     0.017 A 
ENDBRANCH   8  12
ENDBRANCH   1   2
BRANCH   1  19
HETATM   19  C   UNK N   1      22.445  18.352   5.707  0.00  0.00     0.033 C 
BRANCH  19  20
HETATM   20  C   UNK N   1      21.061  17.727   5.442  0.00  0.00     0.118 C 
BRANCH  20  21
HETATM   21  C   UNK N   1      20.986  16.241   5.884  0.00  0.00     0.137 C 
HETATM   22  C   UNK N   1      19.580  15.803   6.258  0.00  0.00     0.041 C 
BRANCH  21  23
HETATM   23  O   UNK N   1      21.840  16.012   6.966  0.00  0.00    -0.394 OA
HETATM   24  H   UNK N   1      22.708  15.844   7.366  0.00  0.00     0.210 HD
ENDBRANCH  21  23
ENDBRANCH  20  21
BRANCH  20  25
HETATM   25  N   UNK N   1      20.724  17.866   4.012  0.00  0.00    -0.343 N 
HETATM   26  C   UNK N   1      20.403  19.020   3.395  0.00  0.00     0.183 A 
HETATM   27  N   UNK N   1      20.093  18.815   2.099  0.00  0.00    -0.347 N 
HETATM   28  C   UNK N   1      20.215  17.487   1.912  0.00  0.00     0.117 A 
ATOM     29  HN  UNK N   1      19.821  19.515   1.408  1.00  0.00     0.167 HD
HETATM   30  C   UNK N   1      20.610  16.889   3.088  0.00  0.00     0.127 A 
BRANCH  28  31
HETATM   31  C   UNK N   1      19.927  16.801   0.641  0.00  0.00     0.267 C 
HETATM   32  O   UNK N   1      20.348  17.258  -0.410  0.00  0.00    -0.266 OA
HETATM   33  N   UNK N   1      19.179  15.679   0.629  0.00  0.00    -0.365 N 
HETATM   34  H   UNK N   1      18.864  15.288   1.476  0.00  0.00     0.159 HD
HETATM   35  H   UNK N   1      18.947  15.253  -0.226  0.00  0.00     0.159 HD
ENDBRANCH  28  31
ENDBRANCH  20  25
ENDBRANCH  19  20
ENDBRANCH   1  19
TORSDOF 8
ENDMDL
MODEL 6
REMARK VINA RESULT:      -7.4      2.192      3.138
REMARK  8 active torsions:
REMARK  status: ('A' for Active; 'I' for Inactive)
REMARK    1  A    between atoms: C_3  and  C_8 
REMARK    2  A    between atoms: C_17  and  C_18 
REMARK    3  A    between atoms: C_18  and  C_19 
REMARK    4  A    between atoms: C_19  and  C_20 
REMARK    5  A    between atoms: C_20  and  C_21 
REMARK    6  A    between atoms: C_20  and  N_23 
REMARK    7  A    between atoms: C_21  and  O_22 
REMARK    8  A    between atoms: C_28  and  C_30 
REMARK       I    between atoms: C_30  and  N_32 
ROOT
HETATM    1  C   UNK N   1      34.543  12.718   8.456  0.00  0.00     0.043 C 
ENDROOT
BRANCH   1   2
HETATM    2  C   UNK N   1      35.979  12.974   8.846  0.00  0.00    -0.022 A 
HETATM    3  C   UNK N   1      36.451  12.940  10.164  0.00  0.00     0.111 A 
HETATM    4  C   UNK N   1      37.751  13.201  10.479  0.00  0.00     0.069 A 
HETATM    5  O   UNK N   1      35.805  12.678  11.264  0.00  0.00    -0.290 OA
HETATM    6  N   UNK N   1      37.918  13.105  11.812  0.00  0.00    -0.334 N 
HETATM    7  C   UNK N   1      38.701  13.512   9.512  0.00  0.00     0.032 A 
HETATM    8  C   UNK N   1      36.677  12.775  12.254  0.00  0.00     0.159 A 
ATOM      9  HN  UNK N   1      38.768  13.247  12.356  1.00  0.00     0.168 HD
HETATM   10  C   UNK N   1      38.271  13.548   8.171  0.00  0.00     0.003 A 
HETATM   11  C   UNK N   1      36.919  13.281   7.841  0.00  0.00     0.010 A 
BRANCH   8  12
HETATM   12  C   UNK N   1      36.315  12.547  13.658  0.00  0.00     0.015 A 
HETATM   13  C   UNK N   1      36.998  11.564  14.380  0.00  0.00     0.017 A 
HETATM   14  C   UNK N   1      36.687  11.317  15.715  0.00  0.00     0.025 A 
HETATM   15  C   UNK N   1      35.681  12.051  16.340  0.00  0.00     0.034 A 
HETATM   16  C   UNK N   1      34.986  13.037  15.627  0.00  0.00     0.025 A 
HETATM   17 Cl   UNK N   1      35.291  11.730  18.014  0.00  0.00    -0.084 Cl
HETATM   18  C   UNK N   1      35.305  13.288  14.285  0.00  0.00     0.017 A 
ENDBRANCH   8  12
ENDBRANCH   1   2
BRANCH   1  19
HETATM   19  C   UNK N   1      33.509  13.739   8.950  0.00  0.00     0.033 C 
BRANCH  19  20
HETATM   20  C   UNK N   1      34.003  15.198   8.899  0.00  0.00     0.118 C 
BRANCH  20  21
HETATM   21  C   UNK N   1      34.048  15.859  10.302  0.00  0.00     0.137 C 
HETATM   22  C   UNK N   1      35.417  16.416  10.653  0.00  0.00     0.041 C 
BRANCH  21  23
HETATM   23  O   UNK N   1      33.660  14.944  11.284  0.00  0.00    -0.394 OA
HETATM   24  H   UNK N   1      33.714  14.544  12.166  0.00  0.00     0.210 HD
ENDBRANCH  21  23
ENDBRANCH  20  21
BRANCH  20  25
HETATM   25  N   UNK N   1      33.150  15.975   7.980  0.00  0.00    -0.343 N 
HETATM   26  C   UNK N   1      31.941  16.488   8.283  0.00  0.00     0.183 A 
HETATM   27  N   UNK N   1      31.383  17.098   7.218  0.00  0.00    -0.347 N 
HETATM   28  C   UNK N   1      32.274  16.947   6.220  0.00  0.00     0.117 A 
ATOM     29  HN  UNK N   1      30.480  17.571   7.177  1.00  0.00     0.167 HD
HETATM   30  C   UNK N   1      33.373  16.257   6.680  0.00  0.00     0.127 A 
BRANCH  28  31
HETATM   31  C   UNK N   1      32.059  17.425   4.843  0.00  0.00     0.267 C 
HETATM   32  O   UNK N   1      32.998  17.489   4.065  0.00  0.00    -0.266 OA
HETATM   33  N   UNK N   1      30.832  17.815   4.443  0.00  0.00    -0.365 N 
HETATM   34  H   UNK N   1      30.066  17.735   5.055  0.00  0.00     0.159 HD
HETATM   35  H   UNK N   1      30.703  18.181   3.538  0.00  0.00     0.159 HD
ENDBRANCH  28  31
ENDBRANCH  20  25
ENDBRANCH  19  20
ENDBRANCH   1  19
TORSDOF 8
ENDMDL
MODEL 7
REMARK VINA RESULT:      -7.3      7.485     12.114
REMARK  8 active torsions:
REMARK  status: ('A' for Active; 'I' for Inactive)
REMARK    1  A    between atoms: C_3  and  C_8 
REMARK    2  A    between atoms: C_17  and  C_18 
REMARK    3  A    between atoms: C_18  and  C_19 
REMARK    4  A    between atoms: C_19  and  C_20 
REMARK    5  A    between atoms: C_20  and  C_21 
REMARK    6  A    between atoms: C_20  and  N_23 
REMARK    7  A    between atoms: C_21  and  O_22 
REMARK    8  A    between atoms: C_28  and  C_30 
REMARK       I    between atoms: C_30  and  N_32 
ROOT
HETATM    1  C   UNK N   1      23.778  17.870   5.067  0.00  0.00     0.043 C 
ENDROOT
BRANCH   1   2
HETATM    2  C   UNK N   1      24.805  18.773   4.426  0.00  0.00    -0.022 A 
HETATM    3  C   UNK N   1      26.165  18.771   4.758  0.00  0.00     0.111 A 
HETATM    4  C   UNK N   1      27.058  19.619   4.174  0.00  0.00     0.069 A 
HETATM    5  O   UNK N   1      26.803  18.030   5.619  0.00  0.00    -0.290 OA
HETATM    6  N   UNK N   1      28.284  19.404   4.689  0.00  0.00    -0.334 N 
HETATM    7  C   UNK N   1      26.682  20.539   3.202  0.00  0.00     0.032 A 
HETATM    8  C   UNK N   1      28.070  18.403   5.582  0.00  0.00     0.159 A 
ATOM      9  HN  UNK N   1      29.158  19.878   4.463  1.00  0.00     0.168 HD
HETATM   10  C   UNK N   1      25.323  20.568   2.830  0.00  0.00     0.003 A 
HETATM   11  C   UNK N   1      24.392  19.690   3.438  0.00  0.00     0.010 A 
BRANCH   8  12
HETATM   12  C   UNK N   1      29.106  17.788   6.422  0.00  0.00     0.015 A 
HETATM   13  C   UNK N   1      30.066  16.971   5.820  0.00  0.00     0.017 A 
HETATM   14  C   UNK N   1      31.067  16.369   6.580  0.00  0.00     0.025 A 
HETATM   15  C   UNK N   1      31.110  16.577   7.957  0.00  0.00     0.034 A 
HETATM   16  C   UNK N   1      30.151  17.391   8.574  0.00  0.00     0.025 A 
HETATM   17 Cl   UNK N   1      32.364  15.812   8.906  0.00  0.00    -0.084 Cl
HETATM   18  C   UNK N   1      29.149  18.000   7.806  0.00  0.00     0.017 A 
ENDBRANCH   8  12
ENDBRANCH   1   2
BRANCH   1  19
HETATM   19  C   UNK N   1      22.895  17.055   4.112  0.00  0.00     0.033 C 
BRANCH  19  20
HETATM   20  C   UNK N   1      21.393  17.382   4.223  0.00  0.00     0.118 C 
BRANCH  20  21
HETATM   21  C   UNK N   1      20.497  16.283   3.592  0.00  0.00     0.137 C 
HETATM   22  C   UNK N   1      21.076  15.707   2.311  0.00  0.00     0.041 C 
BRANCH  21  23
HETATM   23  O   UNK N   1      19.219  16.786   3.332  0.00  0.00    -0.394 OA
HETATM   24  H   UNK N   1      18.366  17.164   3.596  0.00  0.00     0.210 HD
ENDBRANCH  21  23
ENDBRANCH  20  21
BRANCH  20  25
HETATM   25  N   UNK N   1      21.128  18.694   3.602  0.00  0.00    -0.343 N 
HETATM   26  C   UNK N   1      20.686  19.790   4.251  0.00  0.00     0.183 A 
HETATM   27  N   UNK N   1      20.488  20.818   3.402  0.00  0.00    -0.347 N 
HETATM   28  C   UNK N   1      20.807  20.338   2.186  0.00  0.00     0.117 A 
ATOM     29  HN  UNK N   1      20.163  21.758   3.632  1.00  0.00     0.167 HD
HETATM   30  C   UNK N   1      21.209  19.026   2.297  0.00  0.00     0.127 A 
BRANCH  28  31
HETATM   31  C   UNK N   1      20.697  21.112   0.937  0.00  0.00     0.267 C 
HETATM   32  O   UNK N   1      21.260  20.725  -0.074  0.00  0.00    -0.266 OA
HETATM   33  N   UNK N   1      19.992  22.262   0.911  0.00  0.00    -0.365 N 
HETATM   34  H   UNK N   1      19.509  22.561   1.714  0.00  0.00     0.159 HD
HETATM   35  H   UNK N   1      19.962  22.800   0.088  0.00  0.00     0.159 HD
ENDBRANCH  28  31
ENDBRANCH  20  25
ENDBRANCH  19  20
ENDBRANCH   1  19
TORSDOF 8
ENDMDL
MODEL 8
REMARK VINA RESULT:      -7.3     10.742     12.878
REMARK  8 active torsions:
REMARK  status: ('A' for Active; 'I' for Inactive)
REMARK    1  A    between atoms: C_3  and  C_8 
REMARK    2  A    between atoms: C_17  and  C_18 
REMARK    3  A    between atoms: C_18  and  C_19 
REMARK    4  A    between atoms: C_19  and  C_20 
REMARK    5  A    between atoms: C_20  and  C_21 
REMARK    6  A    between atoms: C_20  and  N_23 
REMARK    7  A    between atoms: C_21  and  O_22 
REMARK    8  A    between atoms: C_28  and  C_30 
REMARK       I    between atoms: C_30  and  N_32 
ROOT
HETATM    1  C   UNK N   1      24.072  17.484   5.074  0.00  0.00     0.043 C 
ENDROOT
BRANCH   1   2
HETATM    2  C   UNK N   1      24.109  16.049   4.608  0.00  0.00    -0.022 A 
HETATM    3  C   UNK N   1      23.970  14.946   5.460  0.00  0.00     0.111 A 
HETATM    4  C   UNK N   1      24.033  13.662   5.005  0.00  0.00     0.069 A 
HETATM    5  O   UNK N   1      23.774  14.917   6.747  0.00  0.00    -0.290 OA
HETATM    6  N   UNK N   1      23.878  12.812   6.038  0.00  0.00    -0.334 N 
HETATM    7  C   UNK N   1      24.231  13.359   3.663  0.00  0.00     0.032 A 
HETATM    8  C   UNK N   1      23.717  13.644   7.099  0.00  0.00     0.159 A 
ATOM      9  HN  UNK N   1      23.880  11.793   6.026  1.00  0.00     0.168 HD
HETATM   10  C   UNK N   1      24.365  14.440   2.769  0.00  0.00     0.003 A 
HETATM   11  C   UNK N   1      24.305  15.775   3.239  0.00  0.00     0.010 A 
BRANCH   8  12
HETATM   12  C   UNK N   1      23.505  13.211   8.486  0.00  0.00     0.015 A 
HETATM   13  C   UNK N   1      24.588  12.699   9.206  0.00  0.00     0.017 A 
HETATM   14  C   UNK N   1      24.431  12.278  10.525  0.00  0.00     0.025 A 
HETATM   15  C   UNK N   1      23.180  12.361  11.134  0.00  0.00     0.034 A 
HETATM   16  C   UNK N   1      22.085  12.868  10.422  0.00  0.00     0.025 A 
HETATM   17 Cl   UNK N   1      22.988  11.823  12.787  0.00  0.00    -0.084 Cl
HETATM   18  C   UNK N   1      22.248  13.296   9.097  0.00  0.00     0.017 A 
ENDBRANCH   8  12
ENDBRANCH   1   2
BRANCH   1  19
HETATM   19  C   UNK N   1      23.318  18.474   4.175  0.00  0.00     0.033 C 
BRANCH  19  20
HETATM   20  C   UNK N   1      21.853  18.705   4.597  0.00  0.00     0.118 C 
BRANCH  20  21
HETATM   21  C   UNK N   1      21.470  17.906   5.871  0.00  0.00     0.137 C 
HETATM   22  C   UNK N   1      20.438  16.824   5.607  0.00  0.00     0.041 C 
BRANCH  21  23
HETATM   23  O   UNK N   1      20.987  18.767   6.860  0.00  0.00    -0.394 OA
HETATM   24  H   UNK N   1      20.508  19.553   7.167  0.00  0.00     0.210 HD
ENDBRANCH  21  23
ENDBRANCH  20  21
BRANCH  20  25
HETATM   25  N   UNK N   1      20.958  18.363   3.476  0.00  0.00    -0.343 N 
HETATM   26  C   UNK N   1      19.790  18.974   3.195  0.00  0.00     0.183 A 
HETATM   27  N   UNK N   1      19.175  18.401   2.141  0.00  0.00    -0.347 N 
HETATM   28  C   UNK N   1      19.985  17.394   1.764  0.00  0.00     0.117 A 
ATOM     29  HN  UNK N   1      18.285  18.670   1.720  1.00  0.00     0.167 HD
HETATM   30  C   UNK N   1      21.094  17.363   2.580  0.00  0.00     0.127 A 
BRANCH  28  31
HETATM   31  C   UNK N   1      19.686  16.459   0.667  0.00  0.00     0.267 C 
HETATM   32  O   UNK N   1      20.503  15.609   0.347  0.00  0.00    -0.266 OA
HETATM   33  N   UNK N   1      18.520  16.550  -0.004  0.00  0.00    -0.365 N 
HETATM   34  H   UNK N   1      17.844  17.211   0.270  0.00  0.00     0.159 HD
HETATM   35  H   UNK N   1      18.345  15.956  -0.769  0.00  0.00     0.159 HD
ENDBRANCH  28  31
ENDBRANCH  20  25
ENDBRANCH  19  20
ENDBRANCH   1  19
TORSDOF 8
ENDMDL
MODEL 9
REMARK VINA RESULT:      -7.3     10.855     13.115
REMARK  8 active torsions:
REMARK  status: ('A' for Active; 'I' for Inactive)
REMARK    1  A    between atoms: C_3  and  C_8 
REMARK    2  A    between atoms: C_17  and  C_18 
REMARK    3  A    between atoms: C_18  and  C_19 
REMARK    4  A    between atoms: C_19  and  C_20 
REMARK    5  A    between atoms: C_20  and  C_21 
REMARK    6  A    between atoms: C_20  and  N_23 
REMARK    7  A    between atoms: C_21  and  O_22 
REMARK    8  A    between atoms: C_28  and  C_30 
REMARK       I    between atoms: C_30  and  N_32 
ROOT
HETATM    1  C   UNK N   1      22.706  15.113   4.475  0.00  0.00     0.043 C 
ENDROOT
BRANCH   1   2
HETATM    2  C   UNK N   1      23.282  13.717   4.444  0.00  0.00    -0.022 A 
HETATM    3  C   UNK N   1      23.522  12.944   5.587  0.00  0.00     0.111 A 
HETATM    4  C   UNK N   1      24.066  11.696   5.521  0.00  0.00     0.069 A 
HETATM    5  O   UNK N   1      23.300  13.230   6.838  0.00  0.00    -0.290 OA
HETATM    6  N   UNK N   1      24.191  11.194   6.764  0.00  0.00    -0.334 N 
HETATM    7  C   UNK N   1      24.413  11.100   4.313  0.00  0.00     0.032 A 
HETATM    8  C   UNK N   1      23.697  12.188   7.547  0.00  0.00     0.159 A 
ATOM      9  HN  UNK N   1      24.565  10.290   7.048  1.00  0.00     0.168 HD
HETATM   10  C   UNK N   1      24.179  11.840   3.137  0.00  0.00     0.003 A 
HETATM   11  C   UNK N   1      23.617  13.139   3.203  0.00  0.00     0.010 A 
BRANCH   8  12
HETATM   12  C   UNK N   1      23.604  12.140   9.012  0.00  0.00     0.015 A 
HETATM   13  C   UNK N   1      22.340  12.078   9.606  0.00  0.00     0.017 A 
HETATM   14  C   UNK N   1      22.206  12.029  10.991  0.00  0.00     0.025 A 
HETATM   15  C   UNK N   1      23.343  12.048  11.798  0.00  0.00     0.034 A 
HETATM   16  C   UNK N   1      24.615  12.114  11.216  0.00  0.00     0.025 A 
HETATM   17 Cl   UNK N   1      23.167  11.994  13.537  0.00  0.00    -0.084 Cl
HETATM   18  C   UNK N   1      24.747  12.157   9.821  0.00  0.00     0.017 A 
ENDBRANCH   8  12
ENDBRANCH   1   2
BRANCH   1  19
HETATM   19  C   UNK N   1      21.395  15.327   3.706  0.00  0.00     0.033 C 
BRANCH  19  20
HETATM   20  C   UNK N   1      20.608  16.574   4.157  0.00  0.00     0.118 C 
BRANCH  20  21
HETATM   21  C   UNK N   1      19.211  16.220   4.731  0.00  0.00     0.137 C 
HETATM   22  C   UNK N   1      19.219  16.024   6.237  0.00  0.00     0.041 C 
BRANCH  21  23
HETATM   23  O   UNK N   1      18.713  15.065   4.121  0.00  0.00    -0.394 OA
HETATM   24  H   UNK N   1      18.221  14.228   4.120  0.00  0.00     0.210 HD
ENDBRANCH  21  23
ENDBRANCH  20  21
BRANCH  20  25
HETATM   25  N   UNK N   1      20.488  17.514   3.026  0.00  0.00    -0.343 N 
HETATM   26  C   UNK N   1      20.079  17.192   1.783  0.00  0.00     0.183 A 
HETATM   27  N   UNK N   1      20.127  18.256   0.957  0.00  0.00    -0.347 N 
HETATM   28  C   UNK N   1      20.593  19.268   1.713  0.00  0.00     0.117 A 
ATOM     29  HN  UNK N   1      19.869  18.288  -0.030  1.00  0.00     0.167 HD
HETATM   30  C   UNK N   1      20.816  18.822   2.996  0.00  0.00     0.127 A 
BRANCH  28  31
HETATM   31  C   UNK N   1      20.851  20.627   1.206  0.00  0.00     0.267 C 
HETATM   32  O   UNK N   1      21.063  20.806   0.017  0.00  0.00    -0.266 OA
HETATM   33  N   UNK N   1      20.878  21.675   2.054  0.00  0.00    -0.365 N 
HETATM   34  H   UNK N   1      20.675  21.541   3.008  0.00  0.00     0.159 HD
HETATM   35  H   UNK N   1      21.100  22.573   1.719  0.00  0.00     0.159 HD
ENDBRANCH  28  31
ENDBRANCH  20  25
ENDBRANCH  19  20
ENDBRANCH   1  19
TORSDOF 8
ENDMDL
