MODEL 1
REMARK VINA RESULT:      -8.5      0.000      0.000
REMARK  6 active torsions:
REMARK  status: ('A' for Active; 'I' for Inactive)
REMARK    1  A    between atoms: N_7  and  C_13 
REMARK    2  A    between atoms: C_13  and  C_14 
REMARK    3  A    between atoms: C_14  and  C_15 
REMARK    4  A    between atoms: C_15  and  C_16 
REMARK    5  A    between atoms: C_16  and  N_17 
REMARK    6  A    between atoms: C_20  and  C_23 
ROOT
HETATM    1  C   UNK N   1      35.752  14.019   9.784  0.00  0.00     0.134 C 
ENDROOT
BRANCH   1   2
HETATM    2  N   UNK N   1      35.266  15.306   9.272  0.00  0.00    -0.299 N 
HETATM    3  C   UNK N   1      34.943  15.432   7.946  0.00  0.00     0.057 A 
HETATM    4  C   UNK N   1      35.102  14.349   7.061  0.00  0.00     0.031 A 
HETATM    5  C   UNK N   1      34.425  16.656   7.452  0.00  0.00     0.098 A 
HETATM    6  C   UNK N   1      34.755  14.469   5.716  0.00  0.00     0.005 A 
HETATM    7  C   UNK N   1      34.239  15.670   5.232  0.00  0.00     0.043 A 
HETATM    8  C   UNK N   1      34.073  16.762   6.086  0.00  0.00     0.134 A 
HETATM    9  F   UNK N   1      33.559  17.911   5.581  0.00  0.00    -0.205 F 
HETATM   10  C   UNK N   1      34.271  17.726   8.350  0.00  0.00     0.265 A 
HETATM   11  N   UNK N   1      34.608  17.564   9.660  0.00  0.00    -0.274 N 
HETATM   12  O   UNK N   1      33.832  18.801   7.978  0.00  0.00    -0.267 OA
HETATM   13  C   UNK N   1      35.091  16.377  10.132  0.00  0.00     0.329 A 
HETATM   14  H   UNK N   1      34.502  18.321  10.282  0.00  0.00     0.173 HD
HETATM   15  O   UNK N   1      35.356  16.276  11.317  0.00  0.00    -0.246 OA
ENDBRANCH   1   2
BRANCH   1  16
HETATM   16  C   UNK N   1      37.255  14.011   9.968  0.00  0.00     0.022 C 
BRANCH  16  17
HETATM   17  C   UNK N   1      37.577  13.055  11.104  0.00  0.00     0.032 C 
BRANCH  17  18
HETATM   18  C   UNK N   1      36.314  12.318  11.525  0.00  0.00     0.273 C 
BRANCH  18  19
HETATM   19  N   UNK N   1      36.056  12.314  12.972  0.00  0.00     0.092 N 
HETATM   20  C   UNK N   1      36.333  13.634  13.520  0.00  0.00     0.277 C 
HETATM   21  C   UNK N   1      36.428  13.529  15.044  0.00  0.00     0.069 C 
HETATM   22  C   UNK N   1      35.393  12.590  15.646  0.00  0.00    -0.048 C 
HETATM   23  C   UNK N   1      34.585  11.862  14.852  0.00  0.00     0.011 C 
HETATM   24  C   UNK N   1      34.692  11.935  13.360  0.00  0.00     0.300 C 
BRANCH  22  25
HETATM   25  C   UNK N   1      35.316  12.438  17.118  0.00  0.00    -0.030 A 
HETATM   26  C   UNK N   1      35.111  13.564  17.928  0.00  0.00     0.012 A 
HETATM   27  C   UNK N   1      35.061  13.436  19.318  0.00  0.00     0.001 A 
HETATM   28  C   UNK N   1      35.211  12.180  19.909  0.00  0.00     0.000 A 
HETATM   29  C   UNK N   1      35.412  11.050  19.113  0.00  0.00     0.001 A 
HETATM   30  C   UNK N   1      35.469  11.178  17.722  0.00  0.00     0.012 A 
ENDBRANCH  22  25
ENDBRANCH  18  19
ENDBRANCH  17  18
ENDBRANCH  16  17
ENDBRANCH   1  16
TORSDOF 6
ENDMDL
MODEL 2
REMARK VINA RESULT:      -8.0      9.528     12.730
REMARK  6 active torsions:
REMARK  status: ('A' for Active; 'I' for Inactive)
REMARK    1  A    between atoms: N_7  and  C_13 
REMARK    2  A    between atoms: C_13  and  C_14 
REMARK    3  A    between atoms: C_14  and  C_15 
REMARK    4  A    between atoms: C_15  and  C_16 
REMARK    5  A    between atoms: C_16  and  N_17 
REMARK    6  A    between atoms: C_20  and  C_23 
ROOT
HETATM    1  C   UNK N   1      24.908  14.092   7.681  0.00  0.00     0.134 C 
ENDROOT
BRANCH   1   2
HETATM    2  N   UNK N   1      23.582  13.852   8.265  0.00  0.00    -0.299 N 
HETATM    3  C   UNK N   1      23.474  13.173   9.450  0.00  0.00     0.057 A 
HETATM    4  C   UNK N   1      24.619  12.673  10.100  0.00  0.00     0.031 A 
HETATM    5  C   UNK N   1      22.203  12.979  10.048  0.00  0.00     0.098 A 
HETATM    6  C   UNK N   1      24.512  11.999  11.316  0.00  0.00     0.005 A 
HETATM    7  C   UNK N   1      23.264  11.817  11.907  0.00  0.00     0.043 A 
HETATM    8  C   UNK N   1      22.111  12.299  11.284  0.00  0.00     0.134 A 
HETATM    9  F   UNK N   1      20.914  12.110  11.894  0.00  0.00    -0.205 F 
HETATM   10  C   UNK N   1      21.071  13.487   9.386  0.00  0.00     0.265 A 
HETATM   11  N   UNK N   1      21.218  14.152   8.206  0.00  0.00    -0.274 N 
HETATM   12  O   UNK N   1      19.954  13.347   9.854  0.00  0.00    -0.267 OA
HETATM   13  C   UNK N   1      22.447  14.348   7.645  0.00  0.00     0.329 A 
HETATM   14  H   UNK N   1      20.419  14.499   7.747  0.00  0.00     0.173 HD
HETATM   15  O   UNK N   1      22.528  14.969   6.600  0.00  0.00    -0.246 OA
ENDBRANCH   1   2
BRANCH   1  16
HETATM   16  C   UNK N   1      25.288  13.023   6.677  0.00  0.00     0.022 C 
BRANCH  16  17
HETATM   17  C   UNK N   1      26.047  13.700   5.547  0.00  0.00     0.032 C 
BRANCH  17  18
HETATM   18  C   UNK N   1      26.131  15.196   5.813  0.00  0.00     0.273 C 
BRANCH  18  19
HETATM   19  N   UNK N   1      27.491  15.705   6.044  0.00  0.00     0.092 N 
HETATM   20  C   UNK N   1      28.424  15.019   5.163  0.00  0.00     0.277 C 
HETATM   21  C   UNK N   1      29.850  15.271   5.658  0.00  0.00     0.069 C 
HETATM   22  C   UNK N   1      30.074  16.696   6.141  0.00  0.00    -0.048 C 
HETATM   23  C   UNK N   1      29.047  17.564   6.215  0.00  0.00     0.011 C 
HETATM   24  C   UNK N   1      27.655  17.151   5.847  0.00  0.00     0.300 C 
BRANCH  22  25
HETATM   25  C   UNK N   1      31.425  17.110   6.586  0.00  0.00    -0.030 A 
HETATM   26  C   UNK N   1      32.490  17.122   5.674  0.00  0.00     0.012 A 
HETATM   27  C   UNK N   1      33.773  17.488   6.089  0.00  0.00     0.001 A 
HETATM   28  C   UNK N   1      34.001  17.848   7.418  0.00  0.00     0.000 A 
HETATM   29  C   UNK N   1      32.947  17.844   8.335  0.00  0.00     0.001 A 
HETATM   30  C   UNK N   1      31.665  17.472   7.924  0.00  0.00     0.012 A 
ENDBRANCH  22  25
ENDBRANCH  18  19
ENDBRANCH  17  18
ENDBRANCH  16  17
ENDBRANCH   1  16
TORSDOF 6
ENDMDL
MODEL 3
REMARK VINA RESULT:      -7.9      1.298      1.767
REMARK  6 active torsions:
REMARK  status: ('A' for Active; 'I' for Inactive)
REMARK    1  A    between atoms: N_7  and  C_13 
REMARK    2  A    between atoms: C_13  and  C_14 
REMARK    3  A    between atoms: C_14  and  C_15 
REMARK    4  A    between atoms: C_15  and  C_16 
REMARK    5  A    between atoms: C_16  and  N_17 
REMARK    6  A    between atoms: C_20  and  C_23 
ROOT
HETATM    1  C   UNK N   1      34.933  14.654   9.321  0.00  0.00     0.134 C 
ENDROOT
BRANCH   1   2
HETATM    2  N   UNK N   1      34.611  15.547   8.200  0.00  0.00    -0.299 N 
HETATM    3  C   UNK N   1      34.482  15.032   6.937  0.00  0.00     0.057 A 
HETATM    4  C   UNK N   1      34.686  13.660   6.695  0.00  0.00     0.031 A 
HETATM    5  C   UNK N   1      34.123  15.876   5.856  0.00  0.00     0.098 A 
HETATM    6  C   UNK N   1      34.535  13.131   5.413  0.00  0.00     0.005 A 
HETATM    7  C   UNK N   1      34.174  13.960   4.354  0.00  0.00     0.043 A 
HETATM    8  C   UNK N   1      33.968  15.325   4.563  0.00  0.00     0.134 A 
HETATM    9  F   UNK N   1      33.608  16.099   3.508  0.00  0.00    -0.205 F 
HETATM   10  C   UNK N   1      33.921  17.243   6.117  0.00  0.00     0.265 A 
HETATM   11  N   UNK N   1      34.064  17.718   7.386  0.00  0.00    -0.274 N 
HETATM   12  O   UNK N   1      33.612  18.014   5.225  0.00  0.00    -0.267 OA
HETATM   13  C   UNK N   1      34.395  16.895   8.424  0.00  0.00     0.329 A 
HETATM   14  H   UNK N   1      33.926  18.679   7.558  0.00  0.00     0.173 HD
HETATM   15  O   UNK N   1      34.489  17.366   9.543  0.00  0.00    -0.246 OA
ENDBRANCH   1   2
BRANCH   1  16
HETATM   16  C   UNK N   1      36.423  14.589   9.586  0.00  0.00     0.022 C 
BRANCH  16  17
HETATM   17  C   UNK N   1      36.618  14.292  11.064  0.00  0.00     0.032 C 
BRANCH  17  18
HETATM   18  C   UNK N   1      35.273  14.341  11.775  0.00  0.00     0.273 C 
BRANCH  18  19
HETATM   19  N   UNK N   1      35.295  13.867  13.167  0.00  0.00     0.092 N 
HETATM   20  C   UNK N   1      35.046  12.434  13.197  0.00  0.00     0.277 C 
HETATM   21  C   UNK N   1      34.699  12.020  14.629  0.00  0.00     0.069 C 
HETATM   22  C   UNK N   1      35.543  12.729  15.678  0.00  0.00    -0.048 C 
HETATM   23  C   UNK N   1      36.403  13.702  15.322  0.00  0.00     0.011 C 
HETATM   24  C   UNK N   1      36.543  14.130  13.894  0.00  0.00     0.300 C 
BRANCH  22  25
HETATM   25  C   UNK N   1      35.370  12.382  17.108  0.00  0.00    -0.030 A 
HETATM   26  C   UNK N   1      35.250  13.399  18.066  0.00  0.00     0.012 A 
HETATM   27  C   UNK N   1      35.111  13.083  19.420  0.00  0.00     0.001 A 
HETATM   28  C   UNK N   1      35.086  11.748  19.826  0.00  0.00     0.000 A 
HETATM   29  C   UNK N   1      35.201  10.725  18.881  0.00  0.00     0.001 A 
HETATM   30  C   UNK N   1      35.347  11.040  17.527  0.00  0.00     0.012 A 
ENDBRANCH  22  25
ENDBRANCH  18  19
ENDBRANCH  17  18
ENDBRANCH  16  17
ENDBRANCH   1  16
TORSDOF 6
ENDMDL
MODEL 4
REMARK VINA RESULT:      -7.7     21.004     23.690
REMARK  6 active torsions:
REMARK  status: ('A' for Active; 'I' for Inactive)
REMARK    1  A    between atoms: N_7  and  C_13 
REMARK    2  A    between atoms: C_13  and  C_14 
REMARK    3  A    between atoms: C_14  and  C_15 
REMARK    4  A    between atoms: C_15  and  C_16 
REMARK    5  A    between atoms: C_16  and  N_17 
REMARK    6  A    between atoms: C_20  and  C_23 
ROOT
HETATM    1  C   UNK N   1      28.849  21.954  -8.118  0.00  0.00     0.134 C 
ENDROOT
BRANCH   1   2
HETATM    2  N   UNK N   1      27.827  22.522  -7.229  0.00  0.00    -0.299 N 
HETATM    3  C   UNK N   1      28.206  23.332  -6.190  0.00  0.00     0.057 A 
HETATM    4  C   UNK N   1      29.566  23.600  -5.946  0.00  0.00     0.031 A 
HETATM    5  C   UNK N   1      27.225  23.926  -5.356  0.00  0.00     0.098 A 
HETATM    6  C   UNK N   1      29.951  24.441  -4.901  0.00  0.00     0.005 A 
HETATM    7  C   UNK N   1      28.986  25.030  -4.087  0.00  0.00     0.043 A 
HETATM    8  C   UNK N   1      27.630  24.779  -4.304  0.00  0.00     0.134 A 
HETATM    9  F   UNK N   1      26.719  25.379  -3.496  0.00  0.00    -0.205 F 
HETATM   10  C   UNK N   1      25.872  23.648  -5.616  0.00  0.00     0.265 A 
HETATM   11  N   UNK N   1      25.536  22.833  -6.655  0.00  0.00    -0.274 N 
HETATM   12  O   UNK N   1      24.987  24.130  -4.930  0.00  0.00    -0.267 OA
HETATM   13  C   UNK N   1      26.485  22.278  -7.464  0.00  0.00     0.329 A 
HETATM   14  H   UNK N   1      24.585  22.640  -6.827  0.00  0.00     0.173 HD
HETATM   15  O   UNK N   1      26.132  21.575  -8.393  0.00  0.00    -0.246 OA
ENDBRANCH   1   2
BRANCH   1  16
HETATM   16  C   UNK N   1      29.436  22.996  -9.047  0.00  0.00     0.022 C 
BRANCH  16  17
HETATM   17  C   UNK N   1      28.707  22.894 -10.377  0.00  0.00     0.032 C 
BRANCH  17  18
HETATM   18  C   UNK N   1      28.118  24.249 -10.741  0.00  0.00     0.273 C 
BRANCH  18  19
HETATM   19  N   UNK N   1      27.725  25.079  -9.594  0.00  0.00     0.092 N 
HETATM   20  C   UNK N   1      28.400  26.366  -9.669  0.00  0.00     0.277 C 
HETATM   21  C   UNK N   1      28.289  27.065  -8.313  0.00  0.00     0.069 C 
HETATM   22  C   UNK N   1      26.928  26.889  -7.657  0.00  0.00    -0.048 C 
HETATM   23  C   UNK N   1      26.000  26.085  -8.209  0.00  0.00     0.011 C 
HETATM   24  C   UNK N   1      26.283  25.325  -9.469  0.00  0.00     0.300 C 
BRANCH  22  25
HETATM   25  C   UNK N   1      26.647  27.566  -6.369  0.00  0.00    -0.030 A 
HETATM   26  C   UNK N   1      27.620  28.389  -5.784  0.00  0.00     0.012 A 
HETATM   27  C   UNK N   1      27.375  29.013  -4.558  0.00  0.00     0.001 A 
HETATM   28  C   UNK N   1      26.153  28.823  -3.910  0.00  0.00     0.000 A 
HETATM   29  C   UNK N   1      25.174  28.009  -4.485  0.00  0.00     0.001 A 
HETATM   30  C   UNK N   1      25.420  27.379  -5.708  0.00  0.00     0.012 A 
ENDBRANCH  22  25
ENDBRANCH  18  19
ENDBRANCH  17  18
ENDBRANCH  16  17
ENDBRANCH   1  16
TORSDOF 6
ENDMDL
MODEL 5
REMARK VINA RESULT:      -7.7     20.608     23.069
REMARK  6 active torsions:
REMARK  status: ('A' for Active; 'I' for Inactive)
REMARK    1  A    between atoms: N_7  and  C_13 
REMARK    2  A    between atoms: C_13  and  C_14 
REMARK    3  A    between atoms: C_14  and  C_15 
REMARK    4  A    between atoms: C_15  and  C_16 
REMARK    5  A    between atoms: C_16  and  N_17 
REMARK    6  A    between atoms: C_20  and  C_23 
ROOT
HETATM    1  C   UNK N   1      28.477  29.467  -4.228  0.00  0.00     0.134 C 
ENDROOT
BRANCH   1   2
HETATM    2  N   UNK N   1      27.440  28.509  -4.630  0.00  0.00    -0.299 N 
HETATM    3  C   UNK N   1      27.426  28.020  -5.910  0.00  0.00     0.057 A 
HETATM    4  C   UNK N   1      28.377  28.452  -6.855  0.00  0.00     0.031 A 
HETATM    5  C   UNK N   1      26.460  27.056  -6.295  0.00  0.00     0.098 A 
HETATM    6  C   UNK N   1      28.376  27.940  -8.153  0.00  0.00     0.005 A 
HETATM    7  C   UNK N   1      27.431  26.987  -8.527  0.00  0.00     0.043 A 
HETATM    8  C   UNK N   1      26.474  26.543  -7.612  0.00  0.00     0.134 A 
HETATM    9  F   UNK N   1      25.577  25.607  -8.011  0.00  0.00    -0.205 F 
HETATM   10  C   UNK N   1      25.520  26.636  -5.338  0.00  0.00     0.265 A 
HETATM   11  N   UNK N   1      25.563  27.149  -4.076  0.00  0.00    -0.274 N 
HETATM   12  O   UNK N   1      24.666  25.811  -5.615  0.00  0.00    -0.267 OA
HETATM   13  C   UNK N   1      26.507  28.065  -3.709  0.00  0.00     0.329 A 
HETATM   14  H   UNK N   1      24.896  26.852  -3.413  0.00  0.00     0.173 HD
HETATM   15  O   UNK N   1      26.516  28.476  -2.562  0.00  0.00    -0.246 OA
ENDBRANCH   1   2
BRANCH   1  16
HETATM   16  C   UNK N   1      29.479  28.853  -3.272  0.00  0.00     0.022 C 
BRANCH  16  17
HETATM   17  C   UNK N   1      30.507  28.100  -4.101  0.00  0.00     0.032 C 
BRANCH  17  18
HETATM   18  C   UNK N   1      30.534  26.639  -3.675  0.00  0.00     0.273 C 
BRANCH  18  19
HETATM   19  N   UNK N   1      29.672  25.750  -4.465  0.00  0.00     0.092 N 
HETATM   20  C   UNK N   1      30.470  25.060  -5.467  0.00  0.00     0.277 C 
HETATM   21  C   UNK N   1      29.535  24.440  -6.507  0.00  0.00     0.069 C 
HETATM   22  C   UNK N   1      28.278  23.835  -5.899  0.00  0.00    -0.048 C 
HETATM   23  C   UNK N   1      28.018  23.973  -4.585  0.00  0.00     0.011 C 
HETATM   24  C   UNK N   1      28.940  24.741  -3.689  0.00  0.00     0.300 C 
BRANCH  22  25
HETATM   25  C   UNK N   1      27.309  23.137  -6.775  0.00  0.00    -0.030 A 
HETATM   26  C   UNK N   1      27.662  22.815  -8.093  0.00  0.00     0.012 A 
HETATM   27  C   UNK N   1      26.747  22.178  -8.936  0.00  0.00     0.001 A 
HETATM   28  C   UNK N   1      25.473  21.855  -8.466  0.00  0.00     0.000 A 
HETATM   29  C   UNK N   1      25.110  22.168  -7.153  0.00  0.00     0.001 A 
HETATM   30  C   UNK N   1      26.022  22.810  -6.311  0.00  0.00     0.012 A 
ENDBRANCH  22  25
ENDBRANCH  18  19
ENDBRANCH  17  18
ENDBRANCH  16  17
ENDBRANCH   1  16
TORSDOF 6
ENDMDL
MODEL 6
REMARK VINA RESULT:      -7.6      6.668     10.536
REMARK  6 active torsions:
REMARK  status: ('A' for Active; 'I' for Inactive)
REMARK    1  A    between atoms: N_7  and  C_13 
REMARK    2  A    between atoms: C_13  and  C_14 
REMARK    3  A    between atoms: C_14  and  C_15 
REMARK    4  A    between atoms: C_15  and  C_16 
REMARK    5  A    between atoms: C_16  and  N_17 
REMARK    6  A    between atoms: C_20  and  C_23 
ROOT
HETATM    1  C   UNK N   1      34.343  16.555   7.379  0.00  0.00     0.134 C 
ENDROOT
BRANCH   1   2
HETATM    2  N   UNK N   1      33.373  15.648   6.753  0.00  0.00    -0.299 N 
HETATM    3  C   UNK N   1      32.812  15.980   5.547  0.00  0.00     0.057 A 
HETATM    4  C   UNK N   1      33.132  17.198   4.916  0.00  0.00     0.031 A 
HETATM    5  C   UNK N   1      31.912  15.089   4.910  0.00  0.00     0.098 A 
HETATM    6  C   UNK N   1      32.577  17.528   3.679  0.00  0.00     0.005 A 
HETATM    7  C   UNK N   1      31.700  16.647   3.050  0.00  0.00     0.043 A 
HETATM    8  C   UNK N   1      31.362  15.434   3.654  0.00  0.00     0.134 A 
HETATM    9  F   UNK N   1      30.512  14.599   3.006  0.00  0.00    -0.205 F 
HETATM   10  C   UNK N   1      31.607  13.877   5.553  0.00  0.00     0.265 A 
HETATM   11  N   UNK N   1      32.180  13.585   6.754  0.00  0.00    -0.274 N 
HETATM   12  O   UNK N   1      30.838  13.075   5.051  0.00  0.00    -0.267 OA
HETATM   13  C   UNK N   1      33.058  14.442   7.354  0.00  0.00     0.329 A 
HETATM   14  H   UNK N   1      31.956  12.736   7.201  0.00  0.00     0.173 HD
HETATM   15  O   UNK N   1      33.561  14.124   8.417  0.00  0.00    -0.246 OA
ENDBRANCH   1   2
BRANCH   1  16
HETATM   16  C   UNK N   1      33.845  17.093   8.704  0.00  0.00     0.022 C 
BRANCH  16  17
HETATM   17  C   UNK N   1      32.789  18.146   8.409  0.00  0.00     0.032 C 
BRANCH  17  18
HETATM   18  C   UNK N   1      31.417  17.616   8.797  0.00  0.00     0.273 C 
BRANCH  18  19
HETATM   19  N   UNK N   1      30.336  17.958   7.861  0.00  0.00     0.092 N 
HETATM   20  C   UNK N   1      29.804  16.742   7.265  0.00  0.00     0.277 C 
HETATM   21  C   UNK N   1      28.964  17.115   6.042  0.00  0.00     0.069 C 
HETATM   22  C   UNK N   1      28.120  18.364   6.252  0.00  0.00    -0.048 C 
HETATM   23  C   UNK N   1      28.241  19.090   7.379  0.00  0.00     0.011 C 
HETATM   24  C   UNK N   1      29.219  18.708   8.447  0.00  0.00     0.300 C 
BRANCH  22  25
HETATM   25  C   UNK N   1      27.201  18.810   5.180  0.00  0.00    -0.030 A 
HETATM   26  C   UNK N   1      26.168  17.967   4.746  0.00  0.00     0.012 A 
HETATM   27  C   UNK N   1      25.310  18.368   3.719  0.00  0.00     0.001 A 
HETATM   28  C   UNK N   1      25.476  19.618   3.119  0.00  0.00     0.000 A 
HETATM   29  C   UNK N   1      26.499  20.469   3.545  0.00  0.00     0.001 A 
HETATM   30  C   UNK N   1      27.362  20.066   4.568  0.00  0.00     0.012 A 
ENDBRANCH  22  25
ENDBRANCH  18  19
ENDBRANCH  17  18
ENDBRANCH  16  17
ENDBRANCH   1  16
TORSDOF 6
ENDMDL
MODEL 7
REMARK VINA RESULT:      -7.5      1.673      2.451
REMARK  6 active torsions:
REMARK  status: ('A' for Active; 'I' for Inactive)
REMARK    1  A    between atoms: N_7  and  C_13 
REMARK    2  A    between atoms: C_13  and  C_14 
REMARK    3  A    between atoms: C_14  and  C_15 
REMARK    4  A    between atoms: C_15  and  C_16 
REMARK    5  A    between atoms: C_16  and  N_17 
REMARK    6  A    between atoms: C_20  and  C_23 
ROOT
HETATM    1  C   UNK N   1      35.419  12.448   8.845  0.00  0.00     0.134 C 
ENDROOT
BRANCH   1   2
HETATM    2  N   UNK N   1      35.454  13.875   9.187  0.00  0.00    -0.299 N 
HETATM    3  C   UNK N   1      34.631  14.752   8.529  0.00  0.00     0.057 A 
HETATM    4  C   UNK N   1      33.774  14.303   7.506  0.00  0.00     0.031 A 
HETATM    5  C   UNK N   1      34.620  16.124   8.885  0.00  0.00     0.098 A 
HETATM    6  C   UNK N   1      32.921  15.191   6.849  0.00  0.00     0.005 A 
HETATM    7  C   UNK N   1      32.906  16.537   7.206  0.00  0.00     0.043 A 
HETATM    8  C   UNK N   1      33.747  17.011   8.215  0.00  0.00     0.134 A 
HETATM    9  F   UNK N   1      33.697  18.327   8.540  0.00  0.00    -0.205 F 
HETATM   10  C   UNK N   1      35.481  16.553   9.911  0.00  0.00     0.265 A 
HETATM   11  N   UNK N   1      36.288  15.652  10.538  0.00  0.00    -0.274 N 
HETATM   12  O   UNK N   1      35.514  17.721  10.256  0.00  0.00    -0.267 OA
HETATM   13  C   UNK N   1      36.281  14.329  10.200  0.00  0.00     0.329 A 
HETATM   14  H   UNK N   1      36.893  15.963  11.252  0.00  0.00     0.173 HD
HETATM   15  O   UNK N   1      37.006  13.561  10.806  0.00  0.00    -0.246 OA
ENDBRANCH   1   2
BRANCH   1  16
HETATM   16  C   UNK N   1      34.295  11.721   9.554  0.00  0.00     0.022 C 
BRANCH  16  17
HETATM   17  C   UNK N   1      34.922  10.732  10.524  0.00  0.00     0.032 C 
BRANCH  17  18
HETATM   18  C   UNK N   1      33.891  10.313  11.562  0.00  0.00     0.273 C 
BRANCH  18  19
HETATM   19  N   UNK N   1      34.193  10.740  12.936  0.00  0.00     0.092 N 
HETATM   20  C   UNK N   1      35.011   9.731  13.592  0.00  0.00     0.277 C 
HETATM   21  C   UNK N   1      35.005   9.990  15.100  0.00  0.00     0.069 C 
HETATM   22  C   UNK N   1      35.083  11.468  15.455  0.00  0.00    -0.048 C 
HETATM   23  C   UNK N   1      35.034  12.407  14.491  0.00  0.00     0.011 C 
HETATM   24  C   UNK N   1      34.882  12.032  13.049  0.00  0.00     0.300 C 
BRANCH  22  25
HETATM   25  C   UNK N   1      35.155  11.872  16.878  0.00  0.00    -0.030 A 
HETATM   26  C   UNK N   1      35.228  10.895  17.881  0.00  0.00     0.012 A 
HETATM   27  C   UNK N   1      35.272  11.264  19.227  0.00  0.00     0.001 A 
HETATM   28  C   UNK N   1      35.249  12.614  19.582  0.00  0.00     0.000 A 
HETATM   29  C   UNK N   1      35.180  13.597  18.592  0.00  0.00     0.001 A 
HETATM   30  C   UNK N   1      35.129  13.229  17.245  0.00  0.00     0.012 A 
ENDBRANCH  22  25
ENDBRANCH  18  19
ENDBRANCH  17  18
ENDBRANCH  16  17
ENDBRANCH   1  16
TORSDOF 6
ENDMDL
MODEL 8
REMARK VINA RESULT:      -7.5     18.867     22.987
REMARK  6 active torsions:
REMARK  status: ('A' for Active; 'I' for Inactive)
REMARK    1  A    between atoms: N_7  and  C_13 
REMARK    2  A    between atoms: C_13  and  C_14 
REMARK    3  A    between atoms: C_14  and  C_15 
REMARK    4  A    between atoms: C_15  and  C_16 
REMARK    5  A    between atoms: C_16  and  N_17 
REMARK    6  A    between atoms: C_20  and  C_23 
ROOT
HETATM    1  C   UNK N   1      28.278  21.375  -7.612  0.00  0.00     0.134 C 
ENDROOT
BRANCH   1   2
HETATM    2  N   UNK N   1      29.261  21.477  -6.527  0.00  0.00    -0.299 N 
HETATM    3  C   UNK N   1      29.161  22.493  -5.613  0.00  0.00     0.057 A 
HETATM    4  C   UNK N   1      28.144  23.460  -5.721  0.00  0.00     0.031 A 
HETATM    5  C   UNK N   1      30.075  22.572  -4.532  0.00  0.00     0.098 A 
HETATM    6  C   UNK N   1      28.028  24.484  -4.780  0.00  0.00     0.005 A 
HETATM    7  C   UNK N   1      28.922  24.556  -3.714  0.00  0.00     0.043 A 
HETATM    8  C   UNK N   1      29.943  23.612  -3.583  0.00  0.00     0.134 A 
HETATM    9  F   UNK N   1      30.788  23.710  -2.526  0.00  0.00    -0.205 F 
HETATM   10  C   UNK N   1      31.083  21.597  -4.438  0.00  0.00     0.265 A 
HETATM   11  N   UNK N   1      31.153  20.605  -5.370  0.00  0.00    -0.274 N 
HETATM   12  O   UNK N   1      31.896  21.618  -3.530  0.00  0.00    -0.267 OA
HETATM   13  C   UNK N   1      30.259  20.526  -6.399  0.00  0.00     0.329 A 
HETATM   14  H   UNK N   1      31.866  19.928  -5.299  0.00  0.00     0.173 HD
HETATM   15  O   UNK N   1      30.352  19.607  -7.192  0.00  0.00    -0.246 OA
ENDBRANCH   1   2
BRANCH   1  16
HETATM   16  C   UNK N   1      28.654  22.234  -8.802  0.00  0.00     0.022 C 
BRANCH  16  17
HETATM   17  C   UNK N   1      27.652  21.954  -9.910  0.00  0.00     0.032 C 
BRANCH  17  18
HETATM   18  C   UNK N   1      27.040  23.264 -10.387  0.00  0.00     0.273 C 
BRANCH  18  19
HETATM   19  N   UNK N   1      26.887  24.288  -9.344  0.00  0.00     0.092 N 
HETATM   20  C   UNK N   1      27.165  25.602  -9.907  0.00  0.00     0.277 C 
HETATM   21  C   UNK N   1      27.372  26.597  -8.764  0.00  0.00     0.069 C 
HETATM   22  C   UNK N   1      26.410  26.388  -7.604  0.00  0.00    -0.048 C 
HETATM   23  C   UNK N   1      25.568  25.337  -7.594  0.00  0.00     0.011 C 
HETATM   24  C   UNK N   1      25.566  24.334  -8.707  0.00  0.00     0.300 C 
BRANCH  22  25
HETATM   25  C   UNK N   1      26.443  27.320  -6.453  0.00  0.00    -0.030 A 
HETATM   26  C   UNK N   1      25.500  27.194  -5.423  0.00  0.00     0.012 A 
HETATM   27  C   UNK N   1      25.507  28.082  -4.345  0.00  0.00     0.001 A 
HETATM   28  C   UNK N   1      26.460  29.100  -4.284  0.00  0.00     0.000 A 
HETATM   29  C   UNK N   1      27.408  29.233  -5.302  0.00  0.00     0.001 A 
HETATM   30  C   UNK N   1      27.398  28.350  -6.385  0.00  0.00     0.012 A 
ENDBRANCH  22  25
ENDBRANCH  18  19
ENDBRANCH  17  18
ENDBRANCH  16  17
ENDBRANCH   1  16
TORSDOF 6
ENDMDL
MODEL 9
REMARK VINA RESULT:      -7.4     11.542     13.694
REMARK  6 active torsions:
REMARK  status: ('A' for Active; 'I' for Inactive)
REMARK    1  A    between atoms: N_7  and  C_13 
REMARK    2  A    between atoms: C_13  and  C_14 
REMARK    3  A    between atoms: C_14  and  C_15 
REMARK    4  A    between atoms: C_15  and  C_16 
REMARK    5  A    between atoms: C_16  and  N_17 
REMARK    6  A    between atoms: C_20  and  C_23 
ROOT
HETATM    1  C   UNK N   1      22.368  17.463   4.791  0.00  0.00     0.134 C 
ENDROOT
BRANCH   1   2
HETATM    2  N   UNK N   1      23.830  17.485   4.919  0.00  0.00    -0.299 N 
HETATM    3  C   UNK N   1      24.548  18.499   4.340  0.00  0.00     0.057 A 
HETATM    4  C   UNK N   1      23.901  19.504   3.595  0.00  0.00     0.031 A 
HETATM    5  C   UNK N   1      25.955  18.557   4.499  0.00  0.00     0.098 A 
HETATM    6  C   UNK N   1      24.628  20.547   3.022  0.00  0.00     0.005 A 
HETATM    7  C   UNK N   1      26.010  20.608   3.186  0.00  0.00     0.043 A 
HETATM    8  C   UNK N   1      26.679  19.623   3.916  0.00  0.00     0.134 A 
HETATM    9  F   UNK N   1      28.024  19.722   4.062  0.00  0.00    -0.205 F 
HETATM   10  C   UNK N   1      26.584  17.547   5.247  0.00  0.00     0.265 A 
HETATM   11  N   UNK N   1      25.837  16.552   5.803  0.00  0.00    -0.274 N 
HETATM   12  O   UNK N   1      27.791  17.547   5.414  0.00  0.00    -0.267 OA
HETATM   13  C   UNK N   1      24.480  16.512   5.659  0.00  0.00     0.329 A 
HETATM   14  H   UNK N   1      26.287  15.845   6.321  0.00  0.00     0.173 HD
HETATM   15  O   UNK N   1      23.855  15.614   6.195  0.00  0.00    -0.246 OA
ENDBRANCH   1   2
BRANCH   1  16
HETATM   16  C   UNK N   1      21.912  16.618   3.620  0.00  0.00     0.022 C 
BRANCH  16  17
HETATM   17  C   UNK N   1      20.810  15.697   4.115  0.00  0.00     0.032 C 
BRANCH  17  18
HETATM   18  C   UNK N   1      20.327  16.166   5.480  0.00  0.00     0.273 C 
BRANCH  18  19
HETATM   19  N   UNK N   1      20.779  15.341   6.610  0.00  0.00     0.092 N 
HETATM   20  C   UNK N   1      20.020  15.690   7.802  0.00  0.00     0.277 C 
HETATM   21  C   UNK N   1      20.732  15.116   9.029  0.00  0.00     0.069 C 
HETATM   22  C   UNK N   1      21.301  13.724   8.796  0.00  0.00    -0.048 C 
HETATM   23  C   UNK N   1      21.256  13.162   7.574  0.00  0.00     0.011 C 
HETATM   24  C   UNK N   1      20.667  13.892   6.405  0.00  0.00     0.300 C 
BRANCH  22  25
HETATM   25  C   UNK N   1      21.959  13.010   9.915  0.00  0.00    -0.030 A 
HETATM   26  C   UNK N   1      21.197  12.559  11.002  0.00  0.00     0.012 A 
HETATM   27  C   UNK N   1      21.811  11.906  12.074  0.00  0.00     0.001 A 
HETATM   28  C   UNK N   1      23.191  11.695  12.065  0.00  0.00     0.000 A 
HETATM   29  C   UNK N   1      23.960  12.136  10.985  0.00  0.00     0.001 A 
HETATM   30  C   UNK N   1      23.349  12.796   9.916  0.00  0.00     0.012 A 
ENDBRANCH  22  25
ENDBRANCH  18  19
ENDBRANCH  17  18
ENDBRANCH  16  17
ENDBRANCH   1  16
TORSDOF 6
ENDMDL
