MODEL 1
REMARK VINA RESULT:      -8.3      0.000      0.000
REMARK  8 active torsions:
REMARK  status: ('A' for Active; 'I' for Inactive)
REMARK       I    between atoms: N_2  and  C_3 
REMARK    1  A    between atoms: N_2  and  C_4 
REMARK    2  A    between atoms: C_6  and  N_29 
REMARK    3  A    between atoms: C_7  and  C_26 
REMARK    4  A    between atoms: C_7  and  C_28 
REMARK    5  A    between atoms: C_8  and  N_22 
REMARK       I    between atoms: C_9  and  N_17 
REMARK       I    between atoms: C_9  and  N_22 
REMARK    6  A    between atoms: C_10  and  N_17 
REMARK    7  A    between atoms: C_11  and  C_12 
REMARK    8  A    between atoms: C_28  and  N_29 
ROOT
HETATM    1  C   UNK N   1      32.237  16.009   9.016  0.00  0.00     0.152 A 
HETATM    2  N   UNK N   1      32.628  17.312   9.066  0.00  0.00    -0.345 N 
HETATM    3  C   UNK N   1      33.076  17.781   7.840  0.00  0.00     0.105 A 
HETATM    4  C   UNK N   1      33.019  16.835   6.804  0.00  0.00     0.003 A 
HETATM    5  S   UNK N   1      32.388  15.482   7.452  0.00  0.00    -0.057 SA
HETATM    6  H   UNK N   1      32.597  17.860   9.883  0.00  0.00     0.167 HD
ENDROOT
BRANCH   4   7
HETATM    7  C   UNK N   1      33.769  16.865   5.513  0.00  0.00     0.067 C 
BRANCH   7   8
HETATM    8  C   UNK N   1      32.916  17.539   4.417  0.00  0.00     0.126 C 
BRANCH   8   9
HETATM    9  N   UNK N   1      31.979  16.638   3.782  0.00  0.00    -0.376 N 
HETATM   10  H   UNK N   1      32.330  15.831   3.341  0.00  0.00     0.161 HD
BRANCH   9  11
HETATM   11  C   UNK N   1      30.583  16.860   3.765  0.00  0.00     0.105 A 
HETATM   12  C   UNK N   1      30.045  17.757   4.672  0.00  0.00     0.097 A 
HETATM   13  C   UNK N   1      28.667  17.843   4.787  0.00  0.00     0.125 A 
HETATM   14  N   UNK N   1      27.871  17.067   3.999  0.00  0.00    -0.338 N 
HETATM   15  C   UNK N   1      28.411  16.215   3.089  0.00  0.00     0.183 A 
ATOM     16  HN  UNK N   1      26.856  17.125   4.094  1.00  0.00     0.168 HD
HETATM   17  N   UNK N   1      29.759  16.104   2.987  0.00  0.00    -0.339 N 
ATOM     18  HN  UNK N   1      30.161  15.446   2.319  1.00  0.00     0.168 HD
BRANCH  13  19
HETATM   19  N   UNK N   1      28.120  18.692   5.776  0.00  0.00    -0.175 N 
HETATM   20  C   UNK N   1      28.033  18.360   7.147  0.00  0.00     0.699 A 
HETATM   21  N   UNK N   1      27.535  19.189   8.073  0.00  0.00    -0.131 N 
HETATM   22  N   UNK N   1      28.453  17.202   7.689  0.00  0.00    -0.185 N 
HETATM   23  N   UNK N   1      27.626  18.562   9.232  0.00  0.00    -0.281 N 
ATOM     24  HN  UNK N   1      27.158  20.123   7.914  1.00  0.00     0.205 HD
HETATM   25  C   UNK N   1      28.184  17.354   9.000  0.00  0.00     0.215 A 
HETATM   26  H   UNK N   1      27.339  18.912  10.106  0.00  0.00     0.188 HD
ATOM     27  HN  UNK N   1      28.875  16.402   7.219  1.00  0.00     0.185 HD
HETATM   28  H   UNK N   1      27.776  19.570   5.492  0.00  0.00     0.186 HD
ENDBRANCH  13  19
ENDBRANCH   9  11
ENDBRANCH   8   9
ENDBRANCH   7   8
ENDBRANCH   4   7
BRANCH   1  29
HETATM   29  N   UNK N   1      32.504  15.221  10.007  0.00  0.00    -0.288 N 
HETATM   30  C   UNK N   1      33.807  14.845  10.212  0.00  0.00     0.326 C 
HETATM   31  O   UNK N   1      34.697  15.563   9.796  0.00  0.00    -0.247 OA
HETATM   32  N   UNK N   1      34.131  13.782  10.970  0.00  0.00    -0.306 N 
HETATM   33  H   UNK N   1      33.408  13.293  11.426  0.00  0.00     0.171 HD
ATOM     34  HN  UNK N   1      31.762  14.888  10.622  1.00  0.00     0.172 HD
BRANCH  32  35
HETATM   35  C   UNK N   1      35.480  13.329  11.145  0.00  0.00     0.077 A 
HETATM   36  C   UNK N   1      36.361  13.414  12.255  0.00  0.00     0.186 A 
HETATM   37  O   UNK N   1      37.514  12.907  11.892  0.00  0.00    -0.308 OA
HETATM   38  C   UNK N   1      37.441  12.497  10.649  0.00  0.00     0.052 A 
HETATM   39  C   UNK N   1      36.192  12.749  10.121  0.00  0.00     0.064 A 
HETATM   40  C   UNK N   1      38.566  11.857   9.924  0.00  0.00     0.077 C 
BRANCH  36  41
HETATM   41  C   UNK N   1      36.199  14.001  13.646  0.00  0.00     0.441 C 
HETATM   42  F   UNK N   1      36.402  15.370  13.624  0.00  0.00    -0.164 F 
HETATM   43  F   UNK N   1      37.142  13.440  14.487  0.00  0.00    -0.164 F 
HETATM   44  F   UNK N   1      34.968  13.699  14.199  0.00  0.00    -0.164 F 
ENDBRANCH  36  41
ENDBRANCH  32  35
ENDBRANCH   1  29
TORSDOF 8
ENDMDL
MODEL 2
REMARK VINA RESULT:      -8.3      2.842      4.612
REMARK  8 active torsions:
REMARK  status: ('A' for Active; 'I' for Inactive)
REMARK       I    between atoms: N_2  and  C_3 
REMARK    1  A    between atoms: N_2  and  C_4 
REMARK    2  A    between atoms: C_6  and  N_29 
REMARK    3  A    between atoms: C_7  and  C_26 
REMARK    4  A    between atoms: C_7  and  C_28 
REMARK    5  A    between atoms: C_8  and  N_22 
REMARK       I    between atoms: C_9  and  N_17 
REMARK       I    between atoms: C_9  and  N_22 
REMARK    6  A    between atoms: C_10  and  N_17 
REMARK    7  A    between atoms: C_11  and  C_12 
REMARK    8  A    between atoms: C_28  and  N_29 
ROOT
HETATM    1  C   UNK N   1      35.806  14.022  11.033  0.00  0.00     0.152 A 
HETATM    2  N   UNK N   1      34.482  14.105  11.335  0.00  0.00    -0.345 N 
HETATM    3  C   UNK N   1      33.814  15.033  10.550  0.00  0.00     0.105 A 
HETATM    4  C   UNK N   1      34.624  15.679   9.604  0.00  0.00     0.003 A 
HETATM    5  S   UNK N   1      36.114  15.043   9.765  0.00  0.00    -0.057 SA
HETATM    6  H   UNK N   1      34.046  13.566  12.034  0.00  0.00     0.167 HD
ENDROOT
BRANCH   4   7
HETATM    7  C   UNK N   1      34.344  16.969   8.906  0.00  0.00     0.067 C 
BRANCH   7   8
HETATM    8  C   UNK N   1      32.950  16.925   8.244  0.00  0.00     0.126 C 
BRANCH   8   9
HETATM    9  N   UNK N   1      31.926  17.599   9.013  0.00  0.00    -0.376 N 
HETATM   10  H   UNK N   1      32.206  18.192   9.747  0.00  0.00     0.161 HD
BRANCH   9  11
HETATM   11  C   UNK N   1      30.543  17.446   8.763  0.00  0.00     0.105 A 
HETATM   12  C   UNK N   1      30.099  17.507   7.454  0.00  0.00     0.097 A 
HETATM   13  C   UNK N   1      28.734  17.543   7.215  0.00  0.00     0.125 A 
HETATM   14  N   UNK N   1      27.861  17.497   8.260  0.00  0.00    -0.338 N 
HETATM   15  C   UNK N   1      28.311  17.404   9.538  0.00  0.00     0.183 A 
ATOM     16  HN  UNK N   1      26.857  17.535   8.080  1.00  0.00     0.168 HD
HETATM   17  N   UNK N   1      29.644  17.394   9.785  0.00  0.00    -0.339 N 
ATOM     18  HN  UNK N   1      29.978  17.348  10.748  1.00  0.00     0.168 HD
BRANCH  13  19
HETATM   19  N   UNK N   1      28.283  17.697   5.884  0.00  0.00    -0.175 N 
HETATM   20  C   UNK N   1      27.748  18.895   5.360  0.00  0.00     0.699 A 
HETATM   21  N   UNK N   1      27.349  19.028   4.090  0.00  0.00    -0.131 N 
HETATM   22  N   UNK N   1      27.597  20.040   6.052  0.00  0.00    -0.185 N 
HETATM   23  N   UNK N   1      26.927  20.272   3.952  0.00  0.00    -0.281 N 
ATOM     24  HN  UNK N   1      27.367  18.308   3.368  1.00  0.00     0.205 HD
HETATM   25  C   UNK N   1      27.077  20.888   5.144  0.00  0.00     0.215 A 
HETATM   26  H   UNK N   1      26.569  20.676   3.129  0.00  0.00     0.188 HD
ATOM     27  HN  UNK N   1      27.822  20.221   7.030  1.00  0.00     0.185 HD
HETATM   28  H   UNK N   1      28.343  16.918   5.283  0.00  0.00     0.186 HD
ENDBRANCH  13  19
ENDBRANCH   9  11
ENDBRANCH   8   9
ENDBRANCH   7   8
ENDBRANCH   4   7
BRANCH   1  29
HETATM   29  N   UNK N   1      36.672  13.868  11.983  0.00  0.00    -0.288 N 
HETATM   30  C   UNK N   1      36.460  12.879  12.908  0.00  0.00     0.326 C 
HETATM   31  O   UNK N   1      35.774  11.923  12.598  0.00  0.00    -0.247 OA
HETATM   32  N   UNK N   1      37.090  12.868  14.097  0.00  0.00    -0.306 N 
HETATM   33  H   UNK N   1      37.757  13.569  14.281  0.00  0.00     0.171 HD
ATOM     34  HN  UNK N   1      37.494  14.469  12.040  1.00  0.00     0.172 HD
BRANCH  32  35
HETATM   35  C   UNK N   1      36.835  11.883  15.107  0.00  0.00     0.077 A 
HETATM   36  C   UNK N   1      36.070  11.942  16.301  0.00  0.00     0.186 A 
HETATM   37  O   UNK N   1      36.203  10.793  16.920  0.00  0.00    -0.308 OA
HETATM   38  C   UNK N   1      36.979  10.005  16.218  0.00  0.00     0.052 A 
HETATM   39  C   UNK N   1      37.420  10.638  15.075  0.00  0.00     0.064 A 
HETATM   40  C   UNK N   1      37.330   8.621  16.622  0.00  0.00     0.077 C 
BRANCH  36  41
HETATM   41  C   UNK N   1      35.247  13.050  16.935  0.00  0.00     0.441 C 
HETATM   42  F   UNK N   1      34.851  12.694  18.212  0.00  0.00    -0.164 F 
HETATM   43  F   UNK N   1      34.111  13.261  16.175  0.00  0.00    -0.164 F 
HETATM   44  F   UNK N   1      35.924  14.256  16.952  0.00  0.00    -0.164 F 
ENDBRANCH  36  41
ENDBRANCH  32  35
ENDBRANCH   1  29
TORSDOF 8
ENDMDL
MODEL 3
REMARK VINA RESULT:      -8.2      4.741     10.383
REMARK  8 active torsions:
REMARK  status: ('A' for Active; 'I' for Inactive)
REMARK       I    between atoms: N_2  and  C_3 
REMARK    1  A    between atoms: N_2  and  C_4 
REMARK    2  A    between atoms: C_6  and  N_29 
REMARK    3  A    between atoms: C_7  and  C_26 
REMARK    4  A    between atoms: C_7  and  C_28 
REMARK    5  A    between atoms: C_8  and  N_22 
REMARK       I    between atoms: C_9  and  N_17 
REMARK       I    between atoms: C_9  and  N_22 
REMARK    6  A    between atoms: C_10  and  N_17 
REMARK    7  A    between atoms: C_11  and  C_12 
REMARK    8  A    between atoms: C_28  and  N_29 
ROOT
HETATM    1  C   UNK N   1      34.214  14.790   9.828  0.00  0.00     0.152 A 
HETATM    2  N   UNK N   1      34.837  14.329   8.709  0.00  0.00    -0.345 N 
HETATM    3  C   UNK N   1      36.039  13.698   8.991  0.00  0.00     0.105 A 
HETATM    4  C   UNK N   1      36.358  13.647  10.357  0.00  0.00     0.003 A 
HETATM    5  S   UNK N   1      35.122  14.355  11.143  0.00  0.00    -0.057 SA
HETATM    6  H   UNK N   1      34.474  14.433   7.800  0.00  0.00     0.167 HD
ENDROOT
BRANCH   4   7
HETATM    7  C   UNK N   1      37.706  13.420  10.961  0.00  0.00     0.067 C 
BRANCH   7   8
HETATM    8  C   UNK N   1      37.743  12.056  11.682  0.00  0.00     0.126 C 
BRANCH   8   9
HETATM    9  N   UNK N   1      37.631  12.163  13.121  0.00  0.00    -0.376 N 
HETATM   10  H   UNK N   1      38.458  12.218  13.652  0.00  0.00     0.161 HD
BRANCH   9  11
HETATM   11  C   UNK N   1      36.392  12.190  13.800  0.00  0.00     0.105 A 
HETATM   12  C   UNK N   1      36.286  12.950  14.952  0.00  0.00     0.097 A 
HETATM   13  C   UNK N   1      35.140  12.838  15.722  0.00  0.00     0.125 A 
HETATM   14  N   UNK N   1      34.136  12.006  15.326  0.00  0.00    -0.338 N 
HETATM   15  C   UNK N   1      34.238  11.291  14.175  0.00  0.00     0.183 A 
ATOM     16  HN  UNK N   1      33.297  11.918  15.901  1.00  0.00     0.168 HD
HETATM   17  N   UNK N   1      35.367  11.374  13.428  0.00  0.00    -0.339 N 
ATOM     18  HN  UNK N   1      35.449  10.818  12.577  1.00  0.00     0.168 HD
BRANCH  13  19
HETATM   19  N   UNK N   1      35.071  13.545  16.945  0.00  0.00    -0.175 N 
HETATM   20  C   UNK N   1      35.195  12.943  18.217  0.00  0.00     0.699 A 
HETATM   21  N   UNK N   1      35.153  13.634  19.363  0.00  0.00    -0.131 N 
HETATM   22  N   UNK N   1      35.390  11.629  18.434  0.00  0.00    -0.185 N 
HETATM   23  N   UNK N   1      35.317  12.760  20.339  0.00  0.00    -0.281 N 
ATOM     24  HN  UNK N   1      35.020  14.640  19.463  1.00  0.00     0.205 HD
HETATM   25  C   UNK N   1      35.461  11.541  19.776  0.00  0.00     0.215 A 
HETATM   26  H   UNK N   1      35.332  12.961  21.303  0.00  0.00     0.188 HD
ATOM     27  HN  UNK N   1      35.467  10.880  17.746  1.00  0.00     0.185 HD
HETATM   28  H   UNK N   1      34.927  14.518  16.907  0.00  0.00     0.186 HD
ENDBRANCH  13  19
ENDBRANCH   9  11
ENDBRANCH   8   9
ENDBRANCH   7   8
ENDBRANCH   4   7
BRANCH   1  29
HETATM   29  N   UNK N   1      33.600  15.929   9.797  0.00  0.00    -0.288 N 
HETATM   30  C   UNK N   1      32.502  16.059   8.986  0.00  0.00     0.326 C 
HETATM   31  O   UNK N   1      31.874  15.061   8.686  0.00  0.00    -0.247 OA
HETATM   32  N   UNK N   1      32.023  17.263   8.623  0.00  0.00    -0.306 N 
HETATM   33  H   UNK N   1      32.451  18.069   8.992  0.00  0.00     0.171 HD
ATOM     34  HN  UNK N   1      33.926  16.712  10.364  1.00  0.00     0.172 HD
BRANCH  32  35
HETATM   35  C   UNK N   1      30.918  17.424   7.722  0.00  0.00     0.077 A 
HETATM   36  C   UNK N   1      29.558  17.754   7.958  0.00  0.00     0.186 A 
HETATM   37  O   UNK N   1      28.931  17.715   6.807  0.00  0.00    -0.308 OA
HETATM   38  C   UNK N   1      29.777  17.398   5.857  0.00  0.00     0.052 A 
HETATM   39  C   UNK N   1      31.039  17.188   6.372  0.00  0.00     0.064 A 
HETATM   40  C   UNK N   1      29.403  17.279   4.426  0.00  0.00     0.077 C 
BRANCH  36  41
HETATM   41  C   UNK N   1      28.785  18.059   9.229  0.00  0.00     0.441 C 
HETATM   42  F   UNK N   1      27.750  18.940   8.970  0.00  0.00    -0.164 F 
HETATM   43  F   UNK N   1      29.636  18.652  10.144  0.00  0.00    -0.164 F 
HETATM   44  F   UNK N   1      28.310  16.912   9.837  0.00  0.00    -0.164 F 
ENDBRANCH  36  41
ENDBRANCH  32  35
ENDBRANCH   1  29
TORSDOF 8
ENDMDL
MODEL 4
REMARK VINA RESULT:      -8.0      2.915      4.219
REMARK  8 active torsions:
REMARK  status: ('A' for Active; 'I' for Inactive)
REMARK       I    between atoms: N_2  and  C_3 
REMARK    1  A    between atoms: N_2  and  C_4 
REMARK    2  A    between atoms: C_6  and  N_29 
REMARK    3  A    between atoms: C_7  and  C_26 
REMARK    4  A    between atoms: C_7  and  C_28 
REMARK    5  A    between atoms: C_8  and  N_22 
REMARK       I    between atoms: C_9  and  N_17 
REMARK       I    between atoms: C_9  and  N_22 
REMARK    6  A    between atoms: C_10  and  N_17 
REMARK    7  A    between atoms: C_11  and  C_12 
REMARK    8  A    between atoms: C_28  and  N_29 
ROOT
HETATM    1  C   UNK N   1      35.973  14.033  11.228  0.00  0.00     0.152 A 
HETATM    2  N   UNK N   1      34.645  14.160  11.501  0.00  0.00    -0.345 N 
HETATM    3  C   UNK N   1      34.031  15.127  10.718  0.00  0.00     0.105 A 
HETATM    4  C   UNK N   1      34.887  15.759   9.803  0.00  0.00     0.003 A 
HETATM    5  S   UNK N   1      36.348  15.065   9.987  0.00  0.00    -0.057 SA
HETATM    6  H   UNK N   1      34.173  13.625  12.178  0.00  0.00     0.167 HD
ENDROOT
BRANCH   4   7
HETATM    7  C   UNK N   1      34.672  17.071   9.123  0.00  0.00     0.067 C 
BRANCH   7   8
HETATM    8  C   UNK N   1      34.236  16.847   7.659  0.00  0.00     0.126 C 
BRANCH   8   9
HETATM    9  N   UNK N   1      32.820  16.589   7.513  0.00  0.00    -0.376 N 
HETATM   10  H   UNK N   1      32.369  16.047   8.201  0.00  0.00     0.161 HD
BRANCH   9  11
HETATM   11  C   UNK N   1      32.052  17.076   6.431  0.00  0.00     0.105 A 
HETATM   12  C   UNK N   1      30.672  17.059   6.539  0.00  0.00     0.097 A 
HETATM   13  C   UNK N   1      29.912  17.359   5.421  0.00  0.00     0.125 A 
HETATM   14  N   UNK N   1      30.528  17.684   4.249  0.00  0.00    -0.338 N 
HETATM   15  C   UNK N   1      31.883  17.730   4.166  0.00  0.00     0.183 A 
ATOM     16  HN  UNK N   1      29.965  17.894   3.425  1.00  0.00     0.168 HD
HETATM   17  N   UNK N   1      32.637  17.412   5.248  0.00  0.00    -0.339 N 
ATOM     18  HN  UNK N   1      33.654  17.425   5.174  1.00  0.00     0.168 HD
BRANCH  13  19
HETATM   19  N   UNK N   1      28.505  17.253   5.508  0.00  0.00    -0.175 N 
HETATM   20  C   UNK N   1      27.630  18.357   5.619  0.00  0.00     0.699 A 
HETATM   21  N   UNK N   1      26.299  18.236   5.674  0.00  0.00    -0.131 N 
HETATM   22  N   UNK N   1      28.016  19.646   5.658  0.00  0.00    -0.185 N 
HETATM   23  N   UNK N   1      25.810  19.461   5.756  0.00  0.00    -0.281 N 
ATOM     24  HN  UNK N   1      25.765  17.368   5.657  1.00  0.00     0.205 HD
HETATM   25  C   UNK N   1      26.852  20.318   5.747  0.00  0.00     0.215 A 
HETATM   26  H   UNK N   1      24.857  19.703   5.814  0.00  0.00     0.188 HD
ATOM     27  HN  UNK N   1      28.963  20.023   5.627  1.00  0.00     0.185 HD
HETATM   28  H   UNK N   1      28.109  16.351   5.491  0.00  0.00     0.186 HD
ENDBRANCH  13  19
ENDBRANCH   9  11
ENDBRANCH   8   9
ENDBRANCH   7   8
ENDBRANCH   4   7
BRANCH   1  29
HETATM   29  N   UNK N   1      36.809  13.831  12.194  0.00  0.00    -0.288 N 
HETATM   30  C   UNK N   1      36.513  12.868  13.125  0.00  0.00     0.326 C 
HETATM   31  O   UNK N   1      35.769  11.958  12.811  0.00  0.00    -0.247 OA
HETATM   32  N   UNK N   1      37.121  12.826  14.324  0.00  0.00    -0.306 N 
HETATM   33  H   UNK N   1      37.831  13.481  14.514  0.00  0.00     0.171 HD
ATOM     34  HN  UNK N   1      37.670  14.374  12.261  1.00  0.00     0.172 HD
BRANCH  32  35
HETATM   35  C   UNK N   1      36.781  11.871  15.339  0.00  0.00     0.077 A 
HETATM   36  C   UNK N   1      35.968  11.984  16.498  0.00  0.00     0.186 A 
HETATM   37  O   UNK N   1      36.026  10.843  17.141  0.00  0.00    -0.308 OA
HETATM   38  C   UNK N   1      36.797  10.009  16.486  0.00  0.00     0.052 A 
HETATM   39  C   UNK N   1      37.313  10.602  15.353  0.00  0.00     0.064 A 
HETATM   40  C   UNK N   1      37.071   8.620  16.928  0.00  0.00     0.077 C 
BRANCH  36  41
HETATM   41  C   UNK N   1      35.167  13.137  17.076  0.00  0.00     0.441 C 
HETATM   42  F   UNK N   1      35.933  14.289  17.120  0.00  0.00    -0.164 F 
HETATM   43  F   UNK N   1      34.790  12.822  18.369  0.00  0.00    -0.164 F 
HETATM   44  F   UNK N   1      33.993  13.358  16.379  0.00  0.00    -0.164 F 
ENDBRANCH  36  41
ENDBRANCH  32  35
ENDBRANCH   1  29
TORSDOF 8
ENDMDL
MODEL 5
REMARK VINA RESULT:      -7.9      3.900      8.934
REMARK  8 active torsions:
REMARK  status: ('A' for Active; 'I' for Inactive)
REMARK       I    between atoms: N_2  and  C_3 
REMARK    1  A    between atoms: N_2  and  C_4 
REMARK    2  A    between atoms: C_6  and  N_29 
REMARK    3  A    between atoms: C_7  and  C_26 
REMARK    4  A    between atoms: C_7  and  C_28 
REMARK    5  A    between atoms: C_8  and  N_22 
REMARK       I    between atoms: C_9  and  N_17 
REMARK       I    between atoms: C_9  and  N_22 
REMARK    6  A    between atoms: C_10  and  N_17 
REMARK    7  A    between atoms: C_11  and  C_12 
REMARK    8  A    between atoms: C_28  and  N_29 
ROOT
HETATM    1  C   UNK N   1      30.530  14.814   4.165  0.00  0.00     0.152 A 
HETATM    2  N   UNK N   1      31.188  15.210   3.041  0.00  0.00    -0.345 N 
HETATM    3  C   UNK N   1      32.538  15.436   3.266  0.00  0.00     0.105 A 
HETATM    4  C   UNK N   1      32.951  15.197   4.586  0.00  0.00     0.003 A 
HETATM    5  S   UNK N   1      31.634  14.688   5.394  0.00  0.00    -0.057 SA
HETATM    6  H   UNK N   1      30.754  15.323   2.165  0.00  0.00     0.167 HD
ENDROOT
BRANCH   4   7
HETATM    7  C   UNK N   1      34.187  15.709   5.251  0.00  0.00     0.067 C 
BRANCH   7   8
HETATM    8  C   UNK N   1      33.863  16.975   6.072  0.00  0.00     0.126 C 
BRANCH   8   9
HETATM    9  N   UNK N   1      34.532  17.016   7.355  0.00  0.00    -0.376 N 
HETATM   10  H   UNK N   1      35.384  17.505   7.423  0.00  0.00     0.161 HD
BRANCH   9  11
HETATM   11  C   UNK N   1      34.022  16.388   8.514  0.00  0.00     0.105 A 
HETATM   12  C   UNK N   1      34.858  16.238   9.606  0.00  0.00     0.097 A 
HETATM   13  C   UNK N   1      34.429  15.465  10.673  0.00  0.00     0.125 A 
HETATM   14  N   UNK N   1      33.196  14.886  10.638  0.00  0.00    -0.338 N 
HETATM   15  C   UNK N   1      32.372  15.069   9.574  0.00  0.00     0.183 A 
ATOM     16  HN  UNK N   1      32.888  14.308  11.421  1.00  0.00     0.168 HD
HETATM   17  N   UNK N   1      32.792  15.803   8.514  0.00  0.00    -0.339 N 
ATOM     18  HN  UNK N   1      32.179  15.918   7.706  1.00  0.00     0.168 HD
BRANCH  13  19
HETATM   19  N   UNK N   1      35.319  15.238  11.748  0.00  0.00    -0.175 N 
HETATM   20  C   UNK N   1      36.105  14.073  11.896  0.00  0.00     0.699 A 
HETATM   21  N   UNK N   1      36.961  13.888  12.908  0.00  0.00    -0.131 N 
HETATM   22  N   UNK N   1      36.110  13.032  11.043  0.00  0.00    -0.185 N 
HETATM   23  N   UNK N   1      37.527  12.710  12.717  0.00  0.00    -0.281 N 
ATOM     24  HN  UNK N   1      37.140  14.532  13.679  1.00  0.00     0.205 HD
HETATM   25  C   UNK N   1      37.010  12.189  11.584  0.00  0.00     0.215 A 
HETATM   26  H   UNK N   1      38.203  12.290  13.296  0.00  0.00     0.188 HD
ATOM     27  HN  UNK N   1      35.563  12.911  10.191  1.00  0.00     0.185 HD
HETATM   28  H   UNK N   1      35.395  15.936  12.439  0.00  0.00     0.186 HD
ENDBRANCH  13  19
ENDBRANCH   9  11
ENDBRANCH   8   9
ENDBRANCH   7   8
ENDBRANCH   4   7
BRANCH   1  29
HETATM   29  N   UNK N   1      29.333  15.249   4.394  0.00  0.00    -0.288 N 
HETATM   30  C   UNK N   1      29.185  16.495   4.948  0.00  0.00     0.326 C 
HETATM   31  O   UNK N   1      30.073  17.313   4.799  0.00  0.00    -0.247 OA
HETATM   32  N   UNK N   1      28.037  16.881   5.536  0.00  0.00    -0.306 N 
HETATM   33  H   UNK N   1      27.272  16.263   5.521  0.00  0.00     0.171 HD
ATOM     34  HN  UNK N   1      28.519  14.679   4.166  1.00  0.00     0.172 HD
BRANCH  32  35
HETATM   35  C   UNK N   1      27.880  18.152   6.181  0.00  0.00     0.077 A 
HETATM   36  C   UNK N   1      28.103  18.555   7.524  0.00  0.00     0.186 A 
HETATM   37  O   UNK N   1      27.748  19.813   7.629  0.00  0.00    -0.308 OA
HETATM   38  C   UNK N   1      27.328  20.249   6.467  0.00  0.00     0.052 A 
HETATM   39  C   UNK N   1      27.373  19.247   5.520  0.00  0.00     0.064 A 
HETATM   40  C   UNK N   1      26.863  21.637   6.226  0.00  0.00     0.077 C 
BRANCH  36  41
HETATM   41  C   UNK N   1      28.588  17.802   8.750  0.00  0.00     0.441 C 
HETATM   42  F   UNK N   1      27.626  16.909   9.186  0.00  0.00    -0.164 F 
HETATM   43  F   UNK N   1      28.830  18.706   9.769  0.00  0.00    -0.164 F 
HETATM   44  F   UNK N   1      29.789  17.155   8.522  0.00  0.00    -0.164 F 
ENDBRANCH  36  41
ENDBRANCH  32  35
ENDBRANCH   1  29
TORSDOF 8
ENDMDL
MODEL 6
REMARK VINA RESULT:      -7.8      2.474      3.513
REMARK  8 active torsions:
REMARK  status: ('A' for Active; 'I' for Inactive)
REMARK       I    between atoms: N_2  and  C_3 
REMARK    1  A    between atoms: N_2  and  C_4 
REMARK    2  A    between atoms: C_6  and  N_29 
REMARK    3  A    between atoms: C_7  and  C_26 
REMARK    4  A    between atoms: C_7  and  C_28 
REMARK    5  A    between atoms: C_8  and  N_22 
REMARK       I    between atoms: C_9  and  N_17 
REMARK       I    between atoms: C_9  and  N_22 
REMARK    6  A    between atoms: C_10  and  N_17 
REMARK    7  A    between atoms: C_11  and  C_12 
REMARK    8  A    between atoms: C_28  and  N_29 
ROOT
HETATM    1  C   UNK N   1      35.228  15.582  10.792  0.00  0.00     0.152 A 
HETATM    2  N   UNK N   1      35.042  16.919  10.620  0.00  0.00    -0.345 N 
HETATM    3  C   UNK N   1      34.638  17.238   9.332  0.00  0.00     0.105 A 
HETATM    4  C   UNK N   1      34.488  16.132   8.482  0.00  0.00     0.003 A 
HETATM    5  S   UNK N   1      34.829  14.816   9.378  0.00  0.00    -0.057 SA
HETATM    6  H   UNK N   1      35.179  17.585  11.331  0.00  0.00     0.167 HD
ENDROOT
BRANCH   4   7
HETATM    7  C   UNK N   1      34.468  16.137   6.989  0.00  0.00     0.067 C 
BRANCH   7   8
HETATM    8  C   UNK N   1      33.564  15.000   6.464  0.00  0.00     0.126 C 
BRANCH   8   9
HETATM    9  N   UNK N   1      33.121  15.200   5.101  0.00  0.00    -0.376 N 
HETATM   10  H   UNK N   1      33.723  14.932   4.369  0.00  0.00     0.161 HD
BRANCH   9  11
HETATM   11  C   UNK N   1      31.866  15.760   4.770  0.00  0.00     0.105 A 
HETATM   12  C   UNK N   1      30.892  15.824   5.750  0.00  0.00     0.097 A 
HETATM   13  C   UNK N   1      29.607  16.198   5.390  0.00  0.00     0.125 A 
HETATM   14  N   UNK N   1      29.332  16.516   4.093  0.00  0.00    -0.338 N 
HETATM   15  C   UNK N   1      30.306  16.482   3.147  0.00  0.00     0.183 A 
ATOM     16  HN  UNK N   1      28.383  16.781   3.829  1.00  0.00     0.168 HD
HETATM   17  N   UNK N   1      31.561  16.092   3.485  0.00  0.00    -0.339 N 
ATOM     18  HN  UNK N   1      32.284  16.045   2.767  1.00  0.00     0.168 HD
BRANCH  13  19
HETATM   19  N   UNK N   1      28.592  16.175   6.373  0.00  0.00    -0.175 N 
HETATM   20  C   UNK N   1      28.486  17.110   7.428  0.00  0.00     0.699 A 
HETATM   21  N   UNK N   1      27.502  17.085   8.335  0.00  0.00    -0.131 N 
HETATM   22  N   UNK N   1      29.330  18.137   7.636  0.00  0.00    -0.185 N 
HETATM   23  N   UNK N   1      27.710  18.105   9.148  0.00  0.00    -0.281 N 
ATOM     24  HN  UNK N   1      26.740  16.409   8.388  1.00  0.00     0.205 HD
HETATM   25  C   UNK N   1      28.820  18.745   8.724  0.00  0.00     0.215 A 
HETATM   26  H   UNK N   1      27.154  18.353   9.922  0.00  0.00     0.188 HD
ATOM     27  HN  UNK N   1      30.157  18.393   7.098  1.00  0.00     0.185 HD
HETATM   28  H   UNK N   1      27.916  15.460   6.322  0.00  0.00     0.186 HD
ENDBRANCH  13  19
ENDBRANCH   9  11
ENDBRANCH   8   9
ENDBRANCH   7   8
ENDBRANCH   4   7
BRANCH   1  29
HETATM   29  N   UNK N   1      36.213  15.159  11.517  0.00  0.00    -0.288 N 
HETATM   30  C   UNK N   1      35.935  14.373  12.605  0.00  0.00     0.326 C 
HETATM   31  O   UNK N   1      34.899  13.734  12.618  0.00  0.00    -0.247 OA
HETATM   32  N   UNK N   1      36.827  14.183  13.594  0.00  0.00    -0.306 N 
HETATM   33  H   UNK N   1      37.721  14.587  13.503  0.00  0.00     0.171 HD
ATOM     34  HN  UNK N   1      37.175  15.404  11.282  1.00  0.00     0.172 HD
BRANCH  32  35
HETATM   35  C   UNK N   1      36.536  13.421  14.774  0.00  0.00     0.077 A 
HETATM   36  C   UNK N   1      36.784  12.061  15.095  0.00  0.00     0.186 A 
HETATM   37  O   UNK N   1      36.266  11.828  16.278  0.00  0.00    -0.308 OA
HETATM   38  C   UNK N   1      35.720  12.925  16.741  0.00  0.00     0.052 A 
HETATM   39  C   UNK N   1      35.844  13.958  15.835  0.00  0.00     0.064 A 
HETATM   40  C   UNK N   1      35.054  13.020  18.063  0.00  0.00     0.077 C 
BRANCH  36  41
HETATM   41  C   UNK N   1      37.443  10.932  14.324  0.00  0.00     0.441 C 
HETATM   42  F   UNK N   1      38.807  10.913  14.556  0.00  0.00    -0.164 F 
HETATM   43  F   UNK N   1      37.240  11.130  12.970  0.00  0.00    -0.164 F 
HETATM   44  F   UNK N   1      36.880   9.703  14.617  0.00  0.00    -0.164 F 
ENDBRANCH  36  41
ENDBRANCH  32  35
ENDBRANCH   1  29
TORSDOF 8
ENDMDL
MODEL 7
REMARK VINA RESULT:      -7.6      4.868      9.332
REMARK  8 active torsions:
REMARK  status: ('A' for Active; 'I' for Inactive)
REMARK       I    between atoms: N_2  and  C_3 
REMARK    1  A    between atoms: N_2  and  C_4 
REMARK    2  A    between atoms: C_6  and  N_29 
REMARK    3  A    between atoms: C_7  and  C_26 
REMARK    4  A    between atoms: C_7  and  C_28 
REMARK    5  A    between atoms: C_8  and  N_22 
REMARK       I    between atoms: C_9  and  N_17 
REMARK       I    between atoms: C_9  and  N_22 
REMARK    6  A    between atoms: C_10  and  N_17 
REMARK    7  A    between atoms: C_11  and  C_12 
REMARK    8  A    between atoms: C_28  and  N_29 
ROOT
HETATM    1  C   UNK N   1      29.508  13.804   4.113  0.00  0.00     0.152 A 
HETATM    2  N   UNK N   1      30.075  13.740   2.878  0.00  0.00    -0.345 N 
HETATM    3  C   UNK N   1      31.411  14.114   2.886  0.00  0.00     0.105 A 
HETATM    4  C   UNK N   1      31.906  14.461   4.152  0.00  0.00     0.003 A 
HETATM    5  S   UNK N   1      30.676  14.256   5.198  0.00  0.00    -0.057 SA
HETATM    6  H   UNK N   1      29.591  13.460   2.068  0.00  0.00     0.167 HD
ENDROOT
BRANCH   4   7
HETATM    7  C   UNK N   1      33.126  15.269   4.453  0.00  0.00     0.067 C 
BRANCH   7   8
HETATM    8  C   UNK N   1      32.839  16.770   4.230  0.00  0.00     0.126 C 
BRANCH   8   9
HETATM    9  N   UNK N   1      33.431  17.625   5.235  0.00  0.00    -0.376 N 
HETATM   10  H   UNK N   1      34.083  18.304   4.947  0.00  0.00     0.161 HD
BRANCH   9  11
HETATM   11  C   UNK N   1      33.120  17.532   6.611  0.00  0.00     0.105 A 
HETATM   12  C   UNK N   1      34.159  17.535   7.525  0.00  0.00     0.097 A 
HETATM   13  C   UNK N   1      33.879  17.261   8.854  0.00  0.00     0.125 A 
HETATM   14  N   UNK N   1      32.595  17.015   9.239  0.00  0.00    -0.338 N 
HETATM   15  C   UNK N   1      31.580  17.048   8.338  0.00  0.00     0.183 A 
ATOM     16  HN  UNK N   1      32.394  16.802  10.217  1.00  0.00     0.168 HD
HETATM   17  N   UNK N   1      31.847  17.290   7.030  0.00  0.00    -0.339 N 
ATOM     18  HN  UNK N   1      31.085  17.291   6.352  1.00  0.00     0.168 HD
BRANCH  13  19
HETATM   19  N   UNK N   1      34.952  17.174   9.770  0.00  0.00    -0.175 N 
HETATM   20  C   UNK N   1      35.546  15.961  10.186  0.00  0.00     0.699 A 
HETATM   21  N   UNK N   1      36.578  15.902  11.035  0.00  0.00    -0.131 N 
HETATM   22  N   UNK N   1      35.171  14.737   9.771  0.00  0.00    -0.185 N 
HETATM   23  N   UNK N   1      36.878  14.624  11.181  0.00  0.00    -0.281 N 
ATOM     24  HN  UNK N   1      37.043  16.691  11.484  1.00  0.00     0.205 HD
HETATM   25  C   UNK N   1      36.023  13.915  10.413  0.00  0.00     0.215 A 
HETATM   26  H   UNK N   1      37.594  14.256  11.747  0.00  0.00     0.188 HD
ATOM     27  HN  UNK N   1      34.422  14.491   9.124  1.00  0.00     0.185 HD
HETATM   28  H   UNK N   1      35.308  18.013  10.144  0.00  0.00     0.186 HD
ENDBRANCH  13  19
ENDBRANCH   9  11
ENDBRANCH   8   9
ENDBRANCH   7   8
ENDBRANCH   4   7
BRANCH   1  29
HETATM   29  N   UNK N   1      28.291  14.228   4.239  0.00  0.00    -0.288 N 
HETATM   30  C   UNK N   1      28.036  15.558   4.029  0.00  0.00     0.326 C 
HETATM   31  O   UNK N   1      28.795  16.196   3.322  0.00  0.00    -0.247 OA
HETATM   32  N   UNK N   1      26.908  16.146   4.468  0.00  0.00    -0.306 N 
HETATM   33  H   UNK N   1      26.230  15.587   4.912  0.00  0.00     0.171 HD
ATOM     34  HN  UNK N   1      27.539  13.585   4.489  1.00  0.00     0.172 HD
BRANCH  32  35
HETATM   35  C   UNK N   1      26.650  17.549   4.320  0.00  0.00     0.077 A 
HETATM   36  C   UNK N   1      27.131  18.672   5.041  0.00  0.00     0.186 A 
HETATM   37  O   UNK N   1      26.545  19.741   4.559  0.00  0.00    -0.308 OA
HETATM   38  C   UNK N   1      25.739  19.396   3.585  0.00  0.00     0.052 A 
HETATM   39  C   UNK N   1      25.749  18.030   3.397  0.00  0.00     0.064 A 
HETATM   40  C   UNK N   1      24.926  20.362   2.806  0.00  0.00     0.077 C 
BRANCH  36  41
HETATM   41  C   UNK N   1      28.087  18.800   6.214  0.00  0.00     0.441 C 
HETATM   42  F   UNK N   1      29.360  18.397   5.852  0.00  0.00    -0.164 F 
HETATM   43  F   UNK N   1      27.654  17.984   7.243  0.00  0.00    -0.164 F 
HETATM   44  F   UNK N   1      28.110  20.083   6.730  0.00  0.00    -0.164 F 
ENDBRANCH  36  41
ENDBRANCH  32  35
ENDBRANCH   1  29
TORSDOF 8
ENDMDL
MODEL 8
REMARK VINA RESULT:      -7.5      6.780     10.830
REMARK  8 active torsions:
REMARK  status: ('A' for Active; 'I' for Inactive)
REMARK       I    between atoms: N_2  and  C_3 
REMARK    1  A    between atoms: N_2  and  C_4 
REMARK    2  A    between atoms: C_6  and  N_29 
REMARK    3  A    between atoms: C_7  and  C_26 
REMARK    4  A    between atoms: C_7  and  C_28 
REMARK    5  A    between atoms: C_8  and  N_22 
REMARK       I    between atoms: C_9  and  N_17 
REMARK       I    between atoms: C_9  and  N_22 
REMARK    6  A    between atoms: C_10  and  N_17 
REMARK    7  A    between atoms: C_11  and  C_12 
REMARK    8  A    between atoms: C_28  and  N_29 
ROOT
HETATM    1  C   UNK N   1      27.283  16.084   4.548  0.00  0.00     0.152 A 
HETATM    2  N   UNK N   1      27.530  16.418   3.252  0.00  0.00    -0.345 N 
HETATM    3  C   UNK N   1      28.858  16.226   2.898  0.00  0.00     0.105 A 
HETATM    4  C   UNK N   1      29.663  15.716   3.928  0.00  0.00     0.003 A 
HETATM    5  S   UNK N   1      28.684  15.499   5.210  0.00  0.00    -0.057 SA
HETATM    6  H   UNK N   1      26.844  16.758   2.634  0.00  0.00     0.167 HD
ENDROOT
BRANCH   4   7
HETATM    7  C   UNK N   1      31.153  15.773   4.021  0.00  0.00     0.067 C 
BRANCH   7   8
HETATM    8  C   UNK N   1      31.617  17.229   4.239  0.00  0.00     0.126 C 
BRANCH   8   9
HETATM    9  N   UNK N   1      32.903  17.331   4.893  0.00  0.00    -0.376 N 
HETATM   10  H   UNK N   1      33.712  17.373   4.333  0.00  0.00     0.161 HD
BRANCH   9  11
HETATM   11  C   UNK N   1      33.055  17.373   6.298  0.00  0.00     0.105 A 
HETATM   12  C   UNK N   1      31.950  17.117   7.090  0.00  0.00     0.097 A 
HETATM   13  C   UNK N   1      32.044  17.335   8.455  0.00  0.00     0.125 A 
HETATM   14  N   UNK N   1      33.216  17.774   8.993  0.00  0.00    -0.338 N 
HETATM   15  C   UNK N   1      34.304  17.990   8.209  0.00  0.00     0.183 A 
ATOM     16  HN  UNK N   1      33.278  17.944   9.998  1.00  0.00     0.168 HD
HETATM   17  N   UNK N   1      34.216  17.804   6.868  0.00  0.00    -0.339 N 
ATOM     18  HN  UNK N   1      35.028  17.989   6.279  1.00  0.00     0.168 HD
BRANCH  13  19
HETATM   19  N   UNK N   1      30.888  17.161   9.251  0.00  0.00    -0.175 N 
HETATM   20  C   UNK N   1      29.637  17.758   8.976  0.00  0.00     0.699 A 
HETATM   21  N   UNK N   1      28.548  17.560   9.728  0.00  0.00    -0.131 N 
HETATM   22  N   UNK N   1      29.381  18.566   7.931  0.00  0.00    -0.185 N 
HETATM   23  N   UNK N   1      27.570  18.251   9.171  0.00  0.00    -0.281 N 
ATOM     24  HN  UNK N   1      28.485  16.986  10.569  1.00  0.00     0.205 HD
HETATM   25  C   UNK N   1      28.075  18.863   8.078  0.00  0.00     0.215 A 
HETATM   26  H   UNK N   1      26.642  18.309   9.493  0.00  0.00     0.188 HD
ATOM     27  HN  UNK N   1      30.022  18.878   7.202  1.00  0.00     0.185 HD
HETATM   28  H   UNK N   1      30.960  16.588  10.049  0.00  0.00     0.186 HD
ENDBRANCH  13  19
ENDBRANCH   9  11
ENDBRANCH   8   9
ENDBRANCH   7   8
ENDBRANCH   4   7
BRANCH   1  29
HETATM   29  N   UNK N   1      26.470  16.804   5.252  0.00  0.00    -0.288 N 
HETATM   30  C   UNK N   1      25.254  17.136   4.712  0.00  0.00     0.326 C 
HETATM   31  O   UNK N   1      24.784  16.424   3.844  0.00  0.00    -0.247 OA
HETATM   32  N   UNK N   1      24.509  18.144   5.200  0.00  0.00    -0.306 N 
HETATM   33  H   UNK N   1      24.831  18.621   5.999  0.00  0.00     0.171 HD
ATOM     34  HN  UNK N   1      26.728  17.117   6.188  1.00  0.00     0.172 HD
BRANCH  32  35
HETATM   35  C   UNK N   1      23.266  18.554   4.612  0.00  0.00     0.077 A 
HETATM   36  C   UNK N   1      21.939  18.092   4.809  0.00  0.00     0.186 A 
HETATM   37  O   UNK N   1      21.160  18.748   3.982  0.00  0.00    -0.308 OA
HETATM   38  C   UNK N   1      21.876  19.594   3.283  0.00  0.00     0.052 A 
HETATM   39  C   UNK N   1      23.210  19.508   3.622  0.00  0.00     0.064 A 
HETATM   40  C   UNK N   1      21.307  20.507   2.261  0.00  0.00     0.077 C 
BRANCH  36  41
HETATM   41  C   UNK N   1      21.353  17.016   5.706  0.00  0.00     0.441 C 
HETATM   42  F   UNK N   1      21.417  17.401   7.034  0.00  0.00    -0.164 F 
HETATM   43  F   UNK N   1      22.089  15.855   5.558  0.00  0.00    -0.164 F 
HETATM   44  F   UNK N   1      20.056  16.693   5.353  0.00  0.00    -0.164 F 
ENDBRANCH  36  41
ENDBRANCH  32  35
ENDBRANCH   1  29
TORSDOF 8
ENDMDL
MODEL 9
REMARK VINA RESULT:      -7.3      2.860      4.240
REMARK  8 active torsions:
REMARK  status: ('A' for Active; 'I' for Inactive)
REMARK       I    between atoms: N_2  and  C_3 
REMARK    1  A    between atoms: N_2  and  C_4 
REMARK    2  A    between atoms: C_6  and  N_29 
REMARK    3  A    between atoms: C_7  and  C_26 
REMARK    4  A    between atoms: C_7  and  C_28 
REMARK    5  A    between atoms: C_8  and  N_22 
REMARK       I    between atoms: C_9  and  N_17 
REMARK       I    between atoms: C_9  and  N_22 
REMARK    6  A    between atoms: C_10  and  N_17 
REMARK    7  A    between atoms: C_11  and  C_12 
REMARK    8  A    between atoms: C_28  and  N_29 
ROOT
HETATM    1  C   UNK N   1      35.394  15.146  11.695  0.00  0.00     0.152 A 
HETATM    2  N   UNK N   1      35.552  16.462  11.387  0.00  0.00    -0.345 N 
HETATM    3  C   UNK N   1      34.924  16.809  10.199  0.00  0.00     0.105 A 
HETATM    4  C   UNK N   1      34.248  15.751   9.572  0.00  0.00     0.003 A 
HETATM    5  S   UNK N   1      34.434  14.453  10.536  0.00  0.00    -0.057 SA
HETATM    6  H   UNK N   1      36.055  17.098  11.945  0.00  0.00     0.167 HD
ENDROOT
BRANCH   4   7
HETATM    7  C   UNK N   1      33.832  15.669   8.140  0.00  0.00     0.067 C 
BRANCH   7   8
HETATM    8  C   UNK N   1      34.534  16.770   7.317  0.00  0.00     0.126 C 
BRANCH   8   9
HETATM    9  N   UNK N   1      33.633  17.511   6.461  0.00  0.00    -0.376 N 
HETATM   10  H   UNK N   1      33.343  18.406   6.749  0.00  0.00     0.161 HD
BRANCH   9  11
HETATM   11  C   UNK N   1      33.148  17.011   5.231  0.00  0.00     0.105 A 
HETATM   12  C   UNK N   1      31.892  17.406   4.805  0.00  0.00     0.097 A 
HETATM   13  C   UNK N   1      31.336  16.782   3.700  0.00  0.00     0.125 A 
HETATM   14  N   UNK N   1      32.036  15.814   3.044  0.00  0.00    -0.338 N 
HETATM   15  C   UNK N   1      33.282  15.459   3.452  0.00  0.00     0.183 A 
ATOM     16  HN  UNK N   1      31.618  15.349   2.237  1.00  0.00     0.168 HD
HETATM   17  N   UNK N   1      33.825  16.045   4.548  0.00  0.00    -0.339 N 
ATOM     18  HN  UNK N   1      34.751  15.759   4.865  1.00  0.00     0.168 HD
BRANCH  13  19
HETATM   19  N   UNK N   1      30.017  17.122   3.321  0.00  0.00    -0.175 N 
HETATM   20  C   UNK N   1      28.861  16.449   3.778  0.00  0.00     0.699 A 
HETATM   21  N   UNK N   1      27.619  16.802   3.427  0.00  0.00    -0.131 N 
HETATM   22  N   UNK N   1      28.862  15.403   4.624  0.00  0.00    -0.185 N 
HETATM   23  N   UNK N   1      26.799  15.974   4.047  0.00  0.00    -0.281 N 
ATOM     24  HN  UNK N   1      27.357  17.564   2.802  1.00  0.00     0.205 HD
HETATM   25  C   UNK N   1      27.553  15.122   4.775  0.00  0.00     0.215 A 
HETATM   26  H   UNK N   1      25.816  15.977   3.990  0.00  0.00     0.188 HD
ATOM     27  HN  UNK N   1      29.662  14.935   5.050  1.00  0.00     0.185 HD
HETATM   28  H   UNK N   1      29.895  17.876   2.698  0.00  0.00     0.186 HD
ENDBRANCH  13  19
ENDBRANCH   9  11
ENDBRANCH   8   9
ENDBRANCH   7   8
ENDBRANCH   4   7
BRANCH   1  29
HETATM   29  N   UNK N   1      36.379  14.487  12.217  0.00  0.00    -0.288 N 
HETATM   30  C   UNK N   1      36.098  13.520  13.148  0.00  0.00     0.326 C 
HETATM   31  O   UNK N   1      35.000  12.996  13.136  0.00  0.00    -0.247 OA
HETATM   32  N   UNK N   1      37.037  13.042  13.984  0.00  0.00    -0.306 N 
HETATM   33  H   UNK N   1      37.961  13.367  13.887  0.00  0.00     0.171 HD
ATOM     34  HN  UNK N   1      37.341  14.683  11.941  1.00  0.00     0.172 HD
BRANCH  32  35
HETATM   35  C   UNK N   1      36.754  12.080  15.010  0.00  0.00     0.077 A 
HETATM   36  C   UNK N   1      36.045  12.197  16.234  0.00  0.00     0.186 A 
HETATM   37  O   UNK N   1      36.120  11.044  16.853  0.00  0.00    -0.308 OA
HETATM   38  C   UNK N   1      36.807  10.200  16.124  0.00  0.00     0.052 A 
HETATM   39  C   UNK N   1      37.246  10.796  14.960  0.00  0.00     0.064 A 
HETATM   40  C   UNK N   1      37.074   8.795  16.520  0.00  0.00     0.077 C 
BRANCH  36  41
HETATM   41  C   UNK N   1      35.332  13.364  16.894  0.00  0.00     0.441 C 
HETATM   42  F   UNK N   1      36.070  14.527  16.759  0.00  0.00    -0.164 F 
HETATM   43  F   UNK N   1      35.188  13.100  18.244  0.00  0.00    -0.164 F 
HETATM   44  F   UNK N   1      34.051  13.538  16.402  0.00  0.00    -0.164 F 
ENDBRANCH  36  41
ENDBRANCH  32  35
ENDBRANCH   1  29
TORSDOF 8
ENDMDL
