REMARK  8 active torsions:
REMARK  status: ('A' for Active; 'I' for Inactive)
REMARK       I    between atoms: N_2  and  C_3 
REMARK    1  A    between atoms: N_2  and  C_4 
REMARK    2  A    between atoms: C_6  and  N_29 
REMARK    3  A    between atoms: C_7  and  C_26 
REMARK    4  A    between atoms: C_7  and  C_28 
REMARK    5  A    between atoms: C_8  and  N_22 
REMARK       I    between atoms: C_9  and  N_17 
REMARK       I    between atoms: C_9  and  N_22 
REMARK    6  A    between atoms: C_10  and  N_17 
REMARK    7  A    between atoms: C_11  and  C_12 
REMARK    8  A    between atoms: C_28  and  N_29 
ROOT
HETATM    1  C   UNK N   1      -2.388  -2.523  -0.299  0.00  0.00     0.152 A 
HETATM    2  N   UNK N   1      -3.217  -2.260   0.748  0.00  0.00    -0.345 N 
HETATM    3  C   UNK N   1      -2.920  -1.057   1.372  0.00  0.00     0.105 A 
HETATM    4  C   UNK N   1      -1.851  -0.355   0.795  0.00  0.00     0.003 A 
HETATM    5  S   UNK N   1      -1.352  -1.242  -0.475  0.00  0.00    -0.057 SA
HETATM    6  H   UNK N   1      -3.946  -2.857   1.031  0.00  0.00     0.167 HD
ENDROOT
BRANCH   4   7
HETATM    7  C   UNK N   1      -1.032   0.722   1.428  0.00  0.00     0.067 C 
BRANCH   7   8
HETATM    8  C   UNK N   1       0.375   0.763   0.794  0.00  0.00     0.126 C 
BRANCH   8   9
HETATM    9  N   UNK N   1       0.623   1.961   0.021  0.00  0.00    -0.376 N 
HETATM   10  H   UNK N   1       1.539   2.132  -0.297  0.00  0.00     0.161 HD
BRANCH   9  11
HETATM   11  C   UNK N   1      -0.386   2.898  -0.299  0.00  0.00     0.105 A 
HETATM   12  C   UNK N   1      -0.098   4.246  -0.179  0.00  0.00     0.097 A 
HETATM   13  C   UNK N   1      -1.129   5.162  -0.311  0.00  0.00     0.125 A 
HETATM   14  N   UNK N   1      -2.393   4.727  -0.575  0.00  0.00    -0.338 N 
HETATM   15  C   UNK N   1      -2.656   3.403  -0.724  0.00  0.00     0.183 A 
ATOM     16  HN  UNK N   1      -3.152   5.404  -0.661  1.00  0.00     0.168 HD
HETATM   17  N   UNK N   1      -1.659   2.496  -0.571  0.00  0.00    -0.339 N 
ATOM     18  HN  UNK N   1      -1.865   1.501  -0.660  1.00  0.00     0.168 HD
BRANCH  13  19
HETATM   19  N   UNK N   1      -0.851   6.532  -0.098  0.00  0.00    -0.175 N 
HETATM   20  C   UNK N   1      -1.838   7.541  -0.027  0.00  0.00     0.699 A 
HETATM   21  N   UNK N   1      -1.556   8.829   0.201  0.00  0.00    -0.131 N 
HETATM   22  N   UNK N   1      -3.162   7.335  -0.153  0.00  0.00    -0.185 N 
HETATM   23  N   UNK N   1      -2.709   9.473   0.218  0.00  0.00    -0.281 N 
ATOM     24  HN  UNK N   1      -0.630   9.235   0.335  1.00  0.00     0.205 HD
HETATM   25  C   UNK N   1      -3.686   8.566   0.003  0.00  0.00     0.215 A 
HETATM   26  H   UNK N   1      -2.833  10.439   0.362  0.00  0.00     0.188 HD
ATOM     27  HN  UNK N   1      -3.651   6.457  -0.325  1.00  0.00     0.185 HD
HETATM   28  H   UNK N   1       0.091   6.801   0.006  0.00  0.00     0.186 HD
ENDBRANCH  13  19
ENDBRANCH   9  11
ENDBRANCH   8   9
ENDBRANCH   7   8
ENDBRANCH   4   7
BRANCH   1  29
HETATM   29  N   UNK N   1      -1.982  -3.734  -0.507  0.00  0.00    -0.288 N 
HETATM   30  C   UNK N   1      -0.685  -4.052  -0.195  0.00  0.00     0.326 C 
HETATM   31  O   UNK N   1      -0.104  -3.389   0.644  0.00  0.00    -0.247 OA
HETATM   32  N   UNK N   1      -0.082  -5.149  -0.688  0.00  0.00    -0.306 N 
HETATM   33  H   UNK N   1      -0.609  -5.761  -1.251  0.00  0.00     0.171 HD
ATOM     34  HN  UNK N   1      -2.613  -4.436  -0.893  1.00  0.00     0.172 HD
BRANCH  32  35
HETATM   35  C   UNK N   1       1.293  -5.467  -0.431  0.00  0.00     0.077 A 
HETATM   36  C   UNK N   1       2.411  -4.637  -0.157  0.00  0.00     0.186 A 
HETATM   37  O   UNK N   1       3.468  -5.407  -0.059  0.00  0.00    -0.308 OA
HETATM   38  C   UNK N   1       3.117  -6.657  -0.237  0.00  0.00     0.052 A 
HETATM   39  C   UNK N   1       1.765  -6.758  -0.490  0.00  0.00     0.064 A 
HETATM   40  C   UNK N   1       4.066  -7.796  -0.178  0.00  0.00     0.077 C 
BRANCH  36  41
HETATM   41  C   UNK N   1       2.560  -3.131  -0.031  0.00  0.00     0.441 C 
HETATM   42  F   UNK N   1       1.926  -2.489  -1.080  0.00  0.00    -0.164 F 
HETATM   43  F   UNK N   1       3.903  -2.804  -0.075  0.00  0.00    -0.164 F 
HETATM   44  F   UNK N   1       2.093  -2.661   1.183  0.00  0.00    -0.164 F 
ENDBRANCH  36  41
ENDBRANCH  32  35
ENDBRANCH   1  29
TORSDOF 8
