MODEL 1
REMARK VINA RESULT:      -7.2      0.000      0.000
REMARK  8 active torsions:
REMARK  status: ('A' for Active; 'I' for Inactive)
REMARK    1  A    between atoms: C_1  and  C_22 
REMARK       I    between atoms: C_4  and  N_9 
REMARK    2  A    between atoms: N_9  and  C_10 
REMARK    3  A    between atoms: C_13  and  S_16 
REMARK    4  A    between atoms: S_16  and  N_17 
REMARK    5  A    between atoms: N_17  and  C_18 
REMARK    6  A    between atoms: C_18  and  C_19 
REMARK    7  A    between atoms: C_19  and  O_20 
REMARK    8  A    between atoms: N_23  and  C_28 
ROOT
HETATM    1  C   UNK N   1      28.616  18.453   7.592  0.00  0.00     0.078 A 
HETATM    2  N   UNK N   1      29.770  17.849   7.170  0.00  0.00    -0.189 N 
ATOM      3  HN  UNK N   1      30.052  17.923   6.194  1.00  0.00     0.184 HD
HETATM    4  C   UNK N   1      30.544  17.149   8.047  0.00  0.00     0.683 A 
HETATM    5  N   UNK N   1      30.162  17.047   9.352  0.00  0.00    -0.202 N 
ATOM      6  HN  UNK N   1      30.748  16.524  10.003  1.00  0.00     0.183 HD
HETATM    7  C   UNK N   1      29.027  17.621   9.803  0.00  0.00     0.108 A 
HETATM    8  C   UNK N   1      28.234  18.337   8.928  0.00  0.00     0.050 A 
HETATM    9  N   UNK N   1      31.760  16.535   7.633  0.00  0.00    -0.192 N 
HETATM   10  H   UNK N   1      31.947  16.353   6.683  0.00  0.00     0.184 HD
ENDROOT
BRANCH   9  11
HETATM   11  C   UNK N   1      32.687  16.197   8.648  0.00  0.00     0.049 A 
HETATM   12  C   UNK N   1      33.777  17.036   8.922  0.00  0.00     0.031 A 
HETATM   13  C   UNK N   1      34.876  16.538   9.641  0.00  0.00     0.027 A 
HETATM   14  C   UNK N   1      34.872  15.206  10.084  0.00  0.00     0.079 A 
HETATM   15  C   UNK N   1      33.767  14.396   9.846  0.00  0.00     0.027 A 
HETATM   16  C   UNK N   1      32.686  14.883   9.129  0.00  0.00     0.031 A 
BRANCH  14  17
HETATM   17  S   UNK N   1      36.347  14.409  10.690  0.00  0.00     0.258 S 
HETATM   18  O   UNK N   1      36.543  13.003  10.100  0.00  0.00    -0.201 OA
HETATM   19  O   UNK N   1      37.541  15.157  10.081  0.00  0.00    -0.201 OA
BRANCH  17  20
HETATM   20  N   UNK N   1      36.738  14.307  12.416  0.00  0.00    -0.313 N 
HETATM   21  H   UNK N   1      37.506  14.790  12.882  0.00  0.00     0.172 HD
BRANCH  20  22
HETATM   22  C   UNK N   1      35.776  13.416  13.058  0.00  0.00     0.158 C 
BRANCH  22  23
HETATM   23  C   UNK N   1      35.761  13.625  14.569  0.00  0.00     0.187 C 
BRANCH  23  24
HETATM   24  O   UNK N   1      34.557  13.176  15.118  0.00  0.00    -0.394 OA
HETATM   25  C   UNK N   1      34.856  12.860  16.443  0.00  0.00     0.201 C 
ENDBRANCH  23  24
ENDBRANCH  22  23
ENDBRANCH  20  22
ENDBRANCH  17  20
ENDBRANCH  14  17
ENDBRANCH   9  11
BRANCH   1  26
HETATM   26  C   UNK N   1      27.793  19.239   6.640  0.00  0.00     0.079 A 
HETATM   27  N   UNK N   1      27.113  18.783   5.556  0.00  0.00    -0.330 N 
HETATM   28  C   UNK N   1      26.526  19.872   5.025  0.00  0.00     0.080 A 
HETATM   29  N   UNK N   1      26.801  20.992   5.720  0.00  0.00    -0.354 N 
HETATM   30  C   UNK N   1      25.670  19.856   3.804  0.00  0.00     0.089 C 
HETATM   31  C   UNK N   1      27.599  20.605   6.739  0.00  0.00     0.121 A 
ATOM     32  HN  UNK N   1      26.474  21.937   5.520  1.00  0.00     0.166 HD
BRANCH  27  33
HETATM   33  C   UNK N   1      26.982  17.435   4.987  0.00  0.00     0.083 C 
HETATM   34  C   UNK N   1      26.614  16.398   6.034  0.00  0.00     0.032 C 
HETATM   35  C   UNK N   1      28.210  17.032   4.188  0.00  0.00     0.032 C 
ENDBRANCH  27  33
ENDBRANCH   1  26
TORSDOF 8
ENDMDL
MODEL 2
REMARK VINA RESULT:      -7.1      3.025      4.521
REMARK  8 active torsions:
REMARK  status: ('A' for Active; 'I' for Inactive)
REMARK    1  A    between atoms: C_1  and  C_22 
REMARK       I    between atoms: C_4  and  N_9 
REMARK    2  A    between atoms: N_9  and  C_10 
REMARK    3  A    between atoms: C_13  and  S_16 
REMARK    4  A    between atoms: S_16  and  N_17 
REMARK    5  A    between atoms: N_17  and  C_18 
REMARK    6  A    between atoms: C_18  and  C_19 
REMARK    7  A    between atoms: C_19  and  O_20 
REMARK    8  A    between atoms: N_23  and  C_28 
ROOT
HETATM    1  C   UNK N   1      25.531  17.872   4.658  0.00  0.00     0.078 A 
HETATM    2  N   UNK N   1      26.243  17.294   5.676  0.00  0.00    -0.189 N 
ATOM      3  HN  UNK N   1      25.871  16.473   6.150  1.00  0.00     0.184 HD
HETATM    4  C   UNK N   1      27.445  17.810   6.058  0.00  0.00     0.683 A 
HETATM    5  N   UNK N   1      27.939  18.912   5.424  0.00  0.00    -0.202 N 
ATOM      6  HN  UNK N   1      28.841  19.291   5.714  1.00  0.00     0.183 HD
HETATM    7  C   UNK N   1      27.263  19.515   4.424  0.00  0.00     0.108 A 
HETATM    8  C   UNK N   1      26.045  19.001   4.022  0.00  0.00     0.050 A 
HETATM    9  N   UNK N   1      28.211  17.208   7.096  0.00  0.00    -0.192 N 
HETATM   10  H   UNK N   1      27.802  16.593   7.747  0.00  0.00     0.184 HD
ENDROOT
BRANCH   9  11
HETATM   11  C   UNK N   1      29.588  17.535   7.151  0.00  0.00     0.049 A 
HETATM   12  C   UNK N   1      30.478  17.018   6.199  0.00  0.00     0.031 A 
HETATM   13  C   UNK N   1      31.859  17.027   6.459  0.00  0.00     0.027 A 
HETATM   14  C   UNK N   1      32.336  17.559   7.667  0.00  0.00     0.079 A 
HETATM   15  C   UNK N   1      31.448  18.111   8.584  0.00  0.00     0.027 A 
HETATM   16  C   UNK N   1      30.085  18.094   8.333  0.00  0.00     0.031 A 
BRANCH  14  17
HETATM   17  S   UNK N   1      34.012  17.300   8.215  0.00  0.00     0.258 S 
HETATM   18  O   UNK N   1      34.736  16.212   7.406  0.00  0.00    -0.201 OA
HETATM   19  O   UNK N   1      34.810  18.549   7.816  0.00  0.00    -0.201 OA
BRANCH  17  20
HETATM   20  N   UNK N   1      34.433  17.048   9.919  0.00  0.00    -0.313 N 
HETATM   21  H   UNK N   1      34.663  17.780  10.591  0.00  0.00     0.172 HD
BRANCH  20  22
HETATM   22  C   UNK N   1      34.395  15.614  10.198  0.00  0.00     0.158 C 
BRANCH  22  23
HETATM   23  C   UNK N   1      35.251  15.272  11.412  0.00  0.00     0.187 C 
BRANCH  23  24
HETATM   24  O   UNK N   1      34.628  14.298  12.197  0.00  0.00    -0.394 OA
HETATM   25  C   UNK N   1      35.613  13.858  13.082  0.00  0.00     0.201 C 
ENDBRANCH  23  24
ENDBRANCH  22  23
ENDBRANCH  20  22
ENDBRANCH  17  20
ENDBRANCH  14  17
ENDBRANCH   9  11
BRANCH   1  26
HETATM   26  C   UNK N   1      24.238  17.288   4.226  0.00  0.00     0.079 A 
HETATM   27  N   UNK N   1      24.035  16.134   3.539  0.00  0.00    -0.330 N 
HETATM   28  C   UNK N   1      22.701  16.041   3.393  0.00  0.00     0.080 A 
HETATM   29  N   UNK N   1      22.050  17.078   3.955  0.00  0.00    -0.354 N 
HETATM   30  C   UNK N   1      22.006  14.925   2.689  0.00  0.00     0.089 C 
HETATM   31  C   UNK N   1      23.009  17.870   4.481  0.00  0.00     0.121 A 
ATOM     32  HN  UNK N   1      21.042  17.234   3.979  1.00  0.00     0.166 HD
BRANCH  27  33
HETATM   33  C   UNK N   1      24.978  15.138   3.011  0.00  0.00     0.083 C 
HETATM   34  C   UNK N   1      25.589  14.283   4.107  0.00  0.00     0.032 C 
HETATM   35  C   UNK N   1      26.034  15.770   2.120  0.00  0.00     0.032 C 
ENDBRANCH  27  33
ENDBRANCH   1  26
TORSDOF 8
ENDMDL
MODEL 3
REMARK VINA RESULT:      -7.1      4.517     10.840
REMARK  8 active torsions:
REMARK  status: ('A' for Active; 'I' for Inactive)
REMARK    1  A    between atoms: C_1  and  C_22 
REMARK       I    between atoms: C_4  and  N_9 
REMARK    2  A    between atoms: N_9  and  C_10 
REMARK    3  A    between atoms: C_13  and  S_16 
REMARK    4  A    between atoms: S_16  and  N_17 
REMARK    5  A    between atoms: N_17  and  C_18 
REMARK    6  A    between atoms: C_18  and  C_19 
REMARK    7  A    between atoms: C_19  and  O_20 
REMARK    8  A    between atoms: N_23  and  C_28 
ROOT
HETATM    1  C   UNK N   1      35.360  14.589  11.785  0.00  0.00     0.078 A 
HETATM    2  N   UNK N   1      34.221  14.222  11.119  0.00  0.00    -0.189 N 
ATOM      3  HN  UNK N   1      33.787  13.321  11.318  1.00  0.00     0.184 HD
HETATM    4  C   UNK N   1      33.664  15.051  10.192  0.00  0.00     0.683 A 
HETATM    5  N   UNK N   1      34.250  16.254   9.924  0.00  0.00    -0.202 N 
ATOM      6  HN  UNK N   1      33.826  16.871   9.231  1.00  0.00     0.183 HD
HETATM    7  C   UNK N   1      35.378  16.647  10.553  0.00  0.00     0.108 A 
HETATM    8  C   UNK N   1      35.951  15.818  11.498  0.00  0.00     0.050 A 
HETATM    9  N   UNK N   1      32.468  14.698   9.508  0.00  0.00    -0.192 N 
HETATM   10  H   UNK N   1      32.156  13.765   9.463  0.00  0.00     0.184 HD
ENDROOT
BRANCH   9  11
HETATM   11  C   UNK N   1      31.745  15.750   8.893  0.00  0.00     0.049 A 
HETATM   12  C   UNK N   1      30.812  16.495   9.628  0.00  0.00     0.031 A 
HETATM   13  C   UNK N   1      29.847  17.263   8.955  0.00  0.00     0.027 A 
HETATM   14  C   UNK N   1      29.828  17.281   7.552  0.00  0.00     0.079 A 
HETATM   15  C   UNK N   1      30.785  16.574   6.832  0.00  0.00     0.027 A 
HETATM   16  C   UNK N   1      31.732  15.809   7.495  0.00  0.00     0.031 A 
BRANCH  14  17
HETATM   17  S   UNK N   1      28.448  17.940   6.636  0.00  0.00     0.258 S 
HETATM   18  O   UNK N   1      28.808  18.261   5.176  0.00  0.00    -0.201 OA
HETATM   19  O   UNK N   1      27.447  16.791   6.449  0.00  0.00    -0.201 OA
BRANCH  17  20
HETATM   20  N   UNK N   1      27.456  19.282   7.233  0.00  0.00    -0.313 N 
HETATM   21  H   UNK N   1      26.802  19.237   8.015  0.00  0.00     0.172 HD
BRANCH  20  22
HETATM   22  C   UNK N   1      27.734  20.462   6.419  0.00  0.00     0.158 C 
BRANCH  22  23
HETATM   23  C   UNK N   1      26.442  21.164   6.017  0.00  0.00     0.187 C 
BRANCH  23  24
HETATM   24  O   UNK N   1      25.712  20.379   5.120  0.00  0.00    -0.394 OA
HETATM   25  C   UNK N   1      26.435  20.417   3.929  0.00  0.00     0.201 C 
ENDBRANCH  23  24
ENDBRANCH  22  23
ENDBRANCH  20  22
ENDBRANCH  17  20
ENDBRANCH  14  17
ENDBRANCH   9  11
BRANCH   1  26
HETATM   26  C   UNK N   1      35.944  13.695  12.814  0.00  0.00     0.079 A 
HETATM   27  N   UNK N   1      36.808  12.663  12.626  0.00  0.00    -0.330 N 
HETATM   28  C   UNK N   1      37.042  12.171  13.856  0.00  0.00     0.080 A 
HETATM   29  N   UNK N   1      36.371  12.842  14.813  0.00  0.00    -0.354 N 
HETATM   30  C   UNK N   1      37.938  11.014  14.144  0.00  0.00     0.089 C 
HETATM   31  C   UNK N   1      35.676  13.802  14.167  0.00  0.00     0.121 A 
ATOM     32  HN  UNK N   1      36.385  12.662  15.817  1.00  0.00     0.166 HD
BRANCH  27  33
HETATM   33  C   UNK N   1      37.409  12.109  11.405  0.00  0.00     0.083 C 
HETATM   34  C   UNK N   1      38.285  13.118  10.682  0.00  0.00     0.032 C 
HETATM   35  C   UNK N   1      36.369  11.491  10.487  0.00  0.00     0.032 C 
ENDBRANCH  27  33
ENDBRANCH   1  26
TORSDOF 8
ENDMDL
MODEL 4
REMARK VINA RESULT:      -6.8      1.431      2.731
REMARK  8 active torsions:
REMARK  status: ('A' for Active; 'I' for Inactive)
REMARK    1  A    between atoms: C_1  and  C_22 
REMARK       I    between atoms: C_4  and  N_9 
REMARK    2  A    between atoms: N_9  and  C_10 
REMARK    3  A    between atoms: C_13  and  S_16 
REMARK    4  A    between atoms: S_16  and  N_17 
REMARK    5  A    between atoms: N_17  and  C_18 
REMARK    6  A    between atoms: C_18  and  C_19 
REMARK    7  A    between atoms: C_19  and  O_20 
REMARK    8  A    between atoms: N_23  and  C_28 
ROOT
HETATM    1  C   UNK N   1      28.484  17.157   5.504  0.00  0.00     0.078 A 
HETATM    2  N   UNK N   1      28.978  16.965   6.767  0.00  0.00    -0.189 N 
ATOM      3  HN  UNK N   1      28.335  16.852   7.549  1.00  0.00     0.184 HD
HETATM    4  C   UNK N   1      30.322  16.925   6.985  0.00  0.00     0.683 A 
HETATM    5  N   UNK N   1      31.181  17.081   5.936  0.00  0.00    -0.202 N 
ATOM      6  HN  UNK N   1      32.186  17.046   6.106  1.00  0.00     0.183 HD
HETATM    7  C   UNK N   1      30.733  17.281   4.679  0.00  0.00     0.108 A 
HETATM    8  C   UNK N   1      29.372  17.320   4.442  0.00  0.00     0.050 A 
HETATM    9  N   UNK N   1      30.854  16.702   8.286  0.00  0.00    -0.192 N 
HETATM   10  H   UNK N   1      30.311  16.843   9.095  0.00  0.00     0.184 HD
ENDROOT
BRANCH   9  11
HETATM   11  C   UNK N   1      32.200  16.268   8.364  0.00  0.00     0.049 A 
HETATM   12  C   UNK N   1      32.502  14.901   8.447  0.00  0.00     0.031 A 
HETATM   13  C   UNK N   1      33.770  14.493   8.894  0.00  0.00     0.027 A 
HETATM   14  C   UNK N   1      34.725  15.458   9.250  0.00  0.00     0.079 A 
HETATM   15  C   UNK N   1      34.431  16.811   9.121  0.00  0.00     0.027 A 
HETATM   16  C   UNK N   1      33.178  17.215   8.689  0.00  0.00     0.031 A 
BRANCH  14  17
HETATM   17  S   UNK N   1      36.210  15.032  10.139  0.00  0.00     0.258 S 
HETATM   18  O   UNK N   1      37.405  14.777   9.206  0.00  0.00    -0.201 OA
HETATM   19  O   UNK N   1      36.670  16.299  10.873  0.00  0.00    -0.201 OA
BRANCH  17  20
HETATM   20  N   UNK N   1      36.250  13.774  11.388  0.00  0.00    -0.313 N 
HETATM   21  H   UNK N   1      36.881  12.973  11.406  0.00  0.00     0.172 HD
BRANCH  20  22
HETATM   22  C   UNK N   1      35.227  14.078  12.385  0.00  0.00     0.158 C 
BRANCH  22  23
HETATM   23  C   UNK N   1      35.634  13.559  13.760  0.00  0.00     0.187 C 
BRANCH  23  24
HETATM   24  O   UNK N   1      34.518  13.098  14.464  0.00  0.00    -0.394 OA
HETATM   25  C   UNK N   1      34.933  13.018  15.793  0.00  0.00     0.201 C 
ENDBRANCH  23  24
ENDBRANCH  22  23
ENDBRANCH  20  22
ENDBRANCH  17  20
ENDBRANCH  14  17
ENDBRANCH   9  11
BRANCH   1  26
HETATM   26  C   UNK N   1      27.020  17.170   5.268  0.00  0.00     0.079 A 
HETATM   27  N   UNK N   1      26.219  18.250   5.067  0.00  0.00    -0.330 N 
HETATM   28  C   UNK N   1      24.983  17.745   4.900  0.00  0.00     0.080 A 
HETATM   29  N   UNK N   1      24.962  16.400   4.984  0.00  0.00    -0.354 N 
HETATM   30  C   UNK N   1      23.764  18.567   4.652  0.00  0.00     0.089 C 
HETATM   31  C   UNK N   1      26.240  16.029   5.216  0.00  0.00     0.121 A 
ATOM     32  HN  UNK N   1      24.151  15.789   4.890  1.00  0.00     0.166 HD
BRANCH  27  33
HETATM   33  C   UNK N   1      26.518  19.687   5.031  0.00  0.00     0.083 C 
HETATM   34  C   UNK N   1      27.200  20.104   3.739  0.00  0.00     0.032 C 
HETATM   35  C   UNK N   1      27.289  20.141   6.259  0.00  0.00     0.032 C 
ENDBRANCH  27  33
ENDBRANCH   1  26
TORSDOF 8
ENDMDL
MODEL 5
REMARK VINA RESULT:      -6.7      5.215     10.296
REMARK  8 active torsions:
REMARK  status: ('A' for Active; 'I' for Inactive)
REMARK    1  A    between atoms: C_1  and  C_22 
REMARK       I    between atoms: C_4  and  N_9 
REMARK    2  A    between atoms: N_9  and  C_10 
REMARK    3  A    between atoms: C_13  and  S_16 
REMARK    4  A    between atoms: S_16  and  N_17 
REMARK    5  A    between atoms: N_17  and  C_18 
REMARK    6  A    between atoms: C_18  and  C_19 
REMARK    7  A    between atoms: C_19  and  O_20 
REMARK    8  A    between atoms: N_23  and  C_28 
ROOT
HETATM    1  C   UNK N   1      34.281  16.438   9.433  0.00  0.00     0.078 A 
HETATM    2  N   UNK N   1      32.987  16.099   9.138  0.00  0.00    -0.189 N 
ATOM      3  HN  UNK N   1      32.567  15.280   9.575  1.00  0.00     0.184 HD
HETATM    4  C   UNK N   1      32.258  16.848   8.263  0.00  0.00     0.683 A 
HETATM    5  N   UNK N   1      32.824  17.941   7.675  0.00  0.00    -0.202 N 
ATOM      6  HN  UNK N   1      32.271  18.498   7.024  1.00  0.00     0.183 HD
HETATM    7  C   UNK N   1      34.098  18.302   7.933  0.00  0.00     0.108 A 
HETATM    8  C   UNK N   1      34.849  17.555   8.821  0.00  0.00     0.050 A 
HETATM    9  N   UNK N   1      30.904  16.525   7.963  0.00  0.00    -0.192 N 
HETATM   10  H   UNK N   1      30.537  15.629   8.143  0.00  0.00     0.184 HD
ENDROOT
BRANCH   9  11
HETATM   11  C   UNK N   1      30.111  17.550   7.395  0.00  0.00     0.049 A 
HETATM   12  C   UNK N   1      29.258  18.319   8.201  0.00  0.00     0.031 A 
HETATM   13  C   UNK N   1      28.219  19.057   7.611  0.00  0.00     0.027 A 
HETATM   14  C   UNK N   1      28.045  19.024   6.219  0.00  0.00     0.079 A 
HETATM   15  C   UNK N   1      28.923  18.294   5.424  0.00  0.00     0.027 A 
HETATM   16  C   UNK N   1      29.943  17.558   6.006  0.00  0.00     0.031 A 
BRANCH  14  17
HETATM   17  S   UNK N   1      26.567  19.643   5.438  0.00  0.00     0.258 S 
HETATM   18  O   UNK N   1      26.167  21.035   5.952  0.00  0.00    -0.201 OA
HETATM   19  O   UNK N   1      26.932  19.958   3.980  0.00  0.00    -0.201 OA
BRANCH  17  20
HETATM   20  N   UNK N   1      25.079  18.688   5.313  0.00  0.00    -0.313 N 
HETATM   21  H   UNK N   1      24.318  18.680   5.991  0.00  0.00     0.172 HD
BRANCH  20  22
HETATM   22  C   UNK N   1      25.126  17.916   4.073  0.00  0.00     0.158 C 
BRANCH  22  23
HETATM   23  C   UNK N   1      25.006  16.423   4.355  0.00  0.00     0.187 C 
BRANCH  23  24
HETATM   24  O   UNK N   1      25.619  15.678   3.345  0.00  0.00    -0.394 OA
HETATM   25  C   UNK N   1      26.807  16.351   3.065  0.00  0.00     0.201 C 
ENDBRANCH  23  24
ENDBRANCH  22  23
ENDBRANCH  20  22
ENDBRANCH  17  20
ENDBRANCH  14  17
ENDBRANCH   9  11
BRANCH   1  26
HETATM   26  C   UNK N   1      35.060  15.638  10.407  0.00  0.00     0.079 A 
HETATM   27  N   UNK N   1      35.601  14.404  10.227  0.00  0.00    -0.330 N 
HETATM   28  C   UNK N   1      36.206  14.111  11.393  0.00  0.00     0.080 A 
HETATM   29  N   UNK N   1      36.076  15.098  12.300  0.00  0.00    -0.354 N 
HETATM   30  C   UNK N   1      36.939  12.841  11.665  0.00  0.00     0.089 C 
HETATM   31  C   UNK N   1      35.355  16.063  11.690  0.00  0.00     0.121 A 
ATOM     32  HN  UNK N   1      36.445  15.114  13.251  1.00  0.00     0.166 HD
BRANCH  27  33
HETATM   33  C   UNK N   1      35.585  13.496   9.073  0.00  0.00     0.083 C 
HETATM   34  C   UNK N   1      36.051  14.174   7.796  0.00  0.00     0.032 C 
HETATM   35  C   UNK N   1      34.237  12.815   8.902  0.00  0.00     0.032 C 
ENDBRANCH  27  33
ENDBRANCH   1  26
TORSDOF 8
ENDMDL
MODEL 6
REMARK VINA RESULT:      -6.6      3.826     11.163
REMARK  8 active torsions:
REMARK  status: ('A' for Active; 'I' for Inactive)
REMARK    1  A    between atoms: C_1  and  C_22 
REMARK       I    between atoms: C_4  and  N_9 
REMARK    2  A    between atoms: N_9  and  C_10 
REMARK    3  A    between atoms: C_13  and  S_16 
REMARK    4  A    between atoms: S_16  and  N_17 
REMARK    5  A    between atoms: N_17  and  C_18 
REMARK    6  A    between atoms: C_18  and  C_19 
REMARK    7  A    between atoms: C_19  and  O_20 
REMARK    8  A    between atoms: N_23  and  C_28 
ROOT
HETATM    1  C   UNK N   1      35.826  13.285  15.329  0.00  0.00     0.078 A 
HETATM    2  N   UNK N   1      35.207  12.932  14.160  0.00  0.00    -0.189 N 
ATOM      3  HN  UNK N   1      34.576  12.133  14.144  1.00  0.00     0.184 HD
HETATM    4  C   UNK N   1      35.428  13.643  13.018  0.00  0.00     0.683 A 
HETATM    5  N   UNK N   1      36.277  14.710  13.041  0.00  0.00    -0.202 N 
ATOM      6  HN  UNK N   1      36.436  15.239  12.183  1.00  0.00     0.183 HD
HETATM    7  C   UNK N   1      36.914  15.083  14.171  0.00  0.00     0.108 A 
HETATM    8  C   UNK N   1      36.696  14.376  15.338  0.00  0.00     0.050 A 
HETATM    9  N   UNK N   1      34.774  13.306  11.799  0.00  0.00    -0.192 N 
HETATM   10  H   UNK N   1      34.371  12.419  11.659  0.00  0.00     0.184 HD
ENDROOT
BRANCH   9  11
HETATM   11  C   UNK N   1      34.730  14.306  10.797  0.00  0.00     0.049 A 
HETATM   12  C   UNK N   1      33.537  14.996  10.536  0.00  0.00     0.031 A 
HETATM   13  C   UNK N   1      33.388  15.697   9.326  0.00  0.00     0.027 A 
HETATM   14  C   UNK N   1      34.436  15.703   8.393  0.00  0.00     0.079 A 
HETATM   15  C   UNK N   1      35.631  15.053   8.682  0.00  0.00     0.027 A 
HETATM   16  C   UNK N   1      35.776  14.354   9.870  0.00  0.00     0.031 A 
BRANCH  14  17
HETATM   17  S   UNK N   1      34.204  16.268   6.718  0.00  0.00     0.258 S 
HETATM   18  O   UNK N   1      34.405  17.785   6.573  0.00  0.00    -0.201 OA
HETATM   19  O   UNK N   1      35.386  15.730   5.899  0.00  0.00    -0.201 OA
BRANCH  17  20
HETATM   20  N   UNK N   1      32.780  15.838   5.753  0.00  0.00    -0.313 N 
HETATM   21  H   UNK N   1      32.628  14.947   5.280  0.00  0.00     0.172 HD
BRANCH  20  22
HETATM   22  C   UNK N   1      31.862  16.974   5.750  0.00  0.00     0.158 C 
BRANCH  22  23
HETATM   23  C   UNK N   1      30.773  16.799   6.803  0.00  0.00     0.187 C 
BRANCH  23  24
HETATM   24  O   UNK N   1      29.508  16.799   6.209  0.00  0.00    -0.394 OA
HETATM   25  C   UNK N   1      29.625  17.637   5.101  0.00  0.00     0.201 C 
ENDBRANCH  23  24
ENDBRANCH  22  23
ENDBRANCH  20  22
ENDBRANCH  17  20
ENDBRANCH  14  17
ENDBRANCH   9  11
BRANCH   1  26
HETATM   26  C   UNK N   1      35.558  12.528  16.575  0.00  0.00     0.079 A 
HETATM   27  N   UNK N   1      35.702  11.193  16.783  0.00  0.00    -0.330 N 
HETATM   28  C   UNK N   1      35.339  10.995  18.064  0.00  0.00     0.080 A 
HETATM   29  N   UNK N   1      34.974  12.139  18.676  0.00  0.00    -0.354 N 
HETATM   30  C   UNK N   1      35.333   9.667  18.742  0.00  0.00     0.089 C 
HETATM   31  C   UNK N   1      35.108  13.109  17.746  0.00  0.00     0.121 A 
ATOM     32  HN  UNK N   1      34.662  12.249  19.640  1.00  0.00     0.166 HD
BRANCH  27  33
HETATM   33  C   UNK N   1      36.135  10.110  15.889  0.00  0.00     0.083 C 
HETATM   34  C   UNK N   1      37.449  10.425  15.194  0.00  0.00     0.032 C 
HETATM   35  C   UNK N   1      35.047   9.713  14.906  0.00  0.00     0.032 C 
ENDBRANCH  27  33
ENDBRANCH   1  26
TORSDOF 8
ENDMDL
MODEL 7
REMARK VINA RESULT:      -6.5      3.949     10.279
REMARK  8 active torsions:
REMARK  status: ('A' for Active; 'I' for Inactive)
REMARK    1  A    between atoms: C_1  and  C_22 
REMARK       I    between atoms: C_4  and  N_9 
REMARK    2  A    between atoms: N_9  and  C_10 
REMARK    3  A    between atoms: C_13  and  S_16 
REMARK    4  A    between atoms: S_16  and  N_17 
REMARK    5  A    between atoms: N_17  and  C_18 
REMARK    6  A    between atoms: C_18  and  C_19 
REMARK    7  A    between atoms: C_19  and  O_20 
REMARK    8  A    between atoms: N_23  and  C_28 
ROOT
HETATM    1  C   UNK N   1      35.770  13.552  12.121  0.00  0.00     0.078 A 
HETATM    2  N   UNK N   1      34.507  13.803  11.654  0.00  0.00    -0.189 N 
ATOM      3  HN  UNK N   1      33.713  13.748  12.291  1.00  0.00     0.184 HD
HETATM    4  C   UNK N   1      34.304  14.124  10.345  0.00  0.00     0.683 A 
HETATM    5  N   UNK N   1      35.368  14.191   9.494  0.00  0.00    -0.202 N 
ATOM      6  HN  UNK N   1      35.209  14.434   8.516  1.00  0.00     0.183 HD
HETATM    7  C   UNK N   1      36.626  13.942   9.914  0.00  0.00     0.108 A 
HETATM    8  C   UNK N   1      36.848  13.620  11.239  0.00  0.00     0.050 A 
HETATM    9  N   UNK N   1      33.002  14.411   9.848  0.00  0.00    -0.192 N 
HETATM   10  H   UNK N   1      32.192  14.130  10.332  0.00  0.00     0.184 HD
ENDROOT
BRANCH   9  11
HETATM   11  C   UNK N   1      32.924  15.120   8.625  0.00  0.00     0.049 A 
HETATM   12  C   UNK N   1      32.713  16.507   8.620  0.00  0.00     0.031 A 
HETATM   13  C   UNK N   1      32.268  17.140   7.447  0.00  0.00     0.027 A 
HETATM   14  C   UNK N   1      32.043  16.380   6.289  0.00  0.00     0.079 A 
HETATM   15  C   UNK N   1      32.298  15.013   6.292  0.00  0.00     0.027 A 
HETATM   16  C   UNK N   1      32.728  14.386   7.450  0.00  0.00     0.031 A 
BRANCH  14  17
HETATM   17  S   UNK N   1      31.163  17.039   4.885  0.00  0.00     0.258 S 
HETATM   18  O   UNK N   1      32.053  17.917   3.991  0.00  0.00    -0.201 OA
HETATM   19  O   UNK N   1      30.872  15.859   3.948  0.00  0.00    -0.201 OA
BRANCH  17  20
HETATM   20  N   UNK N   1      29.602  17.865   5.036  0.00  0.00    -0.313 N 
HETATM   21  H   UNK N   1      29.327  18.713   4.540  0.00  0.00     0.172 HD
BRANCH  20  22
HETATM   22  C   UNK N   1      28.777  17.127   5.989  0.00  0.00     0.158 C 
BRANCH  22  23
HETATM   23  C   UNK N   1      28.570  17.930   7.268  0.00  0.00     0.187 C 
BRANCH  23  24
HETATM   24  O   UNK N   1      27.923  17.159   8.237  0.00  0.00    -0.394 OA
HETATM   25  C   UNK N   1      28.405  17.627   9.459  0.00  0.00     0.201 C 
ENDBRANCH  23  24
ENDBRANCH  22  23
ENDBRANCH  20  22
ENDBRANCH  17  20
ENDBRANCH  14  17
ENDBRANCH   9  11
BRANCH   1  26
HETATM   26  C   UNK N   1      35.988  13.234  13.552  0.00  0.00     0.079 A 
HETATM   27  N   UNK N   1      35.862  12.027  14.164  0.00  0.00    -0.330 N 
HETATM   28  C   UNK N   1      36.167  12.253  15.455  0.00  0.00     0.080 A 
HETATM   29  N   UNK N   1      36.482  13.542  15.689  0.00  0.00    -0.354 N 
HETATM   30  C   UNK N   1      36.160  11.207  16.518  0.00  0.00     0.089 C 
HETATM   31  C   UNK N   1      36.371  14.168  14.498  0.00  0.00     0.121 A 
ATOM     32  HN  UNK N   1      36.748  13.959  16.581  1.00  0.00     0.166 HD
BRANCH  27  33
HETATM   33  C   UNK N   1      35.476  10.709  13.643  0.00  0.00     0.083 C 
HETATM   34  C   UNK N   1      36.334  10.277  12.466  0.00  0.00     0.032 C 
HETATM   35  C   UNK N   1      33.991  10.633  13.328  0.00  0.00     0.032 C 
ENDBRANCH  27  33
ENDBRANCH   1  26
TORSDOF 8
ENDMDL
MODEL 8
REMARK VINA RESULT:      -6.5      4.246     10.657
REMARK  8 active torsions:
REMARK  status: ('A' for Active; 'I' for Inactive)
REMARK    1  A    between atoms: C_1  and  C_22 
REMARK       I    between atoms: C_4  and  N_9 
REMARK    2  A    between atoms: N_9  and  C_10 
REMARK    3  A    between atoms: C_13  and  S_16 
REMARK    4  A    between atoms: S_16  and  N_17 
REMARK    5  A    between atoms: N_17  and  C_18 
REMARK    6  A    between atoms: C_18  and  C_19 
REMARK    7  A    between atoms: C_19  and  O_20 
REMARK    8  A    between atoms: N_23  and  C_28 
ROOT
HETATM    1  C   UNK N   1      35.598  13.889  11.597  0.00  0.00     0.078 A 
HETATM    2  N   UNK N   1      34.290  13.902  11.188  0.00  0.00    -0.189 N 
ATOM      3  HN  UNK N   1      33.554  13.633  11.839  1.00  0.00     0.184 HD
HETATM    4  C   UNK N   1      33.967  14.273   9.917  0.00  0.00     0.683 A 
HETATM    5  N   UNK N   1      34.955  14.628   9.046  0.00  0.00    -0.202 N 
ATOM      6  HN  UNK N   1      34.706  14.907   8.096  1.00  0.00     0.183 HD
HETATM    7  C   UNK N   1      36.255  14.618   9.408  0.00  0.00     0.108 A 
HETATM    8  C   UNK N   1      36.598  14.249  10.695  0.00  0.00     0.050 A 
HETATM    9  N   UNK N   1      32.613  14.317   9.481  0.00  0.00    -0.192 N 
HETATM   10  H   UNK N   1      31.902  13.835   9.962  0.00  0.00     0.184 HD
ENDROOT
BRANCH   9  11
HETATM   11  C   UNK N   1      32.335  15.086   8.325  0.00  0.00     0.049 A 
HETATM   12  C   UNK N   1      31.804  16.379   8.442  0.00  0.00     0.031 A 
HETATM   13  C   UNK N   1      31.189  16.983   7.333  0.00  0.00     0.027 A 
HETATM   14  C   UNK N   1      31.116  16.289   6.115  0.00  0.00     0.079 A 
HETATM   15  C   UNK N   1      31.685  15.026   5.997  0.00  0.00     0.027 A 
HETATM   16  C   UNK N   1      32.284  14.425   7.092  0.00  0.00     0.031 A 
BRANCH  14  17
HETATM   17  S   UNK N   1      30.066  16.834   4.781  0.00  0.00     0.258 S 
HETATM   18  O   UNK N   1      30.719  16.647   3.402  0.00  0.00    -0.201 OA
HETATM   19  O   UNK N   1      28.900  15.839   4.696  0.00  0.00    -0.201 OA
BRANCH  17  20
HETATM   20  N   UNK N   1      29.278  18.422   4.771  0.00  0.00    -0.313 N 
HETATM   21  H   UNK N   1      29.538  19.213   4.182  0.00  0.00     0.172 HD
BRANCH  20  22
HETATM   22  C   UNK N   1      28.192  18.406   5.749  0.00  0.00     0.158 C 
BRANCH  22  23
HETATM   23  C   UNK N   1      27.075  19.360   5.339  0.00  0.00     0.187 C 
BRANCH  23  24
HETATM   24  O   UNK N   1      27.585  20.634   5.075  0.00  0.00    -0.394 OA
HETATM   25  C   UNK N   1      27.212  21.410   6.172  0.00  0.00     0.201 C 
ENDBRANCH  23  24
ENDBRANCH  22  23
ENDBRANCH  20  22
ENDBRANCH  17  20
ENDBRANCH  14  17
ENDBRANCH   9  11
BRANCH   1  26
HETATM   26  C   UNK N   1      35.940  13.514  12.990  0.00  0.00     0.079 A 
HETATM   27  N   UNK N   1      35.969  12.269  13.533  0.00  0.00    -0.330 N 
HETATM   28  C   UNK N   1      36.338  12.452  14.814  0.00  0.00     0.080 A 
HETATM   29  N   UNK N   1      36.545  13.751  15.107  0.00  0.00    -0.354 N 
HETATM   30  C   UNK N   1      36.501  11.353  15.809  0.00  0.00     0.089 C 
HETATM   31  C   UNK N   1      36.296  14.427  13.966  0.00  0.00     0.121 A 
ATOM     32  HN  UNK N   1      36.831  14.142  16.005  1.00  0.00     0.166 HD
BRANCH  27  33
HETATM   33  C   UNK N   1      35.674  10.950  12.957  0.00  0.00     0.083 C 
HETATM   34  C   UNK N   1      36.420  10.707  11.656  0.00  0.00     0.032 C 
HETATM   35  C   UNK N   1      34.180  10.712  12.814  0.00  0.00     0.032 C 
ENDBRANCH  27  33
ENDBRANCH   1  26
TORSDOF 8
ENDMDL
MODEL 9
REMARK VINA RESULT:      -6.4      4.402     11.343
REMARK  8 active torsions:
REMARK  status: ('A' for Active; 'I' for Inactive)
REMARK    1  A    between atoms: C_1  and  C_22 
REMARK       I    between atoms: C_4  and  N_9 
REMARK    2  A    between atoms: N_9  and  C_10 
REMARK    3  A    between atoms: C_13  and  S_16 
REMARK    4  A    between atoms: S_16  and  N_17 
REMARK    5  A    between atoms: N_17  and  C_18 
REMARK    6  A    between atoms: C_18  and  C_19 
REMARK    7  A    between atoms: C_19  and  O_20 
REMARK    8  A    between atoms: N_23  and  C_28 
ROOT
HETATM    1  C   UNK N   1      35.923  12.762  15.195  0.00  0.00     0.078 A 
HETATM    2  N   UNK N   1      34.978  13.198  14.305  0.00  0.00    -0.189 N 
ATOM      3  HN  UNK N   1      34.078  13.533  14.647  1.00  0.00     0.184 HD
HETATM    4  C   UNK N   1      35.232  13.189  12.966  0.00  0.00     0.683 A 
HETATM    5  N   UNK N   1      36.436  12.736  12.511  0.00  0.00    -0.202 N 
ATOM      6  HN  UNK N   1      36.620  12.735  11.507  1.00  0.00     0.183 HD
HETATM    7  C   UNK N   1      37.388  12.289  13.355  0.00  0.00     0.108 A 
HETATM    8  C   UNK N   1      37.147  12.297  14.716  0.00  0.00     0.050 A 
HETATM    9  N   UNK N   1      34.272  13.662  12.028  0.00  0.00    -0.192 N 
HETATM   10  H   UNK N   1      33.320  13.749  12.264  0.00  0.00     0.184 HD
ENDROOT
BRANCH   9  11
HETATM   11  C   UNK N   1      34.748  14.002  10.738  0.00  0.00     0.049 A 
HETATM   12  C   UNK N   1      35.220  15.297  10.474  0.00  0.00     0.031 A 
HETATM   13  C   UNK N   1      35.334  15.739   9.145  0.00  0.00     0.027 A 
HETATM   14  C   UNK N   1      34.979  14.880   8.093  0.00  0.00     0.079 A 
HETATM   15  C   UNK N   1      34.555  13.584   8.365  0.00  0.00     0.027 A 
HETATM   16  C   UNK N   1      34.433  13.149   9.674  0.00  0.00     0.031 A 
BRANCH  14  17
HETATM   17  S   UNK N   1      34.768  15.470   6.424  0.00  0.00     0.258 S 
HETATM   18  O   UNK N   1      34.678  17.003   6.347  0.00  0.00    -0.201 OA
HETATM   19  O   UNK N   1      36.091  15.212   5.690  0.00  0.00    -0.201 OA
BRANCH  17  20
HETATM   20  N   UNK N   1      33.534  14.822   5.329  0.00  0.00    -0.313 N 
HETATM   21  H   UNK N   1      33.631  13.988   4.749  0.00  0.00     0.172 HD
BRANCH  20  22
HETATM   22  C   UNK N   1      32.356  15.682   5.398  0.00  0.00     0.158 C 
BRANCH  22  23
HETATM   23  C   UNK N   1      32.095  16.359   4.057  0.00  0.00     0.187 C 
BRANCH  23  24
HETATM   24  O   UNK N   1      31.590  17.649   4.244  0.00  0.00    -0.394 OA
HETATM   25  C   UNK N   1      30.373  17.472   4.901  0.00  0.00     0.201 C 
ENDBRANCH  23  24
ENDBRANCH  22  23
ENDBRANCH  20  22
ENDBRANCH  17  20
ENDBRANCH  14  17
ENDBRANCH   9  11
BRANCH   1  26
HETATM   26  C   UNK N   1      35.652  12.803  16.652  0.00  0.00     0.079 A 
HETATM   27  N   UNK N   1      35.437  11.753  17.487  0.00  0.00    -0.330 N 
HETATM   28  C   UNK N   1      35.243  12.303  18.700  0.00  0.00     0.080 A 
HETATM   29  N   UNK N   1      35.327  13.647  18.674  0.00  0.00    -0.354 N 
HETATM   30  C   UNK N   1      34.964  11.525  19.942  0.00  0.00     0.089 C 
HETATM   31  C   UNK N   1      35.583  13.971  17.388  0.00  0.00     0.121 A 
ATOM     32  HN  UNK N   1      35.220  14.287  19.460  1.00  0.00     0.166 HD
BRANCH  27  33
HETATM   33  C   UNK N   1      35.389  10.306  17.238  0.00  0.00     0.083 C 
HETATM   34  C   UNK N   1      36.774   9.687  17.158  0.00  0.00     0.032 C 
HETATM   35  C   UNK N   1      34.538   9.964  16.027  0.00  0.00     0.032 C 
ENDBRANCH  27  33
ENDBRANCH   1  26
TORSDOF 8
ENDMDL
