MODEL 1
REMARK VINA RESULT:      -7.8      0.000      0.000
REMARK  5 active torsions:
REMARK  status: ('A' for Active; 'I' for Inactive)
REMARK    1  A    between atoms: N_2  and  C_3 
REMARK    2  A    between atoms: C_8  and  C_9 
REMARK    3  A    between atoms: N_25  and  C_12 
REMARK       I    between atoms: C_13  and  N_25 
REMARK    4  A    between atoms: C_19  and  S_21 
REMARK    5  A    between atoms: S_21  and  N_23 
ROOT
HETATM    1  C   UNK N   1      29.033  15.802   5.541  0.00  0.00     0.050 A 
HETATM    2  C   UNK N   1      29.329  16.929   6.304  0.00  0.00     0.078 A 
HETATM    3  C   UNK N   1      27.805  15.721   4.898  0.00  0.00     0.108 A 
HETATM    4  C   UNK N   1      27.220  17.851   5.744  0.00  0.00     0.683 A 
HETATM    5  N   UNK N   1      28.398  17.919   6.408  0.00  0.00    -0.189 N 
ATOM      6  HN  UNK N   1      28.592  18.728   6.997  1.00  0.00     0.184 HD
HETATM    7  N   UNK N   1      26.306  18.936   5.807  0.00  0.00    -0.192 N 
HETATM    8  N   UNK N   1      26.928  16.747   5.000  0.00  0.00    -0.202 N 
ATOM      9  HN  UNK N   1      26.033  16.693   4.513  1.00  0.00     0.183 HD
HETATM   10  H   UNK N   1      26.406  19.627   6.502  0.00  0.00     0.184 HD
ENDROOT
BRANCH   7  11
HETATM   11  C   UNK N   1      25.251  19.021   4.871  0.00  0.00     0.049 A 
HETATM   12  C   UNK N   1      25.258  20.041   3.919  0.00  0.00     0.031 A 
HETATM   13  C   UNK N   1      24.096  20.310   3.193  0.00  0.00     0.027 A 
HETATM   14  C   UNK N   1      22.939  19.549   3.411  0.00  0.00     0.079 A 
HETATM   15  C   UNK N   1      22.963  18.469   4.294  0.00  0.00     0.027 A 
HETATM   16  C   UNK N   1      24.115  18.209   5.023  0.00  0.00     0.031 A 
BRANCH  14  17
HETATM   17  S   UNK N   1      21.378  20.116   2.763  0.00  0.00     0.258 S 
HETATM   18  O   UNK N   1      20.961  18.796   3.437  0.00  0.00    -0.201 OA
HETATM   19  O   UNK N   1      20.388  20.764   3.743  0.00  0.00    -0.201 OA
BRANCH  17  20
HETATM   20  N   UNK N   1      20.527  19.409   1.376  0.00  0.00    -0.320 N 
HETATM   21  C   UNK N   1      20.171  18.034   1.694  0.00  0.00     0.159 C 
HETATM   22  H   UNK N   1      20.322  19.886   0.499  0.00  0.00     0.171 HD
ENDBRANCH  17  20
ENDBRANCH  14  17
ENDBRANCH   7  11
BRANCH   2  23
HETATM   23  C   UNK N   1      30.624  17.135   6.993  0.00  0.00     0.079 A 
HETATM   24  N   UNK N   1      31.881  17.370   6.502  0.00  0.00    -0.329 N 
HETATM   25  C   UNK N   1      32.640  17.549   7.607  0.00  0.00     0.080 A 
HETATM   26  N   UNK N   1      31.940  17.436   8.748  0.00  0.00    -0.354 N 
HETATM   27  C   UNK N   1      34.092  17.886   7.588  0.00  0.00     0.089 C 
HETATM   28  C   UNK N   1      30.675  17.185   8.373  0.00  0.00     0.121 A 
ATOM     29  HN  UNK N   1      32.295  17.521   9.700  1.00  0.00     0.166 HD
BRANCH  24  30
HETATM   30  C   UNK N   1      32.492  17.522   5.165  0.00  0.00     0.091 A 
HETATM   31  C   UNK N   1      31.648  17.191   3.959  0.00  0.00     0.028 A 
HETATM   32  C   UNK N   1      32.634  16.172   4.495  0.00  0.00     0.028 A 
ENDBRANCH  24  30
ENDBRANCH   2  23
TORSDOF 5
ENDMDL
MODEL 2
REMARK VINA RESULT:      -7.5      6.535     10.710
REMARK  5 active torsions:
REMARK  status: ('A' for Active; 'I' for Inactive)
REMARK    1  A    between atoms: N_2  and  C_3 
REMARK    2  A    between atoms: C_8  and  C_9 
REMARK    3  A    between atoms: N_25  and  C_12 
REMARK       I    between atoms: C_13  and  N_25 
REMARK    4  A    between atoms: C_19  and  S_21 
REMARK    5  A    between atoms: S_21  and  N_23 
ROOT
HETATM    1  C   UNK N   1      28.057  18.419   8.723  0.00  0.00     0.050 A 
HETATM    2  C   UNK N   1      28.502  18.477   7.405  0.00  0.00     0.078 A 
HETATM    3  C   UNK N   1      28.823  17.754   9.671  0.00  0.00     0.108 A 
HETATM    4  C   UNK N   1      30.439  17.260   8.017  0.00  0.00     0.683 A 
HETATM    5  N   UNK N   1      29.677  17.869   7.079  0.00  0.00    -0.189 N 
ATOM      6  HN  UNK N   1      29.990  17.873   6.108  1.00  0.00     0.184 HD
HETATM    7  N   UNK N   1      31.698  16.706   7.658  0.00  0.00    -0.192 N 
HETATM    8  N   UNK N   1      30.002  17.199   9.306  0.00  0.00    -0.202 N 
ATOM      9  HN  UNK N   1      30.572  16.726  10.007  1.00  0.00     0.183 HD
HETATM   10  H   UNK N   1      31.919  16.552   6.711  0.00  0.00     0.184 HD
ENDROOT
BRANCH   7  11
HETATM   11  C   UNK N   1      32.632  16.376   8.667  0.00  0.00     0.049 A 
HETATM   12  C   UNK N   1      33.714  17.224   8.905  0.00  0.00     0.031 A 
HETATM   13  C   UNK N   1      34.785  16.771   9.677  0.00  0.00     0.027 A 
HETATM   14  C   UNK N   1      34.763  15.479  10.219  0.00  0.00     0.079 A 
HETATM   15  C   UNK N   1      33.638  14.668  10.059  0.00  0.00     0.027 A 
HETATM   16  C   UNK N   1      32.579  15.116   9.283  0.00  0.00     0.031 A 
BRANCH  14  17
HETATM   17  S   UNK N   1      36.260  14.778  10.886  0.00  0.00     0.258 S 
HETATM   18  O   UNK N   1      36.617  16.275  10.860  0.00  0.00    -0.201 OA
HETATM   19  O   UNK N   1      36.492  14.894  12.401  0.00  0.00    -0.201 OA
BRANCH  17  20
HETATM   20  N   UNK N   1      37.799  14.632  10.016  0.00  0.00    -0.320 N 
HETATM   21  C   UNK N   1      38.370  13.321  10.288  0.00  0.00     0.159 C 
HETATM   22  H   UNK N   1      38.216  15.349   9.423  0.00  0.00     0.171 HD
ENDBRANCH  17  20
ENDBRANCH  14  17
ENDBRANCH   7  11
BRANCH   2  23
HETATM   23  C   UNK N   1      27.784  19.197   6.328  0.00  0.00     0.079 A 
HETATM   24  N   UNK N   1      27.039  18.737   5.275  0.00  0.00    -0.329 N 
HETATM   25  C   UNK N   1      26.575  19.860   4.682  0.00  0.00     0.080 A 
HETATM   26  N   UNK N   1      26.987  20.984   5.292  0.00  0.00    -0.354 N 
HETATM   27  C   UNK N   1      25.662  19.877   3.503  0.00  0.00     0.089 C 
HETATM   28  C   UNK N   1      27.737  20.578   6.329  0.00  0.00     0.121 A 
ATOM     29  HN  UNK N   1      26.774  21.945   5.024  1.00  0.00     0.166 HD
BRANCH  24  30
HETATM   30  C   UNK N   1      26.625  17.415   4.758  0.00  0.00     0.091 A 
HETATM   31  C   UNK N   1      27.259  16.188   5.365  0.00  0.00     0.028 A 
HETATM   32  C   UNK N   1      27.784  16.740   4.055  0.00  0.00     0.028 A 
ENDBRANCH  24  30
ENDBRANCH   2  23
TORSDOF 5
ENDMDL
MODEL 3
REMARK VINA RESULT:      -7.4      6.838     10.057
REMARK  5 active torsions:
REMARK  status: ('A' for Active; 'I' for Inactive)
REMARK    1  A    between atoms: N_2  and  C_3 
REMARK    2  A    between atoms: C_8  and  C_9 
REMARK    3  A    between atoms: N_25  and  C_12 
REMARK       I    between atoms: C_13  and  N_25 
REMARK    4  A    between atoms: C_19  and  S_21 
REMARK    5  A    between atoms: S_21  and  N_23 
ROOT
HETATM    1  C   UNK N   1      36.359  13.185  11.263  0.00  0.00     0.050 A 
HETATM    2  C   UNK N   1      35.416  13.616  12.193  0.00  0.00     0.078 A 
HETATM    3  C   UNK N   1      36.102  13.348   9.909  0.00  0.00     0.108 A 
HETATM    4  C   UNK N   1      34.034  14.374  10.425  0.00  0.00     0.683 A 
HETATM    5  N   UNK N   1      34.258  14.179  11.745  0.00  0.00    -0.189 N 
ATOM      6  HN  UNK N   1      33.546  14.461  12.419  1.00  0.00     0.184 HD
HETATM    7  N   UNK N   1      32.853  15.038   9.996  0.00  0.00    -0.192 N 
HETATM    8  N   UNK N   1      34.954  13.948   9.515  0.00  0.00    -0.202 N 
ATOM      9  HN  UNK N   1      34.775  14.083   8.519  1.00  0.00     0.183 HD
HETATM   10  H   UNK N   1      32.096  15.149  10.615  0.00  0.00     0.184 HD
ENDROOT
BRANCH   7  11
HETATM   11  C   UNK N   1      32.769  15.538   8.676  0.00  0.00     0.049 A 
HETATM   12  C   UNK N   1      33.035  16.885   8.434  0.00  0.00     0.031 A 
HETATM   13  C   UNK N   1      32.674  17.447   7.208  0.00  0.00     0.027 A 
HETATM   14  C   UNK N   1      32.062  16.655   6.226  0.00  0.00     0.079 A 
HETATM   15  C   UNK N   1      31.884  15.287   6.435  0.00  0.00     0.027 A 
HETATM   16  C   UNK N   1      32.235  14.732   7.657  0.00  0.00     0.031 A 
BRANCH  14  17
HETATM   17  S   UNK N   1      31.281  17.436   4.826  0.00  0.00     0.258 S 
HETATM   18  O   UNK N   1      30.792  15.984   4.671  0.00  0.00    -0.201 OA
HETATM   19  O   UNK N   1      29.786  17.776   4.938  0.00  0.00    -0.201 OA
BRANCH  17  20
HETATM   20  N   UNK N   1      31.757  17.214   3.132  0.00  0.00    -0.320 N 
HETATM   21  C   UNK N   1      33.011  16.478   3.089  0.00  0.00     0.159 C 
HETATM   22  H   UNK N   1      31.237  17.548   2.321  0.00  0.00     0.171 HD
ENDBRANCH  17  20
ENDBRANCH  14  17
ENDBRANCH   7  11
BRANCH   2  23
HETATM   23  C   UNK N   1      35.611  13.529  13.659  0.00  0.00     0.079 A 
HETATM   24  N   UNK N   1      35.041  12.711  14.599  0.00  0.00    -0.329 N 
HETATM   25  C   UNK N   1      35.667  13.045  15.750  0.00  0.00     0.080 A 
HETATM   26  N   UNK N   1      36.580  14.017  15.589  0.00  0.00    -0.354 N 
HETATM   27  C   UNK N   1      35.423  12.386  17.066  0.00  0.00     0.089 C 
HETATM   28  C   UNK N   1      36.558  14.321  14.281  0.00  0.00     0.121 A 
ATOM     29  HN  UNK N   1      37.168  14.437  16.308  1.00  0.00     0.166 HD
BRANCH  24  30
HETATM   30  C   UNK N   1      34.050  11.615  14.599  0.00  0.00     0.091 A 
HETATM   31  C   UNK N   1      34.563  10.197  14.644  0.00  0.00     0.028 A 
HETATM   32  C   UNK N   1      34.154  10.812  13.320  0.00  0.00     0.028 A 
ENDBRANCH  24  30
ENDBRANCH   2  23
TORSDOF 5
ENDMDL
MODEL 4
REMARK VINA RESULT:      -7.3      1.429      2.489
REMARK  5 active torsions:
REMARK  status: ('A' for Active; 'I' for Inactive)
REMARK    1  A    between atoms: N_2  and  C_3 
REMARK    2  A    between atoms: C_8  and  C_9 
REMARK    3  A    between atoms: N_25  and  C_12 
REMARK       I    between atoms: C_13  and  N_25 
REMARK    4  A    between atoms: C_19  and  S_21 
REMARK    5  A    between atoms: S_21  and  N_23 
ROOT
HETATM    1  C   UNK N   1      28.937  18.077   7.510  0.00  0.00     0.050 A 
HETATM    2  C   UNK N   1      29.240  17.191   6.479  0.00  0.00     0.078 A 
HETATM    3  C   UNK N   1      27.901  18.986   7.343  0.00  0.00     0.108 A 
HETATM    4  C   UNK N   1      27.479  18.109   5.188  0.00  0.00     0.683 A 
HETATM    5  N   UNK N   1      28.515  17.249   5.326  0.00  0.00    -0.189 N 
ATOM      6  HN  UNK N   1      28.757  16.631   4.552  1.00  0.00     0.184 HD
HETATM    7  N   UNK N   1      26.692  18.088   4.005  0.00  0.00    -0.192 N 
HETATM    8  N   UNK N   1      27.185  18.979   6.195  0.00  0.00    -0.202 N 
ATOM      9  HN  UNK N   1      26.413  19.636   6.081  1.00  0.00     0.183 HD
HETATM   10  H   UNK N   1      27.023  17.629   3.199  0.00  0.00     0.184 HD
ENDROOT
BRANCH   7  11
HETATM   11  C   UNK N   1      25.433  18.730   3.988  0.00  0.00     0.049 A 
HETATM   12  C   UNK N   1      24.316  18.063   4.491  0.00  0.00     0.031 A 
HETATM   13  C   UNK N   1      23.040  18.556   4.214  0.00  0.00     0.027 A 
HETATM   14  C   UNK N   1      22.887  19.721   3.450  0.00  0.00     0.079 A 
HETATM   15  C   UNK N   1      24.008  20.438   3.029  0.00  0.00     0.027 A 
HETATM   16  C   UNK N   1      25.276  19.941   3.296  0.00  0.00     0.031 A 
BRANCH  14  17
HETATM   17  S   UNK N   1      21.283  20.143   2.797  0.00  0.00     0.258 S 
HETATM   18  O   UNK N   1      20.958  18.860   3.583  0.00  0.00    -0.201 OA
HETATM   19  O   UNK N   1      20.276  20.810   3.748  0.00  0.00    -0.201 OA
BRANCH  17  20
HETATM   20  N   UNK N   1      20.449  19.280   1.492  0.00  0.00    -0.320 N 
HETATM   21  C   UNK N   1      20.052  17.966   1.975  0.00  0.00     0.159 C 
HETATM   22  H   UNK N   1      20.276  19.644   0.555  0.00  0.00     0.171 HD
ENDBRANCH  17  20
ENDBRANCH  14  17
ENDBRANCH   7  11
BRANCH   2  23
HETATM   23  C   UNK N   1      30.294  16.155   6.571  0.00  0.00     0.079 A 
HETATM   24  N   UNK N   1      31.375  16.038   7.405  0.00  0.00    -0.329 N 
HETATM   25  C   UNK N   1      31.926  14.849   7.067  0.00  0.00     0.080 A 
HETATM   26  N   UNK N   1      31.264  14.226   6.078  0.00  0.00    -0.354 N 
HETATM   27  C   UNK N   1      33.114  14.248   7.738  0.00  0.00     0.089 C 
HETATM   28  C   UNK N   1      30.235  15.032   5.767  0.00  0.00     0.121 A 
ATOM     29  HN  UNK N   1      31.493  13.329   5.652  1.00  0.00     0.166 HD
BRANCH  24  30
HETATM   30  C   UNK N   1      31.953  16.819   8.518  0.00  0.00     0.091 A 
HETATM   31  C   UNK N   1      32.262  18.276   8.275  0.00  0.00     0.028 A 
HETATM   32  C   UNK N   1      33.367  17.243   8.184  0.00  0.00     0.028 A 
ENDBRANCH  24  30
ENDBRANCH   2  23
TORSDOF 5
ENDMDL
MODEL 5
REMARK VINA RESULT:      -7.3      6.046     10.267
REMARK  5 active torsions:
REMARK  status: ('A' for Active; 'I' for Inactive)
REMARK    1  A    between atoms: N_2  and  C_3 
REMARK    2  A    between atoms: C_8  and  C_9 
REMARK    3  A    between atoms: N_25  and  C_12 
REMARK       I    between atoms: C_13  and  N_25 
REMARK    4  A    between atoms: C_19  and  S_21 
REMARK    5  A    between atoms: S_21  and  N_23 
ROOT
HETATM    1  C   UNK N   1      27.840  17.578   7.230  0.00  0.00     0.050 A 
HETATM    2  C   UNK N   1      28.142  17.729   5.878  0.00  0.00     0.078 A 
HETATM    3  C   UNK N   1      28.828  17.138   8.101  0.00  0.00     0.108 A 
HETATM    4  C   UNK N   1      30.367  17.044   6.308  0.00  0.00     0.683 A 
HETATM    5  N   UNK N   1      29.399  17.431   5.446  0.00  0.00    -0.189 N 
ATOM      6  HN  UNK N   1      29.615  17.502   4.451  1.00  0.00     0.184 HD
HETATM    7  N   UNK N   1      31.689  16.819   5.836  0.00  0.00    -0.192 N 
HETATM    8  N   UNK N   1      30.073  16.891   7.629  0.00  0.00    -0.202 N 
ATOM      9  HN  UNK N   1      30.802  16.584   8.273  1.00  0.00     0.183 HD
HETATM   10  H   UNK N   1      31.858  16.714   4.872  0.00  0.00     0.184 HD
ENDROOT
BRANCH   7  11
HETATM   11  C   UNK N   1      32.759  16.746   6.756  0.00  0.00     0.049 A 
HETATM   12  C   UNK N   1      33.414  15.531   6.953  0.00  0.00     0.031 A 
HETATM   13  C   UNK N   1      34.259  15.376   8.053  0.00  0.00     0.027 A 
HETATM   14  C   UNK N   1      34.458  16.442   8.941  0.00  0.00     0.079 A 
HETATM   15  C   UNK N   1      33.877  17.686   8.689  0.00  0.00     0.027 A 
HETATM   16  C   UNK N   1      33.029  17.835   7.601  0.00  0.00     0.031 A 
BRANCH  14  17
HETATM   17  S   UNK N   1      35.232  16.141  10.519  0.00  0.00     0.258 S 
HETATM   18  O   UNK N   1      35.687  14.905   9.722  0.00  0.00    -0.201 OA
HETATM   19  O   UNK N   1      36.735  16.436  10.646  0.00  0.00    -0.201 OA
BRANCH  17  20
HETATM   20  N   UNK N   1      34.723  14.913  11.692  0.00  0.00    -0.320 N 
HETATM   21  C   UNK N   1      35.870  14.536  12.506  0.00  0.00     0.159 C 
HETATM   22  H   UNK N   1      33.782  14.532  11.782  0.00  0.00     0.171 HD
ENDBRANCH  17  20
ENDBRANCH  14  17
ENDBRANCH   7  11
BRANCH   2  23
HETATM   23  C   UNK N   1      27.175  18.233   4.875  0.00  0.00     0.079 A 
HETATM   24  N   UNK N   1      26.793  19.508   4.550  0.00  0.00    -0.329 N 
HETATM   25  C   UNK N   1      25.942  19.343   3.512  0.00  0.00     0.080 A 
HETATM   26  N   UNK N   1      25.768  18.055   3.176  0.00  0.00    -0.354 N 
HETATM   27  C   UNK N   1      25.291  20.460   2.769  0.00  0.00     0.089 C 
HETATM   28  C   UNK N   1      26.543  17.353   4.018  0.00  0.00     0.121 A 
ATOM     29  HN  UNK N   1      25.171  17.686   2.435  1.00  0.00     0.166 HD
BRANCH  24  30
HETATM   30  C   UNK N   1      27.136  20.873   5.002  0.00  0.00     0.091 A 
HETATM   31  C   UNK N   1      27.852  21.022   6.322  0.00  0.00     0.028 A 
HETATM   32  C   UNK N   1      26.353  21.226   6.249  0.00  0.00     0.028 A 
ENDBRANCH  24  30
ENDBRANCH   2  23
TORSDOF 5
ENDMDL
MODEL 6
REMARK VINA RESULT:      -7.3      6.309     10.660
REMARK  5 active torsions:
REMARK  status: ('A' for Active; 'I' for Inactive)
REMARK    1  A    between atoms: N_2  and  C_3 
REMARK    2  A    between atoms: C_8  and  C_9 
REMARK    3  A    between atoms: N_25  and  C_12 
REMARK       I    between atoms: C_13  and  N_25 
REMARK    4  A    between atoms: C_19  and  S_21 
REMARK    5  A    between atoms: S_21  and  N_23 
ROOT
HETATM    1  C   UNK N   1      29.823  17.166   4.346  0.00  0.00     0.050 A 
HETATM    2  C   UNK N   1      28.911  17.348   5.382  0.00  0.00     0.078 A 
HETATM    3  C   UNK N   1      31.167  16.995   4.646  0.00  0.00     0.108 A 
HETATM    4  C   UNK N   1      30.672  17.154   6.953  0.00  0.00     0.683 A 
HETATM    5  N   UNK N   1      29.366  17.364   6.666  0.00  0.00    -0.189 N 
ATOM      6  HN  UNK N   1      28.710  17.537   7.428  1.00  0.00     0.184 HD
HETATM    7  N   UNK N   1      31.101  17.095   8.307  0.00  0.00    -0.192 N 
HETATM    8  N   UNK N   1      31.566  16.980   5.940  0.00  0.00    -0.202 N 
ATOM      9  HN  UNK N   1      32.552  16.836   6.160  1.00  0.00     0.183 HD
HETATM   10  H   UNK N   1      30.518  17.432   9.025  0.00  0.00     0.184 HD
ENDROOT
BRANCH   7  11
HETATM   11  C   UNK N   1      32.368  16.552   8.619  0.00  0.00     0.049 A 
HETATM   12  C   UNK N   1      32.477  15.197   8.930  0.00  0.00     0.031 A 
HETATM   13  C   UNK N   1      33.649  14.720   9.518  0.00  0.00     0.027 A 
HETATM   14  C   UNK N   1      34.712  15.596   9.778  0.00  0.00     0.079 A 
HETATM   15  C   UNK N   1      34.637  16.931   9.379  0.00  0.00     0.027 A 
HETATM   16  C   UNK N   1      33.467  17.406   8.803  0.00  0.00     0.031 A 
BRANCH  14  17
HETATM   17  S   UNK N   1      36.043  15.075  10.843  0.00  0.00     0.258 S 
HETATM   18  O   UNK N   1      36.391  16.560  10.635  0.00  0.00    -0.201 OA
HETATM   19  O   UNK N   1      35.959  15.449  12.331  0.00  0.00    -0.201 OA
BRANCH  17  20
HETATM   20  N   UNK N   1      37.729  14.848  10.340  0.00  0.00    -0.320 N 
HETATM   21  C   UNK N   1      38.030  13.424  10.335  0.00  0.00     0.159 C 
HETATM   22  H   UNK N   1      38.381  15.592  10.094  0.00  0.00     0.171 HD
ENDBRANCH  17  20
ENDBRANCH  14  17
ENDBRANCH   7  11
BRANCH   2  23
HETATM   23  C   UNK N   1      27.451  17.496   5.174  0.00  0.00     0.079 A 
HETATM   24  N   UNK N   1      26.680  18.603   4.934  0.00  0.00    -0.329 N 
HETATM   25  C   UNK N   1      25.435  18.105   4.755  0.00  0.00     0.080 A 
HETATM   26  N   UNK N   1      25.382  16.769   4.873  0.00  0.00    -0.354 N 
HETATM   27  C   UNK N   1      24.239  18.928   4.413  0.00  0.00     0.089 C 
HETATM   28  C   UNK N   1      26.641  16.377   5.127  0.00  0.00     0.121 A 
ATOM     29  HN  UNK N   1      24.558  16.174   4.788  1.00  0.00     0.166 HD
BRANCH  24  30
HETATM   30  C   UNK N   1      26.916  20.053   4.776  0.00  0.00     0.091 A 
HETATM   31  C   UNK N   1      27.959  20.700   5.655  0.00  0.00     0.028 A 
HETATM   32  C   UNK N   1      26.493  20.793   6.027  0.00  0.00     0.028 A 
ENDBRANCH  24  30
ENDBRANCH   2  23
TORSDOF 5
ENDMDL
MODEL 7
REMARK VINA RESULT:      -7.0      9.517     13.171
REMARK  5 active torsions:
REMARK  status: ('A' for Active; 'I' for Inactive)
REMARK    1  A    between atoms: N_2  and  C_3 
REMARK    2  A    between atoms: C_8  and  C_9 
REMARK    3  A    between atoms: N_25  and  C_12 
REMARK       I    between atoms: C_13  and  N_25 
REMARK    4  A    between atoms: C_19  and  S_21 
REMARK    5  A    between atoms: S_21  and  N_23 
ROOT
HETATM    1  C   UNK N   1      37.700  11.248  13.762  0.00  0.00     0.050 A 
HETATM    2  C   UNK N   1      36.555  11.474  14.521  0.00  0.00     0.078 A 
HETATM    3  C   UNK N   1      37.796  11.807  12.495  0.00  0.00     0.108 A 
HETATM    4  C   UNK N   1      35.672  12.808  12.775  0.00  0.00     0.683 A 
HETATM    5  N   UNK N   1      35.552  12.231  13.993  0.00  0.00    -0.189 N 
ATOM      6  HN  UNK N   1      34.694  12.367  14.528  1.00  0.00     0.184 HD
HETATM    7  N   UNK N   1      34.643  13.658  12.288  0.00  0.00    -0.192 N 
HETATM    8  N   UNK N   1      36.790  12.584  12.030  0.00  0.00    -0.202 N 
ATOM      9  HN  UNK N   1      36.870  13.008  11.105  1.00  0.00     0.183 HD
HETATM   10  H   UNK N   1      33.754  13.650  12.711  0.00  0.00     0.184 HD
ENDROOT
BRANCH   7  11
HETATM   11  C   UNK N   1      34.900  14.515  11.194  0.00  0.00     0.049 A 
HETATM   12  C   UNK N   1      35.475  15.765  11.420  0.00  0.00     0.031 A 
HETATM   13  C   UNK N   1      35.461  16.722  10.404  0.00  0.00     0.027 A 
HETATM   14  C   UNK N   1      34.885  16.419   9.162  0.00  0.00     0.079 A 
HETATM   15  C   UNK N   1      34.396  15.138   8.907  0.00  0.00     0.027 A 
HETATM   16  C   UNK N   1      34.401  14.191   9.921  0.00  0.00     0.031 A 
BRANCH  14  17
HETATM   17  S   UNK N   1      34.543  17.733   8.007  0.00  0.00     0.258 S 
HETATM   18  O   UNK N   1      33.404  17.925   9.024  0.00  0.00    -0.201 OA
HETATM   19  O   UNK N   1      34.948  19.161   8.405  0.00  0.00    -0.201 OA
BRANCH  17  20
HETATM   20  N   UNK N   1      33.201  17.754   6.847  0.00  0.00    -0.320 N 
HETATM   21  C   UNK N   1      33.607  17.039   5.646  0.00  0.00     0.159 C 
HETATM   22  H   UNK N   1      32.294  18.195   6.997  0.00  0.00     0.171 HD
ENDBRANCH  17  20
ENDBRANCH  14  17
ENDBRANCH   7  11
BRANCH   2  23
HETATM   23  C   UNK N   1      36.370  10.961  15.899  0.00  0.00     0.079 A 
HETATM   24  N   UNK N   1      35.684  11.473  16.969  0.00  0.00    -0.329 N 
HETATM   25  C   UNK N   1      35.813  10.527  17.927  0.00  0.00     0.080 A 
HETATM   26  N   UNK N   1      36.536   9.469  17.526  0.00  0.00    -0.354 N 
HETATM   27  C   UNK N   1      35.188  10.604  19.279  0.00  0.00     0.089 C 
HETATM   28  C   UNK N   1      36.882   9.728  16.254  0.00  0.00     0.121 A 
ATOM     29  HN  UNK N   1      36.774   8.641  18.072  1.00  0.00     0.166 HD
BRANCH  24  30
HETATM   30  C   UNK N   1      34.866  12.674  17.236  0.00  0.00     0.091 A 
HETATM   31  C   UNK N   1      35.522  14.025  17.087  0.00  0.00     0.028 A 
HETATM   32  C   UNK N   1      35.380  13.399  18.460  0.00  0.00     0.028 A 
ENDBRANCH  24  30
ENDBRANCH   2  23
TORSDOF 5
ENDMDL
MODEL 8
REMARK VINA RESULT:      -7.0      1.887      2.399
REMARK  5 active torsions:
REMARK  status: ('A' for Active; 'I' for Inactive)
REMARK    1  A    between atoms: N_2  and  C_3 
REMARK    2  A    between atoms: C_8  and  C_9 
REMARK    3  A    between atoms: N_25  and  C_12 
REMARK       I    between atoms: C_13  and  N_25 
REMARK    4  A    between atoms: C_19  and  S_21 
REMARK    5  A    between atoms: S_21  and  N_23 
ROOT
HETATM    1  C   UNK N   1      28.046  18.581   4.888  0.00  0.00     0.050 A 
HETATM    2  C   UNK N   1      28.003  17.849   6.072  0.00  0.00     0.078 A 
HETATM    3  C   UNK N   1      26.959  18.542   4.025  0.00  0.00     0.108 A 
HETATM    4  C   UNK N   1      25.822  17.106   5.522  0.00  0.00     0.683 A 
HETATM    5  N   UNK N   1      26.895  17.104   6.347  0.00  0.00    -0.189 N 
ATOM      6  HN  UNK N   1      26.873  16.535   7.193  1.00  0.00     0.184 HD
HETATM    7  N   UNK N   1      24.652  16.384   5.878  0.00  0.00    -0.192 N 
HETATM    8  N   UNK N   1      25.865  17.819   4.361  0.00  0.00    -0.202 N 
ATOM      9  HN  UNK N   1      25.060  17.806   3.734  1.00  0.00     0.183 HD
HETATM   10  H   UNK N   1      24.688  15.703   6.588  0.00  0.00     0.184 HD
ENDROOT
BRANCH   7  11
HETATM   11  C   UNK N   1      23.435  16.646   5.209  0.00  0.00     0.049 A 
HETATM   12  C   UNK N   1      23.138  15.960   4.031  0.00  0.00     0.031 A 
HETATM   13  C   UNK N   1      22.099  16.414   3.216  0.00  0.00     0.027 A 
HETATM   14  C   UNK N   1      21.353  17.540   3.589  0.00  0.00     0.079 A 
HETATM   15  C   UNK N   1      21.591  18.167   4.814  0.00  0.00     0.027 A 
HETATM   16  C   UNK N   1      22.629  17.721   5.618  0.00  0.00     0.031 A 
BRANCH  14  17
HETATM   17  S   UNK N   1      20.287  18.326   2.396  0.00  0.00     0.258 S 
HETATM   18  O   UNK N   1      19.270  17.897   3.469  0.00  0.00    -0.201 OA
HETATM   19  O   UNK N   1      19.796  19.750   2.703  0.00  0.00    -0.201 OA
BRANCH  17  20
HETATM   20  N   UNK N   1      19.159  17.483   1.318  0.00  0.00    -0.320 N 
HETATM   21  C   UNK N   1      19.916  16.850   0.248  0.00  0.00     0.159 C 
HETATM   22  H   UNK N   1      18.146  17.449   1.429  0.00  0.00     0.171 HD
ENDBRANCH  17  20
ENDBRANCH  14  17
ENDBRANCH   7  11
BRANCH   2  23
HETATM   23  C   UNK N   1      29.089  17.855   7.079  0.00  0.00     0.079 A 
HETATM   24  N   UNK N   1      30.372  17.379   7.027  0.00  0.00    -0.329 N 
HETATM   25  C   UNK N   1      30.907  17.740   8.216  0.00  0.00     0.080 A 
HETATM   26  N   UNK N   1      30.042  18.402   9.001  0.00  0.00    -0.354 N 
HETATM   27  C   UNK N   1      32.321  17.486   8.618  0.00  0.00     0.089 C 
HETATM   28  C   UNK N   1      28.903  18.486   8.295  0.00  0.00     0.121 A 
ATOM     29  HN  UNK N   1      30.213  18.765   9.939  1.00  0.00     0.166 HD
BRANCH  24  30
HETATM   30  C   UNK N   1      31.216  16.695   6.026  0.00  0.00     0.091 A 
HETATM   31  C   UNK N   1      30.530  15.847   4.982  0.00  0.00     0.028 A 
HETATM   32  C   UNK N   1      31.136  15.194   6.208  0.00  0.00     0.028 A 
ENDBRANCH  24  30
ENDBRANCH   2  23
TORSDOF 5
ENDMDL
MODEL 9
REMARK VINA RESULT:      -6.9      5.668      8.501
REMARK  5 active torsions:
REMARK  status: ('A' for Active; 'I' for Inactive)
REMARK    1  A    between atoms: N_2  and  C_3 
REMARK    2  A    between atoms: C_8  and  C_9 
REMARK    3  A    between atoms: N_25  and  C_12 
REMARK       I    between atoms: C_13  and  N_25 
REMARK    4  A    between atoms: C_19  and  S_21 
REMARK    5  A    between atoms: S_21  and  N_23 
ROOT
HETATM    1  C   UNK N   1      35.900  15.986  11.267  0.00  0.00     0.050 A 
HETATM    2  C   UNK N   1      35.324  14.731  11.450  0.00  0.00     0.078 A 
HETATM    3  C   UNK N   1      35.318  16.878  10.376  0.00  0.00     0.108 A 
HETATM    4  C   UNK N   1      33.622  15.298   9.903  0.00  0.00     0.683 A 
HETATM    5  N   UNK N   1      34.208  14.408  10.738  0.00  0.00    -0.189 N 
ATOM      6  HN  UNK N   1      33.804  13.477  10.837  1.00  0.00     0.184 HD
HETATM    7  N   UNK N   1      32.413  14.958   9.238  0.00  0.00    -0.192 N 
HETATM    8  N   UNK N   1      34.187  16.524   9.721  0.00  0.00    -0.202 N 
ATOM      9  HN  UNK N   1      33.752  17.187   9.079  1.00  0.00     0.183 HD
HETATM   10  H   UNK N   1      32.122  14.019   9.191  0.00  0.00     0.184 HD
ENDROOT
BRANCH   7  11
HETATM   11  C   UNK N   1      31.630  15.974   8.644  0.00  0.00     0.049 A 
HETATM   12  C   UNK N   1      30.784  16.744   9.441  0.00  0.00     0.031 A 
HETATM   13  C   UNK N   1      29.803  17.534   8.839  0.00  0.00     0.027 A 
HETATM   14  C   UNK N   1      29.684  17.562   7.442  0.00  0.00     0.079 A 
HETATM   15  C   UNK N   1      30.593  16.865   6.644  0.00  0.00     0.027 A 
HETATM   16  C   UNK N   1      31.560  16.073   7.245  0.00  0.00     0.031 A 
BRANCH  14  17
HETATM   17  S   UNK N   1      28.227  18.269   6.697  0.00  0.00     0.258 S 
HETATM   18  O   UNK N   1      27.796  18.182   8.172  0.00  0.00    -0.201 OA
HETATM   19  O   UNK N   1      27.997  19.780   6.866  0.00  0.00    -0.201 OA
BRANCH  17  20
HETATM   20  N   UNK N   1      26.693  17.418   6.437  0.00  0.00    -0.320 N 
HETATM   21  C   UNK N   1      26.641  16.953   5.059  0.00  0.00     0.159 C 
HETATM   22  H   UNK N   1      25.966  17.278   7.138  0.00  0.00     0.171 HD
ENDBRANCH  17  20
ENDBRANCH  14  17
ENDBRANCH   7  11
BRANCH   2  23
HETATM   23  C   UNK N   1      35.839  13.725  12.407  0.00  0.00     0.079 A 
HETATM   24  N   UNK N   1      36.868  12.826  12.307  0.00  0.00    -0.329 N 
HETATM   25  C   UNK N   1      36.908  12.232  13.521  0.00  0.00     0.080 A 
HETATM   26  N   UNK N   1      35.971  12.697  14.363  0.00  0.00    -0.354 N 
HETATM   27  C   UNK N   1      37.908  11.202  13.924  0.00  0.00     0.089 C 
HETATM   28  C   UNK N   1      35.302  13.638  13.677  0.00  0.00     0.121 A 
ATOM     29  HN  UNK N   1      35.801  12.398  15.324  1.00  0.00     0.166 HD
BRANCH  24  30
HETATM   30  C   UNK N   1      37.875  12.467  11.286  0.00  0.00     0.091 A 
HETATM   31  C   UNK N   1      37.745  13.086   9.916  0.00  0.00     0.028 A 
HETATM   32  C   UNK N   1      37.228  11.684  10.163  0.00  0.00     0.028 A 
ENDBRANCH  24  30
ENDBRANCH   2  23
TORSDOF 5
ENDMDL
