MODEL 1
REMARK VINA RESULT:      -7.5      0.000      0.000
REMARK  7 active torsions:
REMARK  status: ('A' for Active; 'I' for Inactive)
REMARK    1  A    between atoms: C_2  and  C_7 
REMARK       I    between atoms: C_2  and  N_3 
REMARK    2  A    between atoms: N_3  and  C_4 
REMARK    3  A    between atoms: C_4  and  C_5 
REMARK    4  A    between atoms: C_5  and  O_6 
REMARK    5  A    between atoms: C_7  and  N_8 
REMARK    6  A    between atoms: C_18  and  N_19 
REMARK       I    between atoms: N_19  and  C_20 
REMARK    7  A    between atoms: C_20  and  C_22 
ROOT
HETATM    1  N   UNK N   1      21.149  18.231   3.678  0.00  0.00    -0.307 N 
HETATM    2  C   UNK N   1      21.638  17.645   4.814  0.00  0.00     0.248 C 
HETATM    3  O   UNK N   1      21.898  18.328   5.795  0.00  0.00    -0.271 OA
HETATM    4  C   UNK N   1      20.668  17.401   2.604  0.00  0.00     0.044 A 
HETATM    5  C   UNK N   1      20.347  17.943   1.350  0.00  0.00     0.030 A 
HETATM    6  C   UNK N   1      19.875  17.118   0.323  0.00  0.00     0.002 A 
HETATM    7  C   UNK N   1      19.720  15.746   0.537  0.00  0.00     0.001 A 
HETATM    8  C   UNK N   1      20.491  16.011   2.817  0.00  0.00    -0.029 A 
HETATM    9  C   UNK N   1      20.026  15.193   1.783  0.00  0.00     0.009 A 
HETATM   10  C   UNK N   1      20.783  15.415   4.165  0.00  0.00     0.075 C 
HETATM   11  C   UNK N   1      21.951  16.157   4.794  0.00  0.00     0.181 C 
ENDROOT
BRANCH  11  12
HETATM   12  N   UNK N   1      22.307  15.547   6.064  0.00  0.00    -0.342 N 
HETATM   13  C   UNK N   1      23.046  14.413   6.214  0.00  0.00     0.269 C 
HETATM   14  O   UNK N   1      23.609  13.899   5.259  0.00  0.00    -0.266 OA
HETATM   15  H   UNK N   1      21.986  15.989   6.883  0.00  0.00     0.163 HD
BRANCH  13  16
HETATM   16  C   UNK N   1      23.101  13.752   7.527  0.00  0.00     0.102 A 
HETATM   17  C   UNK N   1      22.004  13.586   8.394  0.00  0.00     0.049 A 
HETATM   18  C   UNK N   1      22.562  13.046   9.528  0.00  0.00     0.002 A 
HETATM   19  C   UNK N   1      23.886  12.925   9.314  0.00  0.00     0.086 A 
HETATM   20  C   UNK N   1      22.118  12.640  10.813  0.00  0.00     0.045 A 
HETATM   21  N   UNK N   1      24.262  13.339   8.103  0.00  0.00    -0.345 N 
HETATM   22  S   UNK N   1      24.608  12.335  10.665  0.00  0.00    -0.059 SA
HETATM   23  H   UNK N   1      25.168  13.345   7.717  0.00  0.00     0.167 HD
HETATM   24  C   UNK N   1      23.214  12.197  11.593  0.00  0.00     0.077 A 
HETATM   25 Cl   UNK N   1      23.141  11.637  13.249  0.00  0.00    -0.076 Cl
ENDBRANCH  13  16
ENDBRANCH  11  12
BRANCH   1  26
HETATM   26  C   UNK N   1      21.272  19.672   3.529  0.00  0.00     0.235 C 
BRANCH  26  27
HETATM   27  C   UNK N   1      22.548  20.179   2.937  0.00  0.00     0.235 C 
HETATM   28  O   UNK N   1      22.542  20.757   1.861  0.00  0.00    -0.272 OA
HETATM   29  N   UNK N   1      23.714  19.851   3.550  0.00  0.00    -0.358 N 
HETATM   30  H   UNK N   1      23.663  19.460   4.453  0.00  0.00     0.162 HD
BRANCH  29  31
HETATM   31  C   UNK N   1      25.027  20.037   2.969  0.00  0.00     0.148 C 
BRANCH  31  32
HETATM   32  C   UNK N   1      26.112  19.294   3.722  0.00  0.00     0.183 C 
BRANCH  32  33
HETATM   33  O   UNK N   1      27.334  19.918   3.477  0.00  0.00    -0.399 OA
HETATM   34  H   UNK N   1      28.064  19.418   3.080  0.00  0.00     0.209 HD
ENDBRANCH  32  33
ENDBRANCH  31  32
ENDBRANCH  29  31
ENDBRANCH  26  27
ENDBRANCH   1  26
TORSDOF 7
ENDMDL
MODEL 2
REMARK VINA RESULT:      -7.5     13.509     18.382
REMARK  7 active torsions:
REMARK  status: ('A' for Active; 'I' for Inactive)
REMARK    1  A    between atoms: C_2  and  C_7 
REMARK       I    between atoms: C_2  and  N_3 
REMARK    2  A    between atoms: N_3  and  C_4 
REMARK    3  A    between atoms: C_4  and  C_5 
REMARK    4  A    between atoms: C_5  and  O_6 
REMARK    5  A    between atoms: C_7  and  N_8 
REMARK    6  A    between atoms: C_18  and  N_19 
REMARK       I    between atoms: N_19  and  C_20 
REMARK    7  A    between atoms: C_20  and  C_22 
ROOT
HETATM    1  N   UNK N   1      35.343  10.260  16.165  0.00  0.00    -0.307 N 
HETATM    2  C   UNK N   1      35.297  10.831  14.921  0.00  0.00     0.248 C 
HETATM    3  O   UNK N   1      35.137  10.133  13.930  0.00  0.00    -0.271 OA
HETATM    4  C   UNK N   1      35.338  11.104  17.331  0.00  0.00     0.044 A 
HETATM    5  C   UNK N   1      35.586  10.582  18.611  0.00  0.00     0.030 A 
HETATM    6  C   UNK N   1      35.570  11.420  19.731  0.00  0.00     0.002 A 
HETATM    7  C   UNK N   1      35.309  12.785  19.586  0.00  0.00     0.001 A 
HETATM    8  C   UNK N   1      35.058  12.486  17.197  0.00  0.00    -0.029 A 
HETATM    9  C   UNK N   1      35.051  13.318  18.321  0.00  0.00     0.009 A 
HETATM   10  C   UNK N   1      34.744  13.060  15.844  0.00  0.00     0.075 C 
HETATM   11  C   UNK N   1      35.557  12.324  14.791  0.00  0.00     0.181 C 
ENDROOT
BRANCH  11  12
HETATM   12  N   UNK N   1      35.333  12.914  13.482  0.00  0.00    -0.342 N 
HETATM   13  C   UNK N   1      35.788  14.132  13.079  0.00  0.00     0.269 C 
HETATM   14  O   UNK N   1      36.573  14.769  13.765  0.00  0.00    -0.266 OA
HETATM   15  H   UNK N   1      34.809  12.390  12.834  0.00  0.00     0.163 HD
BRANCH  13  16
HETATM   16  C   UNK N   1      35.264  14.728  11.840  0.00  0.00     0.102 A 
HETATM   17  C   UNK N   1      35.718  15.930  11.266  0.00  0.00     0.049 A 
HETATM   18  C   UNK N   1      34.854  16.139  10.217  0.00  0.00     0.002 A 
HETATM   19  C   UNK N   1      33.969  15.125  10.208  0.00  0.00     0.086 A 
HETATM   20  C   UNK N   1      34.653  17.125   9.218  0.00  0.00     0.045 A 
HETATM   21  N   UNK N   1      34.182  14.233  11.179  0.00  0.00    -0.345 N 
HETATM   22  S   UNK N   1      32.878  15.359   9.004  0.00  0.00    -0.059 SA
HETATM   23  H   UNK N   1      33.675  13.412  11.371  0.00  0.00     0.167 HD
HETATM   24  C   UNK N   1      33.525  16.799   8.427  0.00  0.00     0.077 A 
HETATM   25 Cl   UNK N   1      32.885  17.745   7.101  0.00  0.00    -0.076 Cl
ENDBRANCH  13  16
ENDBRANCH  11  12
BRANCH   1  26
HETATM   26  C   UNK N   1      35.550   8.824  16.265  0.00  0.00     0.235 C 
BRANCH  26  27
HETATM   27  C   UNK N   1      36.910   8.315  15.912  0.00  0.00     0.235 C 
HETATM   28  O   UNK N   1      37.835   8.431  16.702  0.00  0.00    -0.272 OA
HETATM   29  N   UNK N   1      37.118   7.864  14.650  0.00  0.00    -0.358 N 
HETATM   30  H   UNK N   1      36.328   7.713  14.080  0.00  0.00     0.162 HD
BRANCH  29  31
HETATM   31  C   UNK N   1      38.421   7.589  14.080  0.00  0.00     0.148 C 
BRANCH  31  32
HETATM   32  C   UNK N   1      38.702   8.406  12.836  0.00  0.00     0.183 C 
BRANCH  32  33
HETATM   33  O   UNK N   1      37.980   9.597  12.912  0.00  0.00    -0.399 OA
HETATM   34  H   UNK N   1      38.265  10.299  13.518  0.00  0.00     0.209 HD
ENDBRANCH  32  33
ENDBRANCH  31  32
ENDBRANCH  29  31
ENDBRANCH  26  27
ENDBRANCH   1  26
TORSDOF 7
ENDMDL
MODEL 3
REMARK VINA RESULT:      -7.3      7.087     10.236
REMARK  7 active torsions:
REMARK  status: ('A' for Active; 'I' for Inactive)
REMARK    1  A    between atoms: C_2  and  C_7 
REMARK       I    between atoms: C_2  and  N_3 
REMARK    2  A    between atoms: N_3  and  C_4 
REMARK    3  A    between atoms: C_4  and  C_5 
REMARK    4  A    between atoms: C_5  and  O_6 
REMARK    5  A    between atoms: C_7  and  N_8 
REMARK    6  A    between atoms: C_18  and  N_19 
REMARK       I    between atoms: N_19  and  C_20 
REMARK    7  A    between atoms: C_20  and  C_22 
ROOT
HETATM    1  N   UNK N   1      31.018  16.507   6.812  0.00  0.00    -0.307 N 
HETATM    2  C   UNK N   1      29.705  16.873   6.687  0.00  0.00     0.248 C 
HETATM    3  O   UNK N   1      29.057  17.186   7.676  0.00  0.00    -0.271 OA
HETATM    4  C   UNK N   1      31.819  16.330   5.628  0.00  0.00     0.044 A 
HETATM    5  C   UNK N   1      33.102  15.764   5.693  0.00  0.00     0.030 A 
HETATM    6  C   UNK N   1      33.865  15.607   4.531  0.00  0.00     0.002 A 
HETATM    7  C   UNK N   1      33.355  16.011   3.294  0.00  0.00     0.001 A 
HETATM    8  C   UNK N   1      31.318  16.752   4.372  0.00  0.00    -0.029 A 
HETATM    9  C   UNK N   1      32.084  16.585   3.215  0.00  0.00     0.009 A 
HETATM   10  C   UNK N   1      29.967  17.404   4.283  0.00  0.00     0.075 C 
HETATM   11  C   UNK N   1      29.046  16.780   5.319  0.00  0.00     0.181 C 
ENDROOT
BRANCH  11  12
HETATM   12  N   UNK N   1      27.708  17.335   5.200  0.00  0.00    -0.342 N 
HETATM   13  C   UNK N   1      26.549  16.645   5.386  0.00  0.00     0.269 C 
HETATM   14  O   UNK N   1      26.559  15.508   5.831  0.00  0.00    -0.266 OA
HETATM   15  H   UNK N   1      27.633  18.288   4.963  0.00  0.00     0.163 HD
BRANCH  13  16
HETATM   16  C   UNK N   1      25.273  17.246   4.968  0.00  0.00     0.102 A 
HETATM   17  C   UNK N   1      25.131  18.228   3.969  0.00  0.00     0.049 A 
HETATM   18  C   UNK N   1      23.800  18.565   4.028  0.00  0.00     0.002 A 
HETATM   19  C   UNK N   1      23.234  17.827   5.001  0.00  0.00     0.086 A 
HETATM   20  C   UNK N   1      22.929  19.476   3.378  0.00  0.00     0.045 A 
HETATM   21  N   UNK N   1      24.094  17.001   5.602  0.00  0.00    -0.345 N 
HETATM   22  S   UNK N   1      21.650  18.235   5.150  0.00  0.00    -0.059 SA
HETATM   23  H   UNK N   1      23.917  16.365   6.331  0.00  0.00     0.167 HD
HETATM   24  C   UNK N   1      21.629  19.393   3.932  0.00  0.00     0.077 A 
HETATM   25 Cl   UNK N   1      20.243  20.354   3.464  0.00  0.00    -0.076 Cl
ENDBRANCH  13  16
ENDBRANCH  11  12
BRANCH   1  26
HETATM   26  C   UNK N   1      31.521  16.159   8.131  0.00  0.00     0.235 C 
BRANCH  26  27
HETATM   27  C   UNK N   1      32.622  17.011   8.675  0.00  0.00     0.235 C 
HETATM   28  O   UNK N   1      32.714  18.184   8.346  0.00  0.00    -0.272 OA
HETATM   29  N   UNK N   1      33.589  16.413   9.417  0.00  0.00    -0.358 N 
HETATM   30  H   UNK N   1      33.428  15.491   9.723  0.00  0.00     0.162 HD
BRANCH  29  31
HETATM   31  C   UNK N   1      34.842  17.037   9.789  0.00  0.00     0.148 C 
BRANCH  31  32
HETATM   32  C   UNK N   1      35.465  16.411  11.020  0.00  0.00     0.183 C 
BRANCH  32  33
HETATM   33  O   UNK N   1      36.830  16.239  10.790  0.00  0.00    -0.399 OA
HETATM   34  H   UNK N   1      37.444  16.172  11.539  0.00  0.00     0.209 HD
ENDBRANCH  32  33
ENDBRANCH  31  32
ENDBRANCH  29  31
ENDBRANCH  26  27
ENDBRANCH   1  26
TORSDOF 7
ENDMDL
MODEL 4
REMARK VINA RESULT:      -7.2     10.264     12.577
REMARK  7 active torsions:
REMARK  status: ('A' for Active; 'I' for Inactive)
REMARK    1  A    between atoms: C_2  and  C_7 
REMARK       I    between atoms: C_2  and  N_3 
REMARK    2  A    between atoms: N_3  and  C_4 
REMARK    3  A    between atoms: C_4  and  C_5 
REMARK    4  A    between atoms: C_5  and  O_6 
REMARK    5  A    between atoms: C_7  and  N_8 
REMARK    6  A    between atoms: C_18  and  N_19 
REMARK       I    between atoms: N_19  and  C_20 
REMARK    7  A    between atoms: C_20  and  C_22 
ROOT
HETATM    1  N   UNK N   1      33.131  16.176   6.699  0.00  0.00    -0.307 N 
HETATM    2  C   UNK N   1      33.426  16.033   8.029  0.00  0.00     0.248 C 
HETATM    3  O   UNK N   1      32.817  16.683   8.866  0.00  0.00    -0.271 OA
HETATM    4  C   UNK N   1      33.716  15.270   5.744  0.00  0.00     0.044 A 
HETATM    5  C   UNK N   1      33.607  15.496   4.363  0.00  0.00     0.030 A 
HETATM    6  C   UNK N   1      34.177  14.600   3.453  0.00  0.00     0.002 A 
HETATM    7  C   UNK N   1      34.861  13.470   3.912  0.00  0.00     0.001 A 
HETATM    8  C   UNK N   1      34.396  14.114   6.198  0.00  0.00    -0.029 A 
HETATM    9  C   UNK N   1      34.969  13.226   5.283  0.00  0.00     0.009 A 
HETATM   10  C   UNK N   1      34.485  13.824   7.670  0.00  0.00     0.075 C 
HETATM   11  C   UNK N   1      34.589  15.138   8.429  0.00  0.00     0.181 C 
ENDROOT
BRANCH  11  12
HETATM   12  N   UNK N   1      34.758  14.884   9.850  0.00  0.00    -0.342 N 
HETATM   13  C   UNK N   1      35.943  14.625  10.468  0.00  0.00     0.269 C 
HETATM   14  O   UNK N   1      37.002  14.743   9.872  0.00  0.00    -0.266 OA
HETATM   15  H   UNK N   1      33.949  14.899  10.412  0.00  0.00     0.163 HD
BRANCH  13  16
HETATM   16  C   UNK N   1      35.944  14.116  11.848  0.00  0.00     0.102 A 
HETATM   17  C   UNK N   1      35.022  13.187  12.367  0.00  0.00     0.049 A 
HETATM   18  C   UNK N   1      35.338  13.124  13.704  0.00  0.00     0.002 A 
HETATM   19  C   UNK N   1      36.364  13.968  13.921  0.00  0.00     0.086 A 
HETATM   20  C   UNK N   1      34.853  12.454  14.856  0.00  0.00     0.045 A 
HETATM   21  N   UNK N   1      36.773  14.594  12.816  0.00  0.00    -0.345 N 
HETATM   22  S   UNK N   1      36.743  13.971  15.519  0.00  0.00    -0.059 SA
HETATM   23  H   UNK N   1      37.502  15.248  12.722  0.00  0.00     0.167 HD
HETATM   24  C   UNK N   1      35.585  12.852  16.000  0.00  0.00     0.077 A 
HETATM   25 Cl   UNK N   1      35.312  12.309  17.641  0.00  0.00    -0.076 Cl
ENDBRANCH  13  16
ENDBRANCH  11  12
BRANCH   1  26
HETATM   26  C   UNK N   1      32.359  17.333   6.277  0.00  0.00     0.235 C 
BRANCH  26  27
HETATM   27  C   UNK N   1      30.872  17.185   6.283  0.00  0.00     0.235 C 
HETATM   28  O   UNK N   1      30.249  17.171   5.232  0.00  0.00    -0.272 OA
HETATM   29  N   UNK N   1      30.229  17.219   7.478  0.00  0.00    -0.358 N 
HETATM   30  H   UNK N   1      30.775  17.147   8.295  0.00  0.00     0.162 HD
BRANCH  29  31
HETATM   31  C   UNK N   1      28.795  17.352   7.636  0.00  0.00     0.148 C 
BRANCH  31  32
HETATM   32  C   UNK N   1      28.405  18.582   8.430  0.00  0.00     0.183 C 
BRANCH  32  33
HETATM   33  O   UNK N   1      27.415  18.226   9.346  0.00  0.00    -0.399 OA
HETATM   34  H   UNK N   1      26.788  17.517   9.132  0.00  0.00     0.209 HD
ENDBRANCH  32  33
ENDBRANCH  31  32
ENDBRANCH  29  31
ENDBRANCH  26  27
ENDBRANCH   1  26
TORSDOF 7
ENDMDL
MODEL 5
REMARK VINA RESULT:      -7.2      4.368      5.865
REMARK  7 active torsions:
REMARK  status: ('A' for Active; 'I' for Inactive)
REMARK    1  A    between atoms: C_2  and  C_7 
REMARK       I    between atoms: C_2  and  N_3 
REMARK    2  A    between atoms: N_3  and  C_4 
REMARK    3  A    between atoms: C_4  and  C_5 
REMARK    4  A    between atoms: C_5  and  O_6 
REMARK    5  A    between atoms: C_7  and  N_8 
REMARK    6  A    between atoms: C_18  and  N_19 
REMARK       I    between atoms: N_19  and  C_20 
REMARK    7  A    between atoms: C_20  and  C_22 
ROOT
HETATM    1  N   UNK N   1      22.149  16.475   4.049  0.00  0.00    -0.307 N 
HETATM    2  C   UNK N   1      23.255  16.778   4.797  0.00  0.00     0.248 C 
HETATM    3  O   UNK N   1      23.136  17.387   5.851  0.00  0.00    -0.271 OA
HETATM    4  C   UNK N   1      22.280  15.596   2.916  0.00  0.00     0.044 A 
HETATM    5  C   UNK N   1      21.226  15.417   2.005  0.00  0.00     0.030 A 
HETATM    6  C   UNK N   1      21.374  14.553   0.915  0.00  0.00     0.002 A 
HETATM    7  C   UNK N   1      22.573  13.861   0.722  0.00  0.00     0.001 A 
HETATM    8  C   UNK N   1      23.485  14.878   2.720  0.00  0.00    -0.029 A 
HETATM    9  C   UNK N   1      23.627  14.022   1.624  0.00  0.00     0.009 A 
HETATM   10  C   UNK N   1      24.610  15.017   3.707  0.00  0.00     0.075 C 
HETATM   11  C   UNK N   1      24.630  16.440   4.240  0.00  0.00     0.181 C 
ENDROOT
BRANCH  11  12
HETATM   12  N   UNK N   1      25.760  16.625   5.136  0.00  0.00    -0.342 N 
HETATM   13  C   UNK N   1      26.505  17.760   5.240  0.00  0.00     0.269 C 
HETATM   14  O   UNK N   1      26.166  18.788   4.675  0.00  0.00    -0.266 OA
HETATM   15  H   UNK N   1      26.007  15.867   5.713  0.00  0.00     0.163 HD
BRANCH  13  16
HETATM   16  C   UNK N   1      27.779  17.724   5.974  0.00  0.00     0.102 A 
HETATM   17  C   UNK N   1      29.033  17.435   5.403  0.00  0.00     0.049 A 
HETATM   18  C   UNK N   1      29.882  17.390   6.483  0.00  0.00     0.002 A 
HETATM   19  C   UNK N   1      29.151  17.630   7.587  0.00  0.00     0.086 A 
HETATM   20  C   UNK N   1      31.258  17.131   6.713  0.00  0.00     0.045 A 
HETATM   21  N   UNK N   1      27.860  17.845   7.327  0.00  0.00    -0.345 N 
HETATM   22  S   UNK N   1      30.113  17.531   8.915  0.00  0.00    -0.059 SA
HETATM   23  H   UNK N   1      27.137  18.045   7.964  0.00  0.00     0.167 HD
HETATM   24  C   UNK N   1      31.541  17.181   8.099  0.00  0.00     0.077 A 
HETATM   25 Cl   UNK N   1      33.097  16.891   8.846  0.00  0.00    -0.076 Cl
ENDBRANCH  13  16
ENDBRANCH  11  12
BRANCH   1  26
HETATM   26  C   UNK N   1      20.904  17.173   4.331  0.00  0.00     0.235 C 
BRANCH  26  27
HETATM   27  C   UNK N   1      20.819  18.598   3.890  0.00  0.00     0.235 C 
HETATM   28  O   UNK N   1      20.880  19.502   4.710  0.00  0.00    -0.272 OA
HETATM   29  N   UNK N   1      20.526  18.851   2.589  0.00  0.00    -0.358 N 
HETATM   30  H   UNK N   1      20.570  18.099   1.954  0.00  0.00     0.162 HD
BRANCH  29  31
HETATM   31  C   UNK N   1      20.154  20.151   2.069  0.00  0.00     0.148 C 
BRANCH  31  32
HETATM   32  C   UNK N   1      21.143  20.680   1.050  0.00  0.00     0.183 C 
BRANCH  32  33
HETATM   33  O   UNK N   1      20.544  20.655  -0.208  0.00  0.00    -0.399 OA
HETATM   34  H   UNK N   1      20.041  19.875  -0.492  0.00  0.00     0.209 HD
ENDBRANCH  32  33
ENDBRANCH  31  32
ENDBRANCH  29  31
ENDBRANCH  26  27
ENDBRANCH   1  26
TORSDOF 7
ENDMDL
MODEL 6
REMARK VINA RESULT:      -7.2      8.908     11.171
REMARK  7 active torsions:
REMARK  status: ('A' for Active; 'I' for Inactive)
REMARK    1  A    between atoms: C_2  and  C_7 
REMARK       I    between atoms: C_2  and  N_3 
REMARK    2  A    between atoms: N_3  and  C_4 
REMARK    3  A    between atoms: C_4  and  C_5 
REMARK    4  A    between atoms: C_5  and  O_6 
REMARK    5  A    between atoms: C_7  and  N_8 
REMARK    6  A    between atoms: C_18  and  N_19 
REMARK       I    between atoms: N_19  and  C_20 
REMARK    7  A    between atoms: C_20  and  C_22 
ROOT
HETATM    1  N   UNK N   1      30.851  17.070   6.655  0.00  0.00    -0.307 N 
HETATM    2  C   UNK N   1      31.306  16.703   7.893  0.00  0.00     0.248 C 
HETATM    3  O   UNK N   1      30.556  16.735   8.858  0.00  0.00    -0.271 OA
HETATM    4  C   UNK N   1      31.682  16.845   5.500  0.00  0.00     0.044 A 
HETATM    5  C   UNK N   1      31.350  17.381   4.246  0.00  0.00     0.030 A 
HETATM    6  C   UNK N   1      32.168  17.144   3.136  0.00  0.00     0.002 A 
HETATM    7  C   UNK N   1      33.325  16.371   3.267  0.00  0.00     0.001 A 
HETATM    8  C   UNK N   1      32.847  16.048   5.618  0.00  0.00    -0.029 A 
HETATM    9  C   UNK N   1      33.663  15.822   4.506  0.00  0.00     0.009 A 
HETATM   10  C   UNK N   1      33.199  15.424   6.939  0.00  0.00     0.075 C 
HETATM   11  C   UNK N   1      32.779  16.362   8.059  0.00  0.00     0.181 C 
ENDROOT
BRANCH  11  12
HETATM   12  N   UNK N   1      33.182  15.818   9.346  0.00  0.00    -0.342 N 
HETATM   13  C   UNK N   1      34.416  15.950   9.905  0.00  0.00     0.269 C 
HETATM   14  O   UNK N   1      35.253  16.692   9.414  0.00  0.00    -0.266 OA
HETATM   15  H   UNK N   1      32.507  15.311   9.853  0.00  0.00     0.163 HD
BRANCH  13  16
HETATM   16  C   UNK N   1      34.775  15.126  11.069  0.00  0.00     0.102 A 
HETATM   17  C   UNK N   1      35.769  15.450  12.013  0.00  0.00     0.049 A 
HETATM   18  C   UNK N   1      35.830  14.337  12.818  0.00  0.00     0.002 A 
HETATM   19  C   UNK N   1      34.936  13.446  12.353  0.00  0.00     0.086 A 
HETATM   20  C   UNK N   1      36.589  13.905  13.937  0.00  0.00     0.045 A 
HETATM   21  N   UNK N   1      34.262  13.885  11.287  0.00  0.00    -0.345 N 
HETATM   22  S   UNK N   1      35.010  12.073  13.251  0.00  0.00    -0.059 SA
HETATM   23  H   UNK N   1      33.560  13.420  10.779  0.00  0.00     0.167 HD
HETATM   24  C   UNK N   1      36.214  12.590  14.304  0.00  0.00     0.077 A 
HETATM   25 Cl   UNK N   1      36.907  11.644  15.603  0.00  0.00    -0.076 Cl
ENDBRANCH  13  16
ENDBRANCH  11  12
BRANCH   1  26
HETATM   26  C   UNK N   1      29.606  17.816   6.563  0.00  0.00     0.235 C 
BRANCH  26  27
HETATM   27  C   UNK N   1      28.385  17.040   6.190  0.00  0.00     0.235 C 
HETATM   28  O   UNK N   1      28.420  15.819   6.142  0.00  0.00    -0.272 OA
HETATM   29  N   UNK N   1      27.293  17.727   5.767  0.00  0.00    -0.358 N 
HETATM   30  H   UNK N   1      27.284  18.702   5.902  0.00  0.00     0.162 HD
BRANCH  29  31
HETATM   31  C   UNK N   1      26.140  17.124   5.129  0.00  0.00     0.148 C 
BRANCH  31  32
HETATM   32  C   UNK N   1      25.172  18.151   4.579  0.00  0.00     0.183 C 
BRANCH  32  33
HETATM   33  O   UNK N   1      25.064  19.198   5.493  0.00  0.00    -0.399 OA
HETATM   34  H   UNK N   1      25.178  20.115   5.197  0.00  0.00     0.209 HD
ENDBRANCH  32  33
ENDBRANCH  31  32
ENDBRANCH  29  31
ENDBRANCH  26  27
ENDBRANCH   1  26
TORSDOF 7
ENDMDL
MODEL 7
REMARK VINA RESULT:      -7.1      6.534     10.501
REMARK  7 active torsions:
REMARK  status: ('A' for Active; 'I' for Inactive)
REMARK    1  A    between atoms: C_2  and  C_7 
REMARK       I    between atoms: C_2  and  N_3 
REMARK    2  A    between atoms: N_3  and  C_4 
REMARK    3  A    between atoms: C_4  and  C_5 
REMARK    4  A    between atoms: C_5  and  O_6 
REMARK    5  A    between atoms: C_7  and  N_8 
REMARK    6  A    between atoms: C_18  and  N_19 
REMARK       I    between atoms: N_19  and  C_20 
REMARK    7  A    between atoms: C_20  and  C_22 
ROOT
HETATM    1  N   UNK N   1      32.021  16.750   4.314  0.00  0.00    -0.307 N 
HETATM    2  C   UNK N   1      30.776  17.058   3.835  0.00  0.00     0.248 C 
HETATM    3  O   UNK N   1      30.456  16.734   2.701  0.00  0.00    -0.271 OA
HETATM    4  C   UNK N   1      32.317  16.963   5.707  0.00  0.00     0.044 A 
HETATM    5  C   UNK N   1      33.626  16.855   6.200  0.00  0.00     0.030 A 
HETATM    6  C   UNK N   1      33.890  17.060   7.559  0.00  0.00     0.002 A 
HETATM    7  C   UNK N   1      32.850  17.376   8.437  0.00  0.00     0.001 A 
HETATM    8  C   UNK N   1      31.267  17.267   6.609  0.00  0.00    -0.029 A 
HETATM    9  C   UNK N   1      31.540  17.478   7.964  0.00  0.00     0.009 A 
HETATM   10  C   UNK N   1      29.850  17.342   6.114  0.00  0.00     0.075 C 
HETATM   11  C   UNK N   1      29.847  17.899   4.699  0.00  0.00     0.181 C 
ENDROOT
BRANCH  11  12
HETATM   12  N   UNK N   1      28.482  18.058   4.225  0.00  0.00    -0.342 N 
HETATM   13  C   UNK N   1      27.758  19.209   4.286  0.00  0.00     0.269 C 
HETATM   14  O   UNK N   1      28.278  20.264   4.616  0.00  0.00    -0.266 OA
HETATM   15  H   UNK N   1      28.046  17.269   3.830  0.00  0.00     0.163 HD
BRANCH  13  16
HETATM   16  C   UNK N   1      26.310  19.167   4.032  0.00  0.00     0.102 A 
HETATM   17  C   UNK N   1      25.598  20.100   3.253  0.00  0.00     0.049 A 
HETATM   18  C   UNK N   1      24.285  19.728   3.415  0.00  0.00     0.002 A 
HETATM   19  C   UNK N   1      24.260  18.662   4.236  0.00  0.00     0.086 A 
HETATM   20  C   UNK N   1      23.014  20.188   2.984  0.00  0.00     0.045 A 
HETATM   21  N   UNK N   1      25.475  18.278   4.636  0.00  0.00    -0.345 N 
HETATM   22  S   UNK N   1      22.704  18.213   4.507  0.00  0.00    -0.059 SA
HETATM   23  H   UNK N   1      25.710  17.530   5.229  0.00  0.00     0.167 HD
HETATM   24  C   UNK N   1      21.988  19.391   3.546  0.00  0.00     0.077 A 
HETATM   25 Cl   UNK N   1      20.267  19.613   3.317  0.00  0.00    -0.076 Cl
ENDBRANCH  13  16
ENDBRANCH  11  12
BRANCH   1  26
HETATM   26  C   UNK N   1      33.054  16.360   3.368  0.00  0.00     0.235 C 
BRANCH  26  27
HETATM   27  C   UNK N   1      33.056  14.933   2.925  0.00  0.00     0.235 C 
HETATM   28  O   UNK N   1      33.813  14.562   2.041  0.00  0.00    -0.272 OA
HETATM   29  N   UNK N   1      32.100  14.107   3.422  0.00  0.00    -0.358 N 
HETATM   30  H   UNK N   1      31.569  14.427   4.188  0.00  0.00     0.162 HD
BRANCH  29  31
HETATM   31  C   UNK N   1      31.805  12.787   2.903  0.00  0.00     0.148 C 
BRANCH  31  32
HETATM   32  C   UNK N   1      30.480  12.726   2.172  0.00  0.00     0.183 C 
BRANCH  32  33
HETATM   33  O   UNK N   1      29.775  13.902   2.428  0.00  0.00    -0.399 OA
HETATM   34  H   UNK N   1      30.069  14.740   2.037  0.00  0.00     0.209 HD
ENDBRANCH  32  33
ENDBRANCH  31  32
ENDBRANCH  29  31
ENDBRANCH  26  27
ENDBRANCH   1  26
TORSDOF 7
ENDMDL
MODEL 8
REMARK VINA RESULT:      -7.1      6.310      8.485
REMARK  7 active torsions:
REMARK  status: ('A' for Active; 'I' for Inactive)
REMARK    1  A    between atoms: C_2  and  C_7 
REMARK       I    between atoms: C_2  and  N_3 
REMARK    2  A    between atoms: N_3  and  C_4 
REMARK    3  A    between atoms: C_4  and  C_5 
REMARK    4  A    between atoms: C_5  and  O_6 
REMARK    5  A    between atoms: C_7  and  N_8 
REMARK    6  A    between atoms: C_18  and  N_19 
REMARK       I    between atoms: N_19  and  C_20 
REMARK    7  A    between atoms: C_20  and  C_22 
ROOT
HETATM    1  N   UNK N   1      26.301  16.536   4.817  0.00  0.00    -0.307 N 
HETATM    2  C   UNK N   1      27.389  16.107   5.528  0.00  0.00     0.248 C 
HETATM    3  O   UNK N   1      27.513  14.924   5.808  0.00  0.00    -0.271 OA
HETATM    4  C   UNK N   1      26.263  17.891   4.328  0.00  0.00     0.044 A 
HETATM    5  C   UNK N   1      25.094  18.434   3.774  0.00  0.00     0.030 A 
HETATM    6  C   UNK N   1      25.082  19.751   3.300  0.00  0.00     0.002 A 
HETATM    7  C   UNK N   1      26.236  20.537   3.376  0.00  0.00     0.001 A 
HETATM    8  C   UNK N   1      27.432  18.690   4.385  0.00  0.00    -0.029 A 
HETATM    9  C   UNK N   1      27.410  20.007   3.916  0.00  0.00     0.009 A 
HETATM   10  C   UNK N   1      28.709  18.116   4.931  0.00  0.00     0.075 C 
HETATM   11  C   UNK N   1      28.376  17.141   6.050  0.00  0.00     0.181 C 
ENDROOT
BRANCH  11  12
HETATM   12  N   UNK N   1      29.598  16.631   6.650  0.00  0.00    -0.342 N 
HETATM   13  C   UNK N   1      30.232  17.174   7.726  0.00  0.00     0.269 C 
HETATM   14  O   UNK N   1      29.713  18.069   8.376  0.00  0.00    -0.266 OA
HETATM   15  H   UNK N   1      30.001  15.830   6.245  0.00  0.00     0.163 HD
BRANCH  13  16
HETATM   16  C   UNK N   1      31.594  16.734   8.062  0.00  0.00     0.102 A 
HETATM   17  C   UNK N   1      32.143  15.480   7.731  0.00  0.00     0.049 A 
HETATM   18  C   UNK N   1      33.367  15.483   8.358  0.00  0.00     0.002 A 
HETATM   19  C   UNK N   1      33.492  16.657   9.005  0.00  0.00     0.086 A 
HETATM   20  C   UNK N   1      34.456  14.587   8.516  0.00  0.00     0.045 A 
HETATM   21  N   UNK N   1      32.436  17.458   8.849  0.00  0.00    -0.345 N 
HETATM   22  S   UNK N   1      34.918  16.685   9.820  0.00  0.00    -0.059 SA
HETATM   23  H   UNK N   1      32.298  18.360   9.218  0.00  0.00     0.167 HD
HETATM   24  C   UNK N   1      35.445  15.160   9.350  0.00  0.00     0.077 A 
HETATM   25 Cl   UNK N   1      36.944  14.403   9.844  0.00  0.00    -0.076 Cl
ENDBRANCH  13  16
ENDBRANCH  11  12
BRANCH   1  26
HETATM   26  C   UNK N   1      25.149  15.656   4.708  0.00  0.00     0.235 C 
BRANCH  26  27
HETATM   27  C   UNK N   1      24.230  15.604   5.886  0.00  0.00     0.235 C 
HETATM   28  O   UNK N   1      24.319  14.695   6.697  0.00  0.00    -0.272 OA
HETATM   29  N   UNK N   1      23.212  16.500   5.945  0.00  0.00    -0.358 N 
HETATM   30  H   UNK N   1      23.232  17.260   5.318  0.00  0.00     0.162 HD
BRANCH  29  31
HETATM   31  C   UNK N   1      22.098  16.417   6.867  0.00  0.00     0.148 C 
BRANCH  31  32
HETATM   32  C   UNK N   1      20.947  17.322   6.478  0.00  0.00     0.183 C 
BRANCH  32  33
HETATM   33  O   UNK N   1      21.205  18.605   6.959  0.00  0.00    -0.399 OA
HETATM   34  H   UNK N   1      20.641  18.988   7.650  0.00  0.00     0.209 HD
ENDBRANCH  32  33
ENDBRANCH  31  32
ENDBRANCH  29  31
ENDBRANCH  26  27
ENDBRANCH   1  26
TORSDOF 7
ENDMDL
MODEL 9
REMARK VINA RESULT:      -7.0      6.908     10.363
REMARK  7 active torsions:
REMARK  status: ('A' for Active; 'I' for Inactive)
REMARK    1  A    between atoms: C_2  and  C_7 
REMARK       I    between atoms: C_2  and  N_3 
REMARK    2  A    between atoms: N_3  and  C_4 
REMARK    3  A    between atoms: C_4  and  C_5 
REMARK    4  A    between atoms: C_5  and  O_6 
REMARK    5  A    between atoms: C_7  and  N_8 
REMARK    6  A    between atoms: C_18  and  N_19 
REMARK       I    between atoms: N_19  and  C_20 
REMARK    7  A    between atoms: C_20  and  C_22 
ROOT
HETATM    1  N   UNK N   1      31.683  16.884   4.276  0.00  0.00    -0.307 N 
HETATM    2  C   UNK N   1      30.353  16.926   3.955  0.00  0.00     0.248 C 
HETATM    3  O   UNK N   1      29.968  16.506   2.873  0.00  0.00    -0.271 OA
HETATM    4  C   UNK N   1      32.097  17.200   5.619  0.00  0.00     0.044 A 
HETATM    5  C   UNK N   1      33.452  17.367   5.945  0.00  0.00     0.030 A 
HETATM    6  C   UNK N   1      33.832  17.667   7.258  0.00  0.00     0.002 A 
HETATM    7  C   UNK N   1      32.864  17.804   8.257  0.00  0.00     0.001 A 
HETATM    8  C   UNK N   1      31.125  17.324   6.642  0.00  0.00    -0.029 A 
HETATM    9  C   UNK N   1      31.512  17.630   7.950  0.00  0.00     0.009 A 
HETATM   10  C   UNK N   1      29.672  17.103   6.329  0.00  0.00     0.075 C 
HETATM   11  C   UNK N   1      29.388  17.598   4.920  0.00  0.00     0.181 C 
ENDROOT
BRANCH  11  12
HETATM   12  N   UNK N   1      27.971  17.471   4.620  0.00  0.00    -0.342 N 
HETATM   13  C   UNK N   1      27.170  18.472   4.162  0.00  0.00     0.269 C 
HETATM   14  O   UNK N   1      27.641  19.544   3.814  0.00  0.00    -0.266 OA
HETATM   15  H   UNK N   1      27.556  16.589   4.762  0.00  0.00     0.163 HD
BRANCH  13  16
HETATM   16  C   UNK N   1      25.711  18.289   4.163  0.00  0.00     0.102 A 
HETATM   17  C   UNK N   1      25.052  17.046   4.191  0.00  0.00     0.049 A 
HETATM   18  C   UNK N   1      23.725  17.375   4.046  0.00  0.00     0.002 A 
HETATM   19  C   UNK N   1      23.645  18.714   3.936  0.00  0.00     0.086 A 
HETATM   20  C   UNK N   1      22.488  16.687   3.952  0.00  0.00     0.045 A 
HETATM   21  N   UNK N   1      24.834  19.318   4.006  0.00  0.00    -0.345 N 
HETATM   22  S   UNK N   1      22.081  19.154   3.703  0.00  0.00    -0.059 SA
HETATM   23  H   UNK N   1      25.029  20.281   3.956  0.00  0.00     0.167 HD
HETATM   24  C   UNK N   1      21.430  17.606   3.750  0.00  0.00     0.077 A 
HETATM   25 Cl   UNK N   1      19.739  17.204   3.545  0.00  0.00    -0.076 Cl
ENDBRANCH  13  16
ENDBRANCH  11  12
BRANCH   1  26
HETATM   26  C   UNK N   1      32.651  16.672   3.212  0.00  0.00     0.235 C 
BRANCH  26  27
HETATM   27  C   UNK N   1      33.141  15.273   3.019  0.00  0.00     0.235 C 
HETATM   28  O   UNK N   1      32.818  14.393   3.803  0.00  0.00    -0.272 OA
HETATM   29  N   UNK N   1      34.062  15.044   2.049  0.00  0.00    -0.358 N 
HETATM   30  H   UNK N   1      34.227  15.762   1.394  0.00  0.00     0.162 HD
BRANCH  29  31
HETATM   31  C   UNK N   1      34.821  13.818   1.910  0.00  0.00     0.148 C 
BRANCH  31  32
HETATM   32  C   UNK N   1      35.431  13.660   0.532  0.00  0.00     0.183 C 
BRANCH  32  33
HETATM   33  O   UNK N   1      35.659  14.926  -0.003  0.00  0.00    -0.399 OA
HETATM   34  H   UNK N   1      35.477  15.097  -0.941  0.00  0.00     0.209 HD
ENDBRANCH  32  33
ENDBRANCH  31  32
ENDBRANCH  29  31
ENDBRANCH  26  27
ENDBRANCH   1  26
TORSDOF 7
ENDMDL
