MODEL 1
REMARK VINA RESULT:      -7.6      0.000      0.000
REMARK  4 active torsions:
REMARK  status: ('A' for Active; 'I' for Inactive)
REMARK    1  A    between atoms: C_2  and  C_7 
REMARK       I    between atoms: C_7  and  N_23 
REMARK    2  A    between atoms: C_8  and  N_23 
REMARK    3  A    between atoms: C_14  and  C_16 
REMARK    4  A    between atoms: C_14  and  N_18 
REMARK       I    between atoms: C_16  and  N_17 
ROOT
HETATM    1  C   UNK N   1      32.819  17.723   8.212  0.00  0.00     0.181 C 
HETATM    2  C   UNK N   1      31.374  16.904   5.873  0.00  0.00     0.044 A 
HETATM    3  C   UNK N   1      33.432  17.972   6.838  0.00  0.00     0.075 C 
HETATM    4  C   UNK N   1      32.733  17.247   5.748  0.00  0.00    -0.029 A 
HETATM    5  C   UNK N   1      31.331  17.567   8.209  0.00  0.00     0.248 C 
HETATM    6  O   UNK N   1      30.723  17.714   9.265  0.00  0.00    -0.271 OA
HETATM    7  N   UNK N   1      30.659  17.185   7.084  0.00  0.00    -0.307 N 
HETATM    8  C   UNK N   1      30.727  16.286   4.792  0.00  0.00     0.030 A 
HETATM    9  C   UNK N   1      31.427  16.010   3.614  0.00  0.00     0.002 A 
HETATM   10  C   UNK N   1      32.776  16.357   3.502  0.00  0.00     0.001 A 
HETATM   11  C   UNK N   1      33.425  16.983   4.566  0.00  0.00     0.009 A 
ENDROOT
BRANCH   1  12
HETATM   12  N   UNK N   1      33.383  16.615   8.934  0.00  0.00    -0.342 N 
HETATM   13  C   UNK N   1      34.497  16.537   9.703  0.00  0.00     0.269 C 
HETATM   14  O   UNK N   1      35.277  17.471   9.825  0.00  0.00    -0.266 OA
HETATM   15  H   UNK N   1      32.878  15.773   8.857  0.00  0.00     0.163 HD
BRANCH  13  16
HETATM   16  C   UNK N   1      34.522  15.399  10.601  0.00  0.00     0.102 A 
HETATM   17  C   UNK N   1      34.509  14.113  10.200  0.00  0.00     0.049 A 
HETATM   18  C   UNK N   1      35.140  13.425  11.325  0.00  0.00    -0.002 A 
HETATM   19  C   UNK N   1      35.712  12.263  11.528  0.00  0.00     0.018 A 
HETATM   20  C   UNK N   1      35.408  14.385  12.292  0.00  0.00     0.082 A 
HETATM   21  C   UNK N   1      36.501  12.246  12.830  0.00  0.00     0.173 A 
HETATM   22 Cl   UNK N   1      35.871  10.978  13.894  0.00  0.00    -0.109 Cl
HETATM   23  S   UNK N   1      36.353  13.895  13.688  0.00  0.00    -0.087 SA
HETATM   24  N   UNK N   1      35.088  15.541  11.897  0.00  0.00    -0.346 N 
ATOM     25  HN  UNK N   1      35.214  16.412  12.411  1.00  0.00     0.167 HD
ENDBRANCH  13  16
ENDBRANCH   1  12
BRANCH   7  26
HETATM   26  C   UNK N   1      29.227  17.001   7.142  0.00  0.00     0.234 C 
BRANCH  26  27
HETATM   27  C   UNK N   1      28.553  18.326   6.989  0.00  0.00     0.233 C 
HETATM   28  O   UNK N   1      28.527  18.879   5.901  0.00  0.00    -0.272 OA
HETATM   29  N   UNK N   1      27.952  18.899   8.049  0.00  0.00    -0.369 N 
HETATM   30  H   UNK N   1      27.767  19.860   8.152  0.00  0.00     0.159 HD
HETATM   31  H   UNK N   1      27.674  18.306   8.784  0.00  0.00     0.159 HD
ENDBRANCH  26  27
ENDBRANCH   7  26
TORSDOF 4
ENDMDL
MODEL 2
REMARK VINA RESULT:      -7.5      8.401     12.046
REMARK  4 active torsions:
REMARK  status: ('A' for Active; 'I' for Inactive)
REMARK    1  A    between atoms: C_2  and  C_7 
REMARK       I    between atoms: C_7  and  N_23 
REMARK    2  A    between atoms: C_8  and  N_23 
REMARK    3  A    between atoms: C_14  and  C_16 
REMARK    4  A    between atoms: C_14  and  N_18 
REMARK       I    between atoms: C_16  and  N_17 
ROOT
HETATM    1  C   UNK N   1      21.493  19.005   3.702  0.00  0.00     0.181 C 
HETATM    2  C   UNK N   1      20.286  16.487   3.046  0.00  0.00     0.044 A 
HETATM    3  C   UNK N   1      20.612  18.908   2.462  0.00  0.00     0.075 C 
HETATM    4  C   UNK N   1      20.298  17.509   2.079  0.00  0.00    -0.029 A 
HETATM    5  C   UNK N   1      21.231  17.954   4.735  0.00  0.00     0.248 C 
HETATM    6  O   UNK N   1      21.623  18.147   5.882  0.00  0.00    -0.271 OA
HETATM    7  N   UNK N   1      20.647  16.765   4.406  0.00  0.00    -0.307 N 
HETATM    8  C   UNK N   1      19.911  15.191   2.661  0.00  0.00     0.030 A 
HETATM    9  C   UNK N   1      19.563  14.921   1.334  0.00  0.00     0.002 A 
HETATM   10  C   UNK N   1      19.577  15.945   0.383  0.00  0.00     0.001 A 
HETATM   11  C   UNK N   1      19.936  17.239   0.759  0.00  0.00     0.009 A 
ENDROOT
BRANCH   1  12
HETATM   12  N   UNK N   1      22.907  19.029   3.439  0.00  0.00    -0.342 N 
HETATM   13  C   UNK N   1      23.740  20.069   3.187  0.00  0.00     0.269 C 
HETATM   14  O   UNK N   1      23.338  21.217   3.063  0.00  0.00    -0.266 OA
HETATM   15  H   UNK N   1      23.342  18.146   3.442  0.00  0.00     0.163 HD
BRANCH  13  16
HETATM   16  C   UNK N   1      25.145  19.769   3.390  0.00  0.00     0.102 A 
HETATM   17  C   UNK N   1      25.957  20.455   4.217  0.00  0.00     0.049 A 
HETATM   18  C   UNK N   1      26.988  19.470   4.536  0.00  0.00    -0.002 A 
HETATM   19  C   UNK N   1      27.903  19.317   5.462  0.00  0.00     0.018 A 
HETATM   20  C   UNK N   1      26.693  18.321   3.812  0.00  0.00     0.082 A 
HETATM   21  C   UNK N   1      28.459  17.900   5.475  0.00  0.00     0.173 A 
HETATM   22 Cl   UNK N   1      30.207  17.940   5.190  0.00  0.00    -0.109 Cl
HETATM   23  S   UNK N   1      27.645  16.882   4.141  0.00  0.00    -0.087 SA
HETATM   24  N   UNK N   1      25.619  18.449   3.160  0.00  0.00    -0.346 N 
ATOM     25  HN  UNK N   1      25.177  17.738   2.578  1.00  0.00     0.167 HD
ENDBRANCH  13  16
ENDBRANCH   1  12
BRANCH   7  26
HETATM   26  C   UNK N   1      20.457  15.762   5.428  0.00  0.00     0.234 C 
BRANCH  26  27
HETATM   27  C   UNK N   1      19.212  16.070   6.196  0.00  0.00     0.233 C 
HETATM   28  O   UNK N   1      18.118  15.893   5.686  0.00  0.00    -0.272 OA
HETATM   29  N   UNK N   1      19.299  16.520   7.462  0.00  0.00    -0.369 N 
HETATM   30  H   UNK N   1      18.608  17.036   7.935  0.00  0.00     0.159 HD
HETATM   31  H   UNK N   1      20.124  16.314   7.958  0.00  0.00     0.159 HD
ENDBRANCH  26  27
ENDBRANCH   7  26
TORSDOF 4
ENDMDL
MODEL 3
REMARK VINA RESULT:      -7.2      4.161      8.415
REMARK  4 active torsions:
REMARK  status: ('A' for Active; 'I' for Inactive)
REMARK    1  A    between atoms: C_2  and  C_7 
REMARK       I    between atoms: C_7  and  N_23 
REMARK    2  A    between atoms: C_8  and  N_23 
REMARK    3  A    between atoms: C_14  and  C_16 
REMARK    4  A    between atoms: C_14  and  N_18 
REMARK       I    between atoms: C_16  and  N_17 
ROOT
HETATM    1  C   UNK N   1      36.162  13.647  11.244  0.00  0.00     0.181 C 
HETATM    2  C   UNK N   1      34.901  11.610  12.822  0.00  0.00     0.044 A 
HETATM    3  C   UNK N   1      36.308  13.689  12.762  0.00  0.00     0.075 C 
HETATM    4  C   UNK N   1      35.380  12.768  13.462  0.00  0.00    -0.029 A 
HETATM    5  C   UNK N   1      35.837  12.297  10.688  0.00  0.00     0.248 C 
HETATM    6  O   UNK N   1      36.042  12.088   9.496  0.00  0.00    -0.271 OA
HETATM    7  N   UNK N   1      35.245  11.336  11.456  0.00  0.00    -0.307 N 
HETATM    8  C   UNK N   1      34.085  10.723  13.541  0.00  0.00     0.030 A 
HETATM    9  C   UNK N   1      33.749  10.994  14.870  0.00  0.00     0.002 A 
HETATM   10  C   UNK N   1      34.231  12.146  15.495  0.00  0.00     0.001 A 
HETATM   11  C   UNK N   1      35.053  13.027  14.793  0.00  0.00     0.009 A 
ENDROOT
BRANCH   1  12
HETATM   12  N   UNK N   1      35.222  14.592  10.702  0.00  0.00    -0.342 N 
HETATM   13  C   UNK N   1      35.365  15.906  10.402  0.00  0.00     0.269 C 
HETATM   14  O   UNK N   1      36.387  16.529  10.654  0.00  0.00    -0.266 OA
HETATM   15  H   UNK N   1      34.328  14.224  10.518  0.00  0.00     0.163 HD
BRANCH  13  16
HETATM   16  C   UNK N   1      34.360  16.422   9.492  0.00  0.00     0.102 A 
HETATM   17  C   UNK N   1      34.564  17.435   8.629  0.00  0.00     0.049 A 
HETATM   18  C   UNK N   1      33.568  17.173   7.592  0.00  0.00    -0.002 A 
HETATM   19  C   UNK N   1      33.370  17.539   6.349  0.00  0.00     0.018 A 
HETATM   20  C   UNK N   1      32.849  16.053   7.992  0.00  0.00     0.082 A 
HETATM   21  C   UNK N   1      32.339  16.657   5.660  0.00  0.00     0.173 A 
HETATM   22 Cl   UNK N   1      30.982  17.648   5.100  0.00  0.00    -0.109 Cl
HETATM   23  S   UNK N   1      31.705  15.368   6.850  0.00  0.00    -0.087 SA
HETATM   24  N   UNK N   1      33.297  15.578   9.072  0.00  0.00    -0.346 N 
ATOM     25  HN  UNK N   1      32.959  14.744   9.552  1.00  0.00     0.167 HD
ENDBRANCH  13  16
ENDBRANCH   1  12
BRANCH   7  26
HETATM   26  C   UNK N   1      34.907  10.063  10.863  0.00  0.00     0.234 C 
BRANCH  26  27
HETATM   27  C   UNK N   1      33.478  10.086  10.425  0.00  0.00     0.233 C 
HETATM   28  O   UNK N   1      32.753   9.130  10.649  0.00  0.00    -0.272 OA
HETATM   29  N   UNK N   1      32.984  11.175   9.805  0.00  0.00    -0.369 N 
HETATM   30  H   UNK N   1      32.198  11.189   9.213  0.00  0.00     0.159 HD
HETATM   31  H   UNK N   1      33.448  12.029   9.957  0.00  0.00     0.159 HD
ENDBRANCH  26  27
ENDBRANCH   7  26
TORSDOF 4
ENDMDL
MODEL 4
REMARK VINA RESULT:      -7.1      8.231     11.946
REMARK  4 active torsions:
REMARK  status: ('A' for Active; 'I' for Inactive)
REMARK    1  A    between atoms: C_2  and  C_7 
REMARK       I    between atoms: C_7  and  N_23 
REMARK    2  A    between atoms: C_8  and  N_23 
REMARK    3  A    between atoms: C_14  and  C_16 
REMARK    4  A    between atoms: C_14  and  N_18 
REMARK       I    between atoms: C_16  and  N_17 
ROOT
HETATM    1  C   UNK N   1      21.112  18.175   4.455  0.00  0.00     0.181 C 
HETATM    2  C   UNK N   1      20.253  15.643   5.494  0.00  0.00     0.044 A 
HETATM    3  C   UNK N   1      20.143  17.329   3.636  0.00  0.00     0.075 C 
HETATM    4  C   UNK N   1      20.014  15.939   4.140  0.00  0.00    -0.029 A 
HETATM    5  C   UNK N   1      21.115  17.873   5.921  0.00  0.00     0.248 C 
HETATM    6  O   UNK N   1      21.580  18.708   6.691  0.00  0.00    -0.271 OA
HETATM    7  N   UNK N   1      20.694  16.666   6.398  0.00  0.00    -0.307 N 
HETATM    8  C   UNK N   1      20.048  14.332   5.950  0.00  0.00     0.030 A 
HETATM    9  C   UNK N   1      19.621  13.336   5.067  0.00  0.00     0.002 A 
HETATM   10  C   UNK N   1      19.386  13.643   3.724  0.00  0.00     0.001 A 
HETATM   11  C   UNK N   1      19.575  14.946   3.265  0.00  0.00     0.009 A 
ENDROOT
BRANCH   1  12
HETATM   12  N   UNK N   1      22.474  18.153   3.992  0.00  0.00    -0.342 N 
HETATM   13  C   UNK N   1      23.289  19.162   3.599  0.00  0.00     0.269 C 
HETATM   14  O   UNK N   1      22.904  20.319   3.507  0.00  0.00    -0.266 OA
HETATM   15  H   UNK N   1      22.881  17.258   3.954  0.00  0.00     0.163 HD
BRANCH  13  16
HETATM   16  C   UNK N   1      24.700  18.825   3.606  0.00  0.00     0.102 A 
HETATM   17  C   UNK N   1      25.696  19.718   3.451  0.00  0.00     0.049 A 
HETATM   18  C   UNK N   1      26.818  19.060   4.118  0.00  0.00    -0.002 A 
HETATM   19  C   UNK N   1      27.978  19.422   4.607  0.00  0.00     0.018 A 
HETATM   20  C   UNK N   1      26.364  17.819   4.548  0.00  0.00     0.082 A 
HETATM   21  C   UNK N   1      28.572  18.344   5.502  0.00  0.00     0.173 A 
HETATM   22 Cl   UNK N   1      30.145  17.836   4.863  0.00  0.00    -0.109 Cl
HETATM   23  S   UNK N   1      27.433  16.869   5.567  0.00  0.00    -0.087 SA
HETATM   24  N   UNK N   1      25.138  17.661   4.293  0.00  0.00    -0.346 N 
ATOM     25  HN  UNK N   1      24.569  16.850   4.535  1.00  0.00     0.167 HD
ENDBRANCH  13  16
ENDBRANCH   1  12
BRANCH   7  26
HETATM   26  C   UNK N   1      20.759  16.403   7.817  0.00  0.00     0.234 C 
BRANCH  26  27
HETATM   27  C   UNK N   1      19.522  16.924   8.473  0.00  0.00     0.233 C 
HETATM   28  O   UNK N   1      18.500  16.256   8.471  0.00  0.00    -0.272 OA
HETATM   29  N   UNK N   1      19.541  18.121   9.089  0.00  0.00    -0.369 N 
HETATM   30  H   UNK N   1      18.756  18.687   9.266  0.00  0.00     0.159 HD
HETATM   31  H   UNK N   1      20.416  18.458   9.389  0.00  0.00     0.159 HD
ENDBRANCH  26  27
ENDBRANCH   7  26
TORSDOF 4
ENDMDL
MODEL 5
REMARK VINA RESULT:      -7.1      4.146      8.855
REMARK  4 active torsions:
REMARK  status: ('A' for Active; 'I' for Inactive)
REMARK    1  A    between atoms: C_2  and  C_7 
REMARK       I    between atoms: C_7  and  N_23 
REMARK    2  A    between atoms: C_8  and  N_23 
REMARK    3  A    between atoms: C_14  and  C_16 
REMARK    4  A    between atoms: C_14  and  N_18 
REMARK       I    between atoms: C_16  and  N_17 
ROOT
HETATM    1  C   UNK N   1      36.247  13.870  11.318  0.00  0.00     0.181 C 
HETATM    2  C   UNK N   1      35.059  11.668  12.722  0.00  0.00     0.044 A 
HETATM    3  C   UNK N   1      36.289  13.855  12.843  0.00  0.00     0.075 C 
HETATM    4  C   UNK N   1      35.396  12.831  13.439  0.00  0.00    -0.029 A 
HETATM    5  C   UNK N   1      36.074  12.524  10.688  0.00  0.00     0.248 C 
HETATM    6  O   UNK N   1      36.375  12.387   9.506  0.00  0.00    -0.271 OA
HETATM    7  N   UNK N   1      35.515  11.485  11.374  0.00  0.00    -0.307 N 
HETATM    8  C   UNK N   1      34.274  10.687  13.346  0.00  0.00     0.030 A 
HETATM    9  C   UNK N   1      33.829  10.869  14.658  0.00  0.00     0.002 A 
HETATM   10  C   UNK N   1      34.170  12.027  15.361  0.00  0.00     0.001 A 
HETATM   11  C   UNK N   1      34.961  13.002  14.753  0.00  0.00     0.009 A 
ENDROOT
BRANCH   1  12
HETATM   12  N   UNK N   1      35.270  14.759  10.749  0.00  0.00    -0.342 N 
HETATM   13  C   UNK N   1      35.353  16.075  10.431  0.00  0.00     0.269 C 
HETATM   14  O   UNK N   1      36.339  16.751  10.686  0.00  0.00    -0.266 OA
HETATM   15  H   UNK N   1      34.398  14.345  10.559  0.00  0.00     0.163 HD
BRANCH  13  16
HETATM   16  C   UNK N   1      34.336  16.526   9.500  0.00  0.00     0.102 A 
HETATM   17  C   UNK N   1      34.503  17.535   8.623  0.00  0.00     0.049 A 
HETATM   18  C   UNK N   1      33.534  17.208   7.578  0.00  0.00    -0.002 A 
HETATM   19  C   UNK N   1      33.336  17.545   6.327  0.00  0.00     0.018 A 
HETATM   20  C   UNK N   1      32.864  16.062   7.988  0.00  0.00     0.082 A 
HETATM   21  C   UNK N   1      32.357  16.603   5.640  0.00  0.00     0.173 A 
HETATM   22 Cl   UNK N   1      30.961  17.519   5.046  0.00  0.00    -0.109 Cl
HETATM   23  S   UNK N   1      31.769  15.304   6.843  0.00  0.00    -0.087 SA
HETATM   24  N   UNK N   1      33.320  15.626   9.081  0.00  0.00    -0.346 N 
ATOM     25  HN  UNK N   1      33.016  14.785   9.571  1.00  0.00     0.167 HD
ENDBRANCH  13  16
ENDBRANCH   1  12
BRANCH   7  26
HETATM   26  C   UNK N   1      35.325  10.217  10.708  0.00  0.00     0.234 C 
BRANCH  26  27
HETATM   27  C   UNK N   1      36.623   9.477  10.675  0.00  0.00     0.233 C 
HETATM   28  O   UNK N   1      37.132   9.085  11.712  0.00  0.00    -0.272 OA
HETATM   29  N   UNK N   1      37.220   9.222   9.495  0.00  0.00    -0.369 N 
HETATM   30  H   UNK N   1      38.179   9.042   9.365  0.00  0.00     0.159 HD
HETATM   31  H   UNK N   1      36.649   9.215   8.694  0.00  0.00     0.159 HD
ENDBRANCH  26  27
ENDBRANCH   7  26
TORSDOF 4
ENDMDL
MODEL 6
REMARK VINA RESULT:      -6.9      3.978      7.710
REMARK  4 active torsions:
REMARK  status: ('A' for Active; 'I' for Inactive)
REMARK    1  A    between atoms: C_2  and  C_7 
REMARK       I    between atoms: C_7  and  N_23 
REMARK    2  A    between atoms: C_8  and  N_23 
REMARK    3  A    between atoms: C_14  and  C_16 
REMARK    4  A    between atoms: C_14  and  N_18 
REMARK       I    between atoms: C_16  and  N_17 
ROOT
HETATM    1  C   UNK N   1      35.566  15.049   9.134  0.00  0.00     0.181 C 
HETATM    2  C   UNK N   1      35.243  12.894  10.999  0.00  0.00     0.044 A 
HETATM    3  C   UNK N   1      36.221  15.154  10.507  0.00  0.00     0.075 C 
HETATM    4  C   UNK N   1      35.737  14.127  11.462  0.00  0.00    -0.029 A 
HETATM    5  C   UNK N   1      35.271  13.650   8.692  0.00  0.00     0.248 C 
HETATM    6  O   UNK N   1      35.080  13.440   7.497  0.00  0.00    -0.271 OA
HETATM    7  N   UNK N   1      35.130  12.635   9.593  0.00  0.00    -0.307 N 
HETATM    8  C   UNK N   1      34.866  11.918  11.934  0.00  0.00     0.030 A 
HETATM    9  C   UNK N   1      34.974  12.174  13.304  0.00  0.00     0.002 A 
HETATM   10  C   UNK N   1      35.468  13.401  13.752  0.00  0.00     0.001 A 
HETATM   11  C   UNK N   1      35.857  14.373  12.830  0.00  0.00     0.009 A 
ENDROOT
BRANCH   1  12
HETATM   12  N   UNK N   1      34.369  15.830   8.973  0.00  0.00    -0.342 N 
HETATM   13  C   UNK N   1      34.192  17.173   8.919  0.00  0.00     0.269 C 
HETATM   14  O   UNK N   1      35.108  17.963   9.095  0.00  0.00    -0.266 OA
HETATM   15  H   UNK N   1      33.542  15.303   8.889  0.00  0.00     0.163 HD
BRANCH  13  16
HETATM   16  C   UNK N   1      32.930  17.583   8.332  0.00  0.00     0.102 A 
HETATM   17  C   UNK N   1      32.571  17.341   7.057  0.00  0.00     0.049 A 
HETATM   18  C   UNK N   1      31.111  17.368   7.130  0.00  0.00    -0.002 A 
HETATM   19  C   UNK N   1      30.114  16.947   6.390  0.00  0.00     0.018 A 
HETATM   20  C   UNK N   1      30.774  17.679   8.441  0.00  0.00     0.082 A 
HETATM   21  C   UNK N   1      28.801  16.956   7.160  0.00  0.00     0.173 A 
HETATM   22 Cl   UNK N   1      27.633  18.006   6.339  0.00  0.00    -0.109 Cl
HETATM   23  S   UNK N   1      29.079  17.588   8.892  0.00  0.00    -0.087 SA
HETATM   24  N   UNK N   1      31.800  17.784   9.169  0.00  0.00    -0.346 N 
ATOM     25  HN  UNK N   1      31.814  17.976  10.171  1.00  0.00     0.167 HD
ENDBRANCH  13  16
ENDBRANCH   1  12
BRANCH   7  26
HETATM   26  C   UNK N   1      34.798  11.310   9.122  0.00  0.00     0.234 C 
BRANCH  26  27
HETATM   27  C   UNK N   1      33.358  11.274   8.724  0.00  0.00     0.233 C 
HETATM   28  O   UNK N   1      33.049  11.093   7.557  0.00  0.00    -0.272 OA
HETATM   29  N   UNK N   1      32.400  11.416   9.659  0.00  0.00    -0.369 N 
HETATM   30  H   UNK N   1      31.478  11.718   9.493  0.00  0.00     0.159 HD
HETATM   31  H   UNK N   1      32.642  11.199  10.588  0.00  0.00     0.159 HD
ENDBRANCH  26  27
ENDBRANCH   7  26
TORSDOF 4
ENDMDL
MODEL 7
REMARK VINA RESULT:      -6.7      4.664      9.654
REMARK  4 active torsions:
REMARK  status: ('A' for Active; 'I' for Inactive)
REMARK    1  A    between atoms: C_2  and  C_7 
REMARK       I    between atoms: C_7  and  N_23 
REMARK    2  A    between atoms: C_8  and  N_23 
REMARK    3  A    between atoms: C_14  and  C_16 
REMARK    4  A    between atoms: C_14  and  N_18 
REMARK       I    between atoms: C_16  and  N_17 
ROOT
HETATM    1  C   UNK N   1      36.281  13.290  13.069  0.00  0.00     0.181 C 
HETATM    2  C   UNK N   1      35.352  13.136  15.779  0.00  0.00     0.044 A 
HETATM    3  C   UNK N   1      37.145  13.872  14.182  0.00  0.00     0.075 C 
HETATM    4  C   UNK N   1      36.427  13.991  15.475  0.00  0.00    -0.029 A 
HETATM    5  C   UNK N   1      35.308  12.246  13.519  0.00  0.00     0.248 C 
HETATM    6  O   UNK N   1      34.831  11.487  12.680  0.00  0.00    -0.271 OA
HETATM    7  N   UNK N   1      34.884  12.182  14.815  0.00  0.00    -0.307 N 
HETATM    8  C   UNK N   1      34.746  13.227  17.041  0.00  0.00     0.030 A 
HETATM    9  C   UNK N   1      35.202  14.159  17.977  0.00  0.00     0.002 A 
HETATM   10  C   UNK N   1      36.272  15.001  17.665  0.00  0.00     0.001 A 
HETATM   11  C   UNK N   1      36.889  14.910  16.418  0.00  0.00     0.009 A 
ENDROOT
BRANCH   1  12
HETATM   12  N   UNK N   1      35.563  14.263  12.290  0.00  0.00    -0.342 N 
HETATM   13  C   UNK N   1      35.895  14.886  11.132  0.00  0.00     0.269 C 
HETATM   14  O   UNK N   1      36.985  14.740  10.597  0.00  0.00    -0.266 OA
HETATM   15  H   UNK N   1      34.687  14.521  12.657  0.00  0.00     0.163 HD
BRANCH  13  16
HETATM   16  C   UNK N   1      34.770  15.469  10.426  0.00  0.00     0.102 A 
HETATM   17  C   UNK N   1      34.749  16.723   9.934  0.00  0.00     0.049 A 
HETATM   18  C   UNK N   1      33.762  16.624   8.860  0.00  0.00    -0.002 A 
HETATM   19  C   UNK N   1      33.440  17.321   7.798  0.00  0.00     0.018 A 
HETATM   20  C   UNK N   1      33.272  15.324   8.876  0.00  0.00     0.082 A 
HETATM   21  C   UNK N   1      32.546  16.529   6.855  0.00  0.00     0.173 A 
HETATM   22 Cl   UNK N   1      31.009  17.381   6.630  0.00  0.00    -0.109 Cl
HETATM   23  S   UNK N   1      32.209  14.837   7.565  0.00  0.00    -0.087 SA
HETATM   24  N   UNK N   1      33.851  14.622   9.750  0.00  0.00    -0.346 N 
ATOM     25  HN  UNK N   1      33.689  13.632   9.936  1.00  0.00     0.167 HD
ENDBRANCH  13  16
ENDBRANCH   1  12
BRANCH   7  26
HETATM   26  C   UNK N   1      33.907  11.187  15.192  0.00  0.00     0.234 C 
BRANCH  26  27
HETATM   27  C   UNK N   1      34.611   9.986  15.736  0.00  0.00     0.233 C 
HETATM   28  O   UNK N   1      34.566   9.736  16.929  0.00  0.00    -0.272 OA
HETATM   29  N   UNK N   1      35.277   9.164  14.902  0.00  0.00    -0.369 N 
HETATM   30  H   UNK N   1      36.009   8.558  15.159  0.00  0.00     0.159 HD
HETATM   31  H   UNK N   1      35.009   9.169  13.955  0.00  0.00     0.159 HD
ENDBRANCH  26  27
ENDBRANCH   7  26
TORSDOF 4
ENDMDL
MODEL 8
REMARK VINA RESULT:      -6.7     14.884     17.723
REMARK  4 active torsions:
REMARK  status: ('A' for Active; 'I' for Inactive)
REMARK    1  A    between atoms: C_2  and  C_7 
REMARK       I    between atoms: C_7  and  N_23 
REMARK    2  A    between atoms: C_8  and  N_23 
REMARK    3  A    between atoms: C_14  and  C_16 
REMARK    4  A    between atoms: C_14  and  N_18 
REMARK       I    between atoms: C_16  and  N_17 
ROOT
HETATM    1  C   UNK N   1      26.775  26.177  -4.930  0.00  0.00     0.181 C 
HETATM    2  C   UNK N   1      27.836  27.477  -7.257  0.00  0.00     0.044 A 
HETATM    3  C   UNK N   1      26.839  27.701  -4.962  0.00  0.00     0.075 C 
HETATM    4  C   UNK N   1      27.666  28.225  -6.077  0.00  0.00    -0.029 A 
HETATM    5  C   UNK N   1      26.770  25.527  -6.278  0.00  0.00     0.248 C 
HETATM    6  O   UNK N   1      26.376  24.368  -6.368  0.00  0.00    -0.271 OA
HETATM    7  N   UNK N   1      27.271  26.164  -7.375  0.00  0.00    -0.307 N 
HETATM    8  C   UNK N   1      28.562  28.038  -8.319  0.00  0.00     0.030 A 
HETATM    9  C   UNK N   1      29.114  29.316  -8.199  0.00  0.00     0.002 A 
HETATM   10  C   UNK N   1      28.938  30.050  -7.024  0.00  0.00     0.001 A 
HETATM   11  C   UNK N   1      28.206  29.507  -5.968  0.00  0.00     0.009 A 
ENDROOT
BRANCH   1  12
HETATM   12  N   UNK N   1      27.793  25.547  -4.133  0.00  0.00    -0.342 N 
HETATM   13  C   UNK N   1      27.717  24.505  -3.268  0.00  0.00     0.269 C 
HETATM   14  O   UNK N   1      26.657  23.973  -2.972  0.00  0.00    -0.266 OA
HETATM   15  H   UNK N   1      28.692  25.935  -4.231  0.00  0.00     0.163 HD
BRANCH  13  16
HETATM   16  C   UNK N   1      28.994  23.880  -2.977  0.00  0.00     0.102 A 
HETATM   17  C   UNK N   1      29.135  22.632  -2.490  0.00  0.00     0.049 A 
HETATM   18  C   UNK N   1      30.477  22.268  -2.940  0.00  0.00    -0.002 A 
HETATM   19  C   UNK N   1      31.160  21.159  -3.095  0.00  0.00     0.018 A 
HETATM   20  C   UNK N   1      30.999  23.372  -3.603  0.00  0.00     0.082 A 
HETATM   21  C   UNK N   1      32.407  21.381  -3.938  0.00  0.00     0.173 A 
HETATM   22 Cl   UNK N   1      33.847  20.938  -3.005  0.00  0.00    -0.109 Cl
HETATM   23  S   UNK N   1      32.531  23.174  -4.438  0.00  0.00    -0.087 SA
HETATM   24  N   UNK N   1      30.159  24.312  -3.666  0.00  0.00    -0.346 N 
ATOM     25  HN  UNK N   1      30.292  25.212  -4.126  1.00  0.00     0.167 HD
ENDBRANCH  13  16
ENDBRANCH   1  12
BRANCH   7  26
HETATM   26  C   UNK N   1      27.289  25.477  -8.647  0.00  0.00     0.234 C 
BRANCH  26  27
HETATM   27  C   UNK N   1      25.906  25.452  -9.213  0.00  0.00     0.233 C 
HETATM   28  O   UNK N   1      25.435  26.455  -9.725  0.00  0.00    -0.272 OA
HETATM   29  N   UNK N   1      25.188  24.313  -9.181  0.00  0.00    -0.369 N 
HETATM   30  H   UNK N   1      24.207  24.254  -9.223  0.00  0.00     0.159 HD
HETATM   31  H   UNK N   1      25.687  23.468  -9.109  0.00  0.00     0.159 HD
ENDBRANCH  26  27
ENDBRANCH   7  26
TORSDOF 4
ENDMDL
MODEL 9
REMARK VINA RESULT:      -6.6     13.938     16.763
REMARK  4 active torsions:
REMARK  status: ('A' for Active; 'I' for Inactive)
REMARK    1  A    between atoms: C_2  and  C_7 
REMARK       I    between atoms: C_7  and  N_23 
REMARK    2  A    between atoms: C_8  and  N_23 
REMARK    3  A    between atoms: C_14  and  C_16 
REMARK    4  A    between atoms: C_14  and  N_18 
REMARK       I    between atoms: C_16  and  N_17 
ROOT
HETATM    1  C   UNK N   1      27.859  24.035  -4.325  0.00  0.00     0.181 C 
HETATM    2  C   UNK N   1      27.443  26.315  -6.015  0.00  0.00     0.044 A 
HETATM    3  C   UNK N   1      27.236  25.293  -3.730  0.00  0.00     0.075 C 
HETATM    4  C   UNK N   1      27.348  26.475  -4.621  0.00  0.00    -0.029 A 
HETATM    5  C   UNK N   1      27.712  23.910  -5.809  0.00  0.00     0.248 C 
HETATM    6  O   UNK N   1      27.859  22.805  -6.323  0.00  0.00    -0.271 OA
HETATM    7  N   UNK N   1      27.506  25.005  -6.597  0.00  0.00    -0.307 N 
HETATM    8  C   UNK N   1      27.471  27.457  -6.830  0.00  0.00     0.030 A 
HETATM    9  C   UNK N   1      27.414  28.732  -6.261  0.00  0.00     0.002 A 
HETATM   10  C   UNK N   1      27.318  28.878  -4.875  0.00  0.00     0.001 A 
HETATM   11  C   UNK N   1      27.276  27.749  -4.057  0.00  0.00     0.009 A 
ENDROOT
BRANCH   1  12
HETATM   12  N   UNK N   1      29.245  23.833  -3.995  0.00  0.00    -0.342 N 
HETATM   13  C   UNK N   1      29.819  23.289  -2.893  0.00  0.00     0.269 C 
HETATM   14  O   UNK N   1      29.170  22.942  -1.918  0.00  0.00    -0.266 OA
HETATM   15  H   UNK N   1      29.881  24.139  -4.681  0.00  0.00     0.163 HD
BRANCH  13  16
HETATM   16  C   UNK N   1      31.193  22.866  -3.087  0.00  0.00     0.102 A 
HETATM   17  C   UNK N   1      31.713  21.723  -2.600  0.00  0.00     0.049 A 
HETATM   18  C   UNK N   1      32.821  21.463  -3.517  0.00  0.00    -0.002 A 
HETATM   19  C   UNK N   1      33.563  20.433  -3.843  0.00  0.00     0.018 A 
HETATM   20  C   UNK N   1      32.861  22.520  -4.417  0.00  0.00     0.082 A 
HETATM   21  C   UNK N   1      34.339  20.685  -5.128  0.00  0.00     0.173 A 
HETATM   22 Cl   UNK N   1      36.077  20.548  -4.814  0.00  0.00    -0.109 Cl
HETATM   23  S   UNK N   1      33.967  22.394  -5.775  0.00  0.00    -0.087 SA
HETATM   24  N   UNK N   1      31.919  23.336  -4.215  0.00  0.00    -0.346 N 
ATOM     25  HN  UNK N   1      31.717  24.174  -4.759  1.00  0.00     0.167 HD
ENDBRANCH  13  16
ENDBRANCH   1  12
BRANCH   7  26
HETATM   26  C   UNK N   1      27.418  24.841  -8.029  0.00  0.00     0.234 C 
BRANCH  26  27
HETATM   27  C   UNK N   1      25.980  24.763  -8.430  0.00  0.00     0.233 C 
HETATM   28  O   UNK N   1      25.501  25.611  -9.165  0.00  0.00    -0.272 OA
HETATM   29  N   UNK N   1      25.217  23.741  -7.997  0.00  0.00    -0.369 N 
HETATM   30  H   UNK N   1      24.236  23.748  -7.926  0.00  0.00     0.159 HD
HETATM   31  H   UNK N   1      25.681  22.915  -7.728  0.00  0.00     0.159 HD
ENDBRANCH  26  27
ENDBRANCH   7  26
TORSDOF 4
ENDMDL
