REMARK  4 active torsions:
REMARK  status: ('A' for Active; 'I' for Inactive)
REMARK    1  A    between atoms: C_2  and  C_7 
REMARK       I    between atoms: C_7  and  N_23 
REMARK    2  A    between atoms: C_8  and  N_23 
REMARK    3  A    between atoms: C_14  and  C_16 
REMARK    4  A    between atoms: C_14  and  N_18 
REMARK       I    between atoms: C_16  and  N_17 
ROOT
HETATM    1  C   UNK N   1      -0.119  -3.780  -1.048  0.00  0.00     0.181 C 
HETATM    2  C   UNK N   1       2.286  -4.633   0.263  0.00  0.00     0.044 A 
HETATM    3  C   UNK N   1       1.213  -3.175  -1.478  0.00  0.00     0.075 C 
HETATM    4  C   UNK N   1       2.320  -3.476  -0.537  0.00  0.00    -0.029 A 
HETATM    5  C   UNK N   1      -0.008  -5.112  -0.375  0.00  0.00     0.248 C 
HETATM    6  O   UNK N   1      -1.007  -5.823  -0.312  0.00  0.00    -0.271 OA
HETATM    7  N   UNK N   1       1.147  -5.505   0.236  0.00  0.00    -0.307 N 
HETATM    8  C   UNK N   1       3.385  -4.924   1.085  0.00  0.00     0.030 A 
HETATM    9  C   UNK N   1       4.492  -4.071   1.112  0.00  0.00     0.002 A 
HETATM   10  C   UNK N   1       4.515  -2.926   0.312  0.00  0.00     0.001 A 
HETATM   11  C   UNK N   1       3.433  -2.635  -0.518  0.00  0.00     0.009 A 
ENDROOT
BRANCH   1  12
HETATM   12  N   UNK N   1      -0.931  -2.928  -0.221  0.00  0.00    -0.342 N 
HETATM   13  C   UNK N   1      -0.718  -1.664   0.221  0.00  0.00     0.269 C 
HETATM   14  O   UNK N   1       0.327  -1.064   0.015  0.00  0.00    -0.266 OA
HETATM   15  H   UNK N   1      -1.781  -3.328   0.073  0.00  0.00     0.163 HD
BRANCH  13  16
HETATM   16  C   UNK N   1      -1.917  -0.980   0.667  0.00  0.00     0.102 A 
HETATM   17  C   UNK N   1      -2.166   0.328   0.464  0.00  0.00     0.049 A 
HETATM   18  C   UNK N   1      -3.626   0.383   0.513  0.00  0.00    -0.002 A 
HETATM   19  C   UNK N   1      -4.559   1.219   0.128  0.00  0.00     0.018 A 
HETATM   20  C   UNK N   1      -4.073  -0.902   0.794  0.00  0.00     0.082 A 
HETATM   21  C   UNK N   1      -5.935   0.568   0.137  0.00  0.00     0.173 A 
HETATM   22 Cl   UNK N   1      -7.011   1.459   1.227  0.00  0.00    -0.109 Cl
HETATM   23  S   UNK N   1      -5.802  -1.199   0.718  0.00  0.00    -0.087 SA
HETATM   24  N   UNK N   1      -3.114  -1.720   0.863  0.00  0.00    -0.346 N 
ATOM     25  HN  UNK N   1      -3.186  -2.724   1.028  1.00  0.00     0.167 HD
ENDBRANCH  13  16
ENDBRANCH   1  12
BRANCH   7  26
HETATM   26  C   UNK N   1       1.192  -6.780   0.914  0.00  0.00     0.234 C 
BRANCH  26  27
HETATM   27  C   UNK N   1       1.463  -7.860  -0.083  0.00  0.00     0.233 C 
HETATM   28  O   UNK N   1       0.570  -8.620  -0.421  0.00  0.00    -0.272 OA
HETATM   29  N   UNK N   1       2.689  -7.979  -0.627  0.00  0.00    -0.369 N 
HETATM   30  H   UNK N   1       3.062  -8.798  -1.025  0.00  0.00     0.159 HD
HETATM   31  H   UNK N   1       3.261  -7.178  -0.627  0.00  0.00     0.159 HD
ENDBRANCH  26  27
ENDBRANCH   7  26
TORSDOF 4
