MODEL 1
REMARK VINA RESULT:      -8.1      0.000      0.000
REMARK  3 active torsions:
REMARK  status: ('A' for Active; 'I' for Inactive)
REMARK    1  A    between atoms: C_9  and  C_12 
REMARK    2  A    between atoms: C_10  and  C_11 
REMARK    3  A    between atoms: C_25  and  N_29 
ROOT
HETATM    1  C   UNK N   1      36.636   8.710  12.048  0.00  0.00     0.019 A 
HETATM    2  C   UNK N   1      36.738   9.241  13.342  0.00  0.00     0.116 A 
HETATM    3  N   UNK N   1      36.540  10.570  13.506  0.00  0.00    -0.266 N 
HETATM    4  C   UNK N   1      36.251  11.411  12.504  0.00  0.00     0.070 A 
HETATM    5  C   UNK N   1      36.138  10.940  11.193  0.00  0.00     0.032 A 
HETATM    6  C   UNK N   1      36.335   9.566  10.972  0.00  0.00     0.004 A 
HETATM    7  N   UNK N   1      36.600  11.225  14.652  0.00  0.00    -0.292 N 
ATOM      8  HN  UNK N   1      36.804  10.814  15.563  1.00  0.00     0.187 HD
HETATM    9  C   UNK N   1      36.345  12.535  14.412  0.00  0.00     0.073 A 
HETATM   10  C   UNK N   1      36.111  12.696  13.011  0.00  0.00     0.050 A 
ENDROOT
BRANCH  10  11
HETATM   11  C   UNK N   1      35.793  13.902  12.184  0.00  0.00     0.064 A 
HETATM   12  C   UNK N   1      34.547  14.035  11.568  0.00  0.00     0.051 A 
HETATM   13  C   UNK N   1      34.309  15.161  10.823  0.00  0.00     0.058 A 
HETATM   14  C   UNK N   1      35.246  16.113  10.688  0.00  0.00     0.148 A 
HETATM   15  C   UNK N   1      33.238  15.604  10.105  0.00  0.00     0.127 A 
HETATM   16  N   UNK N   1      36.460  16.003  11.279  0.00  0.00    -0.283 N 
HETATM   17  N   UNK N   1      34.787  17.117   9.917  0.00  0.00    -0.282 N 
HETATM   18  N   UNK N   1      36.723  14.909  12.015  0.00  0.00    -0.298 N 
ATOM     19  HN  UNK N   1      37.161  16.735  11.167  1.00  0.00     0.188 HD
ATOM     20  HN  UNK N   1      37.635  14.820  12.462  1.00  0.00     0.187 HD
HETATM   21  N   UNK N   1      33.542  16.802   9.555  0.00  0.00    -0.283 N 
HETATM   22  H   UNK N   1      35.279  17.932   9.667  0.00  0.00     0.188 HD
ATOM     23  HN  UNK N   1      32.928  17.365   8.968  1.00  0.00     0.188 HD
BRANCH  15  24
HETATM   24  N   UNK N   1      32.005  14.938   9.947  0.00  0.00    -0.384 N 
HETATM   25  H   UNK N   1      31.288  15.350   9.410  0.00  0.00     0.157 HD
HETATM   26  H   UNK N   1      31.860  14.063  10.372  0.00  0.00     0.157 HD
ENDBRANCH  15  24
ENDBRANCH  10  11
BRANCH   9  27
HETATM   27  C   UNK N   1      36.350  13.510  15.553  0.00  0.00    -0.007 A 
HETATM   28  C   UNK N   1      35.491  13.279  16.640  0.00  0.00     0.014 A 
HETATM   29  C   UNK N   1      35.461  14.158  17.730  0.00  0.00     0.001 A 
HETATM   30  C   UNK N   1      36.288  15.283  17.746  0.00  0.00     0.000 A 
HETATM   31  C   UNK N   1      37.142  15.527  16.674  0.00  0.00     0.001 A 
HETATM   32  C   UNK N   1      37.166  14.644  15.594  0.00  0.00     0.014 A 
ENDBRANCH   9  27
TORSDOF 3
ENDMDL
MODEL 2
REMARK VINA RESULT:      -7.8     19.862     23.659
REMARK  3 active torsions:
REMARK  status: ('A' for Active; 'I' for Inactive)
REMARK    1  A    between atoms: C_9  and  C_12 
REMARK    2  A    between atoms: C_10  and  C_11 
REMARK    3  A    between atoms: C_25  and  N_29 
ROOT
HETATM    1  C   UNK N   1      25.573  28.099  -4.192  0.00  0.00     0.019 A 
HETATM    2  C   UNK N   1      26.684  27.431  -3.658  0.00  0.00     0.116 A 
HETATM    3  N   UNK N   1      27.006  26.217  -4.164  0.00  0.00    -0.266 N 
HETATM    4  C   UNK N   1      26.325  25.615  -5.148  0.00  0.00     0.070 A 
HETATM    5  C   UNK N   1      25.208  26.232  -5.718  0.00  0.00     0.032 A 
HETATM    6  C   UNK N   1      24.834  27.494  -5.225  0.00  0.00     0.004 A 
HETATM    7  N   UNK N   1      28.016  25.461  -3.775  0.00  0.00    -0.292 N 
ATOM      8  HN  UNK N   1      28.686  25.692  -3.041  1.00  0.00     0.187 HD
HETATM    9  C   UNK N   1      28.012  24.325  -4.515  0.00  0.00     0.073 A 
HETATM   10  C   UNK N   1      26.914  24.390  -5.429  0.00  0.00     0.050 A 
ENDROOT
BRANCH  10  11
HETATM   11  C   UNK N   1      26.423  23.432  -6.468  0.00  0.00     0.064 A 
HETATM   12  C   UNK N   1      27.120  23.263  -7.666  0.00  0.00     0.051 A 
HETATM   13  C   UNK N   1      26.626  22.371  -8.583  0.00  0.00     0.058 A 
HETATM   14  C   UNK N   1      25.503  21.677  -8.339  0.00  0.00     0.148 A 
HETATM   15  C   UNK N   1      27.037  21.969  -9.819  0.00  0.00     0.127 A 
HETATM   16  N   UNK N   1      24.813  21.826  -7.182  0.00  0.00    -0.283 N 
HETATM   17  N   UNK N   1      25.215  20.869  -9.377  0.00  0.00    -0.282 N 
HETATM   18  N   UNK N   1      25.273  22.695  -6.264  0.00  0.00    -0.298 N 
ATOM     19  HN  UNK N   1      23.962  21.292  -7.012  1.00  0.00     0.188 HD
ATOM     20  HN  UNK N   1      24.759  22.812  -5.392  1.00  0.00     0.187 HD
HETATM   21  N   UNK N   1      26.166  21.050 -10.295  0.00  0.00    -0.283 N 
HETATM   22  H   UNK N   1      24.445  20.259  -9.445  0.00  0.00     0.188 HD
ATOM     23  HN  UNK N   1      26.225  20.578 -11.197  1.00  0.00     0.188 HD
BRANCH  15  24
HETATM   24  N   UNK N   1      28.179  22.425 -10.510  0.00  0.00    -0.384 N 
HETATM   25  H   UNK N   1      28.110  22.690 -11.456  0.00  0.00     0.157 HD
HETATM   26  H   UNK N   1      29.046  22.478 -10.047  0.00  0.00     0.157 HD
ENDBRANCH  15  24
ENDBRANCH  10  11
BRANCH   9  27
HETATM   27  C   UNK N   1      29.064  23.282  -4.275  0.00  0.00    -0.007 A 
HETATM   28  C   UNK N   1      29.620  23.169  -2.989  0.00  0.00     0.014 A 
HETATM   29  C   UNK N   1      30.603  22.211  -2.714  0.00  0.00     0.001 A 
HETATM   30  C   UNK N   1      31.047  21.353  -3.722  0.00  0.00     0.000 A 
HETATM   31  C   UNK N   1      30.508  21.454  -5.002  0.00  0.00     0.001 A 
HETATM   32  C   UNK N   1      29.528  22.412  -5.265  0.00  0.00     0.014 A 
ENDBRANCH   9  27
TORSDOF 3
ENDMDL
MODEL 3
REMARK VINA RESULT:      -7.7      1.429      1.897
REMARK  3 active torsions:
REMARK  status: ('A' for Active; 'I' for Inactive)
REMARK    1  A    between atoms: C_9  and  C_12 
REMARK    2  A    between atoms: C_10  and  C_11 
REMARK    3  A    between atoms: C_25  and  N_29 
ROOT
HETATM    1  C   UNK N   1      38.669   8.524  11.437  0.00  0.00     0.019 A 
HETATM    2  C   UNK N   1      38.290   8.599  12.785  0.00  0.00     0.116 A 
HETATM    3  N   UNK N   1      37.668   9.722  13.214  0.00  0.00    -0.266 N 
HETATM    4  C   UNK N   1      37.392  10.769  12.426  0.00  0.00     0.070 A 
HETATM    5  C   UNK N   1      37.747  10.753  11.074  0.00  0.00     0.032 A 
HETATM    6  C   UNK N   1      38.396   9.608  10.582  0.00  0.00     0.004 A 
HETATM    7  N   UNK N   1      37.248   9.951  14.446  0.00  0.00    -0.292 N 
ATOM      8  HN  UNK N   1      37.339   9.311  15.235  1.00  0.00     0.187 HD
HETATM    9  C   UNK N   1      36.678  11.180  14.483  0.00  0.00     0.073 A 
HETATM   10  C   UNK N   1      36.753  11.749  13.174  0.00  0.00     0.050 A 
ENDROOT
BRANCH  10  11
HETATM   11  C   UNK N   1      36.298  13.067  12.631  0.00  0.00     0.064 A 
HETATM   12  C   UNK N   1      35.224  13.138  11.742  0.00  0.00     0.051 A 
HETATM   13  C   UNK N   1      34.848  14.372  11.276  0.00  0.00     0.058 A 
HETATM   14  C   UNK N   1      35.493  15.484  11.664  0.00  0.00     0.148 A 
HETATM   15  C   UNK N   1      33.874  14.798  10.423  0.00  0.00     0.127 A 
HETATM   16  N   UNK N   1      36.536  15.436  12.526  0.00  0.00    -0.283 N 
HETATM   17  N   UNK N   1      34.949  16.569  11.080  0.00  0.00    -0.282 N 
HETATM   18  N   UNK N   1      36.929  14.240  12.999  0.00  0.00    -0.298 N 
ATOM     19  HN  UNK N   1      37.016  16.290  12.810  1.00  0.00     0.188 HD
ATOM     20  HN  UNK N   1      37.714  14.197  13.648  1.00  0.00     0.187 HD
HETATM   21  N   UNK N   1      33.946  16.144  10.310  0.00  0.00    -0.283 N 
HETATM   22  H   UNK N   1      35.239  17.502  11.199  0.00  0.00     0.188 HD
ATOM     23  HN  UNK N   1      33.339  16.731   9.738  1.00  0.00     0.188 HD
BRANCH  15  24
HETATM   24  N   UNK N   1      32.934  13.985   9.755  0.00  0.00    -0.384 N 
HETATM   25  H   UNK N   1      33.223  13.143   9.333  0.00  0.00     0.157 HD
HETATM   26  H   UNK N   1      31.991  14.259   9.708  0.00  0.00     0.157 HD
ENDBRANCH  15  24
ENDBRANCH  10  11
BRANCH   9  27
HETATM   27  C   UNK N   1      36.113  11.693  15.775  0.00  0.00    -0.007 A 
HETATM   28  C   UNK N   1      35.662  13.022  15.833  0.00  0.00     0.014 A 
HETATM   29  C   UNK N   1      35.124  13.547  17.015  0.00  0.00     0.001 A 
HETATM   30  C   UNK N   1      35.033  12.751  18.158  0.00  0.00     0.000 A 
HETATM   31  C   UNK N   1      35.478  11.432  18.117  0.00  0.00     0.001 A 
HETATM   32  C   UNK N   1      36.010  10.918  16.934  0.00  0.00     0.014 A 
ENDBRANCH   9  27
TORSDOF 3
ENDMDL
MODEL 4
REMARK VINA RESULT:      -7.6      4.066      8.437
REMARK  3 active torsions:
REMARK  status: ('A' for Active; 'I' for Inactive)
REMARK    1  A    between atoms: C_9  and  C_12 
REMARK    2  A    between atoms: C_10  and  C_11 
REMARK    3  A    between atoms: C_25  and  N_29 
ROOT
HETATM    1  C   UNK N   1      33.599  14.930   3.174  0.00  0.00     0.019 A 
HETATM    2  C   UNK N   1      32.392  15.510   3.593  0.00  0.00     0.116 A 
HETATM    3  N   UNK N   1      32.276  15.880   4.890  0.00  0.00    -0.266 N 
HETATM    4  C   UNK N   1      33.247  15.726   5.800  0.00  0.00     0.070 A 
HETATM    5  C   UNK N   1      34.471  15.153   5.442  0.00  0.00     0.032 A 
HETATM    6  C   UNK N   1      34.639  14.752   4.105  0.00  0.00     0.004 A 
HETATM    7  N   UNK N   1      31.213  16.437   5.443  0.00  0.00    -0.292 N 
ATOM      8  HN  UNK N   1      30.340  16.659   4.964  1.00  0.00     0.187 HD
HETATM    9  C   UNK N   1      31.478  16.660   6.753  0.00  0.00     0.073 A 
HETATM   10  C   UNK N   1      32.806  16.206   7.026  0.00  0.00     0.050 A 
ENDROOT
BRANCH  10  11
HETATM   11  C   UNK N   1      33.618  16.193   8.282  0.00  0.00     0.064 A 
HETATM   12  C   UNK N   1      33.708  15.038   9.061  0.00  0.00     0.051 A 
HETATM   13  C   UNK N   1      34.467  15.082  10.202  0.00  0.00     0.058 A 
HETATM   14  C   UNK N   1      35.110  16.204  10.563  0.00  0.00     0.148 A 
HETATM   15  C   UNK N   1      34.765  14.167  11.168  0.00  0.00     0.127 A 
HETATM   16  N   UNK N   1      35.036  17.334   9.821  0.00  0.00    -0.283 N 
HETATM   17  N   UNK N   1      35.787  16.008  11.710  0.00  0.00    -0.282 N 
HETATM   18  N   UNK N   1      34.298  17.322   8.697  0.00  0.00    -0.298 N 
ATOM     19  HN  UNK N   1      35.530  18.179  10.109  1.00  0.00     0.188 HD
ATOM     20  HN  UNK N   1      34.238  18.170   8.134  1.00  0.00     0.187 HD
HETATM   21  N   UNK N   1      35.573  14.745  12.086  0.00  0.00    -0.283 N 
HETATM   22  H   UNK N   1      36.336  16.673  12.184  0.00  0.00     0.188 HD
ATOM     23  HN  UNK N   1      35.953  14.296  12.919  1.00  0.00     0.188 HD
BRANCH  15  24
HETATM   24  N   UNK N   1      34.315  12.832  11.223  0.00  0.00    -0.384 N 
HETATM   25  H   UNK N   1      33.599  12.579  11.851  0.00  0.00     0.157 HD
HETATM   26  H   UNK N   1      34.715  12.152  10.635  0.00  0.00     0.157 HD
ENDBRANCH  15  24
ENDBRANCH  10  11
BRANCH   9  27
HETATM   27  C   UNK N   1      30.429  17.291   7.622  0.00  0.00    -0.007 A 
HETATM   28  C   UNK N   1      29.077  17.110   7.285  0.00  0.00     0.014 A 
HETATM   29  C   UNK N   1      28.061  17.676   8.065  0.00  0.00     0.001 A 
HETATM   30  C   UNK N   1      28.383  18.433   9.193  0.00  0.00     0.000 A 
HETATM   31  C   UNK N   1      29.719  18.624   9.539  0.00  0.00     0.001 A 
HETATM   32  C   UNK N   1      30.723  18.054   8.756  0.00  0.00     0.014 A 
ENDBRANCH   9  27
TORSDOF 3
ENDMDL
MODEL 5
REMARK VINA RESULT:      -7.6      7.304     11.601
REMARK  3 active torsions:
REMARK  status: ('A' for Active; 'I' for Inactive)
REMARK    1  A    between atoms: C_9  and  C_12 
REMARK    2  A    between atoms: C_10  and  C_11 
REMARK    3  A    between atoms: C_25  and  N_29 
ROOT
HETATM    1  C   UNK N   1      28.445  13.698   1.707  0.00  0.00     0.019 A 
HETATM    2  C   UNK N   1      27.636  14.778   2.092  0.00  0.00     0.116 A 
HETATM    3  N   UNK N   1      28.152  15.691   2.948  0.00  0.00    -0.266 N 
HETATM    4  C   UNK N   1      29.391  15.625   3.451  0.00  0.00     0.070 A 
HETATM    5  C   UNK N   1      30.243  14.572   3.105  0.00  0.00     0.032 A 
HETATM    6  C   UNK N   1      29.752  13.599   2.218  0.00  0.00     0.004 A 
HETATM    7  N   UNK N   1      27.525  16.760   3.407  0.00  0.00    -0.292 N 
ATOM      8  HN  UNK N   1      26.571  17.036   3.177  1.00  0.00     0.187 HD
HETATM    9  C   UNK N   1      28.366  17.426   4.236  0.00  0.00     0.073 A 
HETATM   10  C   UNK N   1      29.602  16.711   4.291  0.00  0.00     0.050 A 
ENDROOT
BRANCH  10  11
HETATM   11  C   UNK N   1      30.873  16.969   5.038  0.00  0.00     0.064 A 
HETATM   12  C   UNK N   1      30.965  16.688   6.403  0.00  0.00     0.051 A 
HETATM   13  C   UNK N   1      32.153  16.943   7.038  0.00  0.00     0.058 A 
HETATM   14  C   UNK N   1      33.203  17.447   6.369  0.00  0.00     0.148 A 
HETATM   15  C   UNK N   1      32.583  16.794   8.323  0.00  0.00     0.127 A 
HETATM   16  N   UNK N   1      33.133  17.725   5.045  0.00  0.00    -0.283 N 
HETATM   17  N   UNK N   1      34.252  17.611   7.196  0.00  0.00    -0.282 N 
HETATM   18  N   UNK N   1      31.979  17.487   4.395  0.00  0.00    -0.298 N 
ATOM     19  HN  UNK N   1      33.938  18.109   4.551  1.00  0.00     0.188 HD
ATOM     20  HN  UNK N   1      31.920  17.694   3.398  1.00  0.00     0.187 HD
HETATM   21  N   UNK N   1      33.868  17.207   8.408  0.00  0.00    -0.283 N 
HETATM   22  H   UNK N   1      35.138  17.965   6.951  0.00  0.00     0.188 HD
ATOM     23  HN  UNK N   1      34.444  17.208   9.250  1.00  0.00     0.188 HD
BRANCH  15  24
HETATM   24  N   UNK N   1      31.827  16.296   9.405  0.00  0.00    -0.384 N 
HETATM   25  H   UNK N   1      31.283  16.910   9.950  0.00  0.00     0.157 HD
HETATM   26  H   UNK N   1      31.843  15.335   9.616  0.00  0.00     0.157 HD
ENDBRANCH  15  24
ENDBRANCH  10  11
BRANCH   9  27
HETATM   27  C   UNK N   1      27.901  18.689   4.900  0.00  0.00    -0.007 A 
HETATM   28  C   UNK N   1      27.329  19.697   4.106  0.00  0.00     0.014 A 
HETATM   29  C   UNK N   1      26.878  20.893   4.678  0.00  0.00     0.001 A 
HETATM   30  C   UNK N   1      26.995  21.099   6.054  0.00  0.00     0.000 A 
HETATM   31  C   UNK N   1      27.562  20.111   6.854  0.00  0.00     0.001 A 
HETATM   32  C   UNK N   1      28.007  18.923   6.274  0.00  0.00     0.014 A 
ENDBRANCH   9  27
TORSDOF 3
ENDMDL
MODEL 6
REMARK VINA RESULT:      -7.5     19.262     23.230
REMARK  3 active torsions:
REMARK  status: ('A' for Active; 'I' for Inactive)
REMARK    1  A    between atoms: C_9  and  C_12 
REMARK    2  A    between atoms: C_10  and  C_11 
REMARK    3  A    between atoms: C_25  and  N_29 
ROOT
HETATM    1  C   UNK N   1      25.557  28.295  -4.251  0.00  0.00     0.019 A 
HETATM    2  C   UNK N   1      25.104  27.360  -5.193  0.00  0.00     0.116 A 
HETATM    3  N   UNK N   1      25.758  26.179  -5.288  0.00  0.00    -0.266 N 
HETATM    4  C   UNK N   1      26.813  25.847  -4.534  0.00  0.00     0.070 A 
HETATM    5  C   UNK N   1      27.310  26.738  -3.578  0.00  0.00     0.032 A 
HETATM    6  C   UNK N   1      26.664  27.979  -3.442  0.00  0.00     0.004 A 
HETATM    7  N   UNK N   1      25.461  25.196  -6.120  0.00  0.00    -0.292 N 
ATOM      8  HN  UNK N   1      24.700  25.200  -6.800  1.00  0.00     0.187 HD
HETATM    9  C   UNK N   1      26.338  24.183  -5.917  0.00  0.00     0.073 A 
HETATM   10  C   UNK N   1      27.243  24.574  -4.882  0.00  0.00     0.050 A 
ENDROOT
BRANCH  10  11
HETATM   11  C   UNK N   1      28.406  23.871  -4.254  0.00  0.00     0.064 A 
HETATM   12  C   UNK N   1      29.530  23.538  -5.013  0.00  0.00     0.051 A 
HETATM   13  C   UNK N   1      30.567  22.896  -4.387  0.00  0.00     0.058 A 
HETATM   14  C   UNK N   1      30.507  22.595  -3.079  0.00  0.00     0.148 A 
HETATM   15  C   UNK N   1      31.779  22.435  -4.808  0.00  0.00     0.127 A 
HETATM   16  N   UNK N   1      29.426  22.911  -2.327  0.00  0.00    -0.283 N 
HETATM   17  N   UNK N   1      31.635  21.970  -2.690  0.00  0.00    -0.282 N 
HETATM   18  N   UNK N   1      28.393  23.540  -2.914  0.00  0.00    -0.298 N 
ATOM     19  HN  UNK N   1      29.396  22.675  -1.335  1.00  0.00     0.188 HD
ATOM     20  HN  UNK N   1      27.576  23.780  -2.353  1.00  0.00     0.187 HD
HETATM   21  N   UNK N   1      32.423  21.871  -3.762  0.00  0.00    -0.283 N 
HETATM   22  H   UNK N   1      31.838  21.647  -1.783  0.00  0.00     0.188 HD
ATOM     23  HN  UNK N   1      33.349  21.445  -3.786  1.00  0.00     0.188 HD
BRANCH  15  24
HETATM   24  N   UNK N   1      32.296  22.521  -6.118  0.00  0.00    -0.384 N 
HETATM   25  H   UNK N   1      31.917  21.963  -6.835  0.00  0.00     0.157 HD
HETATM   26  H   UNK N   1      33.037  23.138  -6.315  0.00  0.00     0.157 HD
ENDBRANCH  15  24
ENDBRANCH  10  11
BRANCH   9  27
HETATM   27  C   UNK N   1      26.225  22.932  -6.738  0.00  0.00    -0.007 A 
HETATM   28  C   UNK N   1      25.011  22.223  -6.723  0.00  0.00     0.014 A 
HETATM   29  C   UNK N   1      24.855  21.052  -7.475  0.00  0.00     0.001 A 
HETATM   30  C   UNK N   1      25.911  20.570  -8.250  0.00  0.00     0.000 A 
HETATM   31  C   UNK N   1      27.121  21.259  -8.273  0.00  0.00     0.001 A 
HETATM   32  C   UNK N   1      27.266  22.426  -7.522  0.00  0.00     0.014 A 
ENDBRANCH   9  27
TORSDOF 3
ENDMDL
MODEL 7
REMARK VINA RESULT:      -7.3      2.479      3.713
REMARK  3 active torsions:
REMARK  status: ('A' for Active; 'I' for Inactive)
REMARK    1  A    between atoms: C_9  and  C_12 
REMARK    2  A    between atoms: C_10  and  C_11 
REMARK    3  A    between atoms: C_25  and  N_29 
ROOT
HETATM    1  C   UNK N   1      39.666  12.686   8.197  0.00  0.00     0.019 A 
HETATM    2  C   UNK N   1      39.480  12.388   9.555  0.00  0.00     0.116 A 
HETATM    3  N   UNK N   1      38.326  12.778  10.144  0.00  0.00    -0.266 N 
HETATM    4  C   UNK N   1      37.347  13.434   9.507  0.00  0.00     0.070 A 
HETATM    5  C   UNK N   1      37.476  13.760   8.153  0.00  0.00     0.032 A 
HETATM    6  C   UNK N   1      38.658  13.375   7.497  0.00  0.00     0.004 A 
HETATM    7  N   UNK N   1      37.997  12.577  11.408  0.00  0.00    -0.292 N 
ATOM      8  HN  UNK N   1      38.570  12.101  12.104  1.00  0.00     0.187 HD
HETATM    9  C   UNK N   1      36.769  13.110  11.621  0.00  0.00     0.073 A 
HETATM   10  C   UNK N   1      36.309  13.683  10.395  0.00  0.00     0.050 A 
ENDROOT
BRANCH  10  11
HETATM   11  C   UNK N   1      35.047  14.403  10.041  0.00  0.00     0.064 A 
HETATM   12  C   UNK N   1      35.086  15.705   9.537  0.00  0.00     0.051 A 
HETATM   13  C   UNK N   1      33.899  16.317   9.228  0.00  0.00     0.058 A 
HETATM   14  C   UNK N   1      32.727  15.684   9.402  0.00  0.00     0.148 A 
HETATM   15  C   UNK N   1      33.576  17.545   8.732  0.00  0.00     0.127 A 
HETATM   16  N   UNK N   1      32.668  14.421   9.889  0.00  0.00    -0.283 N 
HETATM   17  N   UNK N   1      31.706  16.479   9.032  0.00  0.00    -0.282 N 
HETATM   18  N   UNK N   1      33.817  13.795  10.202  0.00  0.00    -0.298 N 
ATOM     19  HN  UNK N   1      31.771  13.955  10.016  1.00  0.00     0.188 HD
ATOM     20  HN  UNK N   1      33.779  12.845  10.569  1.00  0.00     0.187 HD
HETATM   21  N   UNK N   1      32.231  17.633   8.617  0.00  0.00    -0.283 N 
HETATM   22  H   UNK N   1      30.748  16.250   9.063  0.00  0.00     0.188 HD
ATOM     23  HN  UNK N   1      31.710  18.439   8.272  1.00  0.00     0.188 HD
BRANCH  15  24
HETATM   24  N   UNK N   1      34.479  18.572   8.389  0.00  0.00    -0.384 N 
HETATM   25  H   UNK N   1      34.211  19.516   8.482  0.00  0.00     0.157 HD
HETATM   26  H   UNK N   1      35.378  18.347   8.057  0.00  0.00     0.157 HD
ENDBRANCH  15  24
ENDBRANCH  10  11
BRANCH   9  27
HETATM   27  C   UNK N   1      36.151  13.020  12.986  0.00  0.00    -0.007 A 
HETATM   28  C   UNK N   1      35.109  12.101  13.194  0.00  0.00     0.014 A 
HETATM   29  C   UNK N   1      34.502  11.977  14.450  0.00  0.00     0.001 A 
HETATM   30  C   UNK N   1      34.927  12.773  15.516  0.00  0.00     0.000 A 
HETATM   31  C   UNK N   1      35.957  13.690  15.324  0.00  0.00     0.001 A 
HETATM   32  C   UNK N   1      36.556  13.805  14.070  0.00  0.00     0.014 A 
ENDBRANCH   9  27
TORSDOF 3
ENDMDL
MODEL 8
REMARK VINA RESULT:      -7.3     12.534     15.929
REMARK  3 active torsions:
REMARK  status: ('A' for Active; 'I' for Inactive)
REMARK    1  A    between atoms: C_9  and  C_12 
REMARK    2  A    between atoms: C_10  and  C_11 
REMARK    3  A    between atoms: C_25  and  N_29 
ROOT
HETATM    1  C   UNK N   1      24.208  13.477   7.737  0.00  0.00     0.019 A 
HETATM    2  C   UNK N   1      25.195  14.404   7.370  0.00  0.00     0.116 A 
HETATM    3  N   UNK N   1      24.851  15.407   6.528  0.00  0.00    -0.266 N 
HETATM    4  C   UNK N   1      23.621  15.568   6.023  0.00  0.00     0.070 A 
HETATM    5  C   UNK N   1      22.596  14.675   6.351  0.00  0.00     0.032 A 
HETATM    6  C   UNK N   1      22.905  13.617   7.223  0.00  0.00     0.004 A 
HETATM    7  N   UNK N   1      25.656  16.356   6.087  0.00  0.00    -0.292 N 
ATOM      8  HN  UNK N   1      26.644  16.457   6.322  1.00  0.00     0.187 HD
HETATM    9  C   UNK N   1      24.949  17.172   5.267  0.00  0.00     0.073 A 
HETATM   10  C   UNK N   1      23.606  16.686   5.200  0.00  0.00     0.050 A 
ENDROOT
BRANCH  10  11
HETATM   11  C   UNK N   1      22.404  17.174   4.456  0.00  0.00     0.064 A 
HETATM   12  C   UNK N   1      21.949  16.503   3.319  0.00  0.00     0.051 A 
HETATM   13  C   UNK N   1      20.841  16.993   2.676  0.00  0.00     0.058 A 
HETATM   14  C   UNK N   1      20.208  18.089   3.126  0.00  0.00     0.148 A 
HETATM   15  C   UNK N   1      20.145  16.602   1.572  0.00  0.00     0.127 A 
HETATM   16  N   UNK N   1      20.633  18.753   4.227  0.00  0.00    -0.283 N 
HETATM   17  N   UNK N   1      19.155  18.378   2.338  0.00  0.00    -0.282 N 
HETATM   18  N   UNK N   1      21.718  18.297   4.878  0.00  0.00    -0.298 N 
ATOM     19  HN  UNK N   1      20.142  19.584   4.555  1.00  0.00     0.188 HD
ATOM     20  HN  UNK N   1      22.044  18.793   5.707  1.00  0.00     0.187 HD
HETATM   21  N   UNK N   1      19.116  17.457   1.374  0.00  0.00    -0.283 N 
HETATM   22  H   UNK N   1      18.531  19.131   2.453  0.00  0.00     0.188 HD
ATOM     23  HN  UNK N   1      18.430  17.406   0.621  1.00  0.00     0.188 HD
BRANCH  15  24
HETATM   24  N   UNK N   1      20.434  15.491   0.752  0.00  0.00    -0.384 N 
HETATM   25  H   UNK N   1      20.442  15.590  -0.228  0.00  0.00     0.157 HD
HETATM   26  H   UNK N   1      20.628  14.616   1.158  0.00  0.00     0.157 HD
ENDBRANCH  15  24
ENDBRANCH  10  11
BRANCH   9  27
HETATM   27  C   UNK N   1      25.631  18.345   4.624  0.00  0.00    -0.007 A 
HETATM   28  C   UNK N   1      24.950  19.051   3.618  0.00  0.00     0.014 A 
HETATM   29  C   UNK N   1      25.542  20.154   2.989  0.00  0.00     0.001 A 
HETATM   30  C   UNK N   1      26.826  20.563   3.356  0.00  0.00     0.000 A 
HETATM   31  C   UNK N   1      27.514  19.871   4.349  0.00  0.00     0.001 A 
HETATM   32  C   UNK N   1      26.915  18.776   4.970  0.00  0.00     0.014 A 
ENDBRANCH   9  27
TORSDOF 3
ENDMDL
MODEL 9
REMARK VINA RESULT:      -7.2      8.604     12.818
REMARK  3 active torsions:
REMARK  status: ('A' for Active; 'I' for Inactive)
REMARK    1  A    between atoms: C_9  and  C_12 
REMARK    2  A    between atoms: C_10  and  C_11 
REMARK    3  A    between atoms: C_25  and  N_29 
ROOT
HETATM    1  C   UNK N   1      23.374  13.695   7.408  0.00  0.00     0.019 A 
HETATM    2  C   UNK N   1      23.165  14.779   6.542  0.00  0.00     0.116 A 
HETATM    3  N   UNK N   1      24.218  15.578   6.250  0.00  0.00    -0.266 N 
HETATM    4  C   UNK N   1      25.451  15.396   6.739  0.00  0.00     0.070 A 
HETATM    5  C   UNK N   1      25.721  14.334   7.608  0.00  0.00     0.032 A 
HETATM    6  C   UNK N   1      24.659  13.476   7.941  0.00  0.00     0.004 A 
HETATM    7  N   UNK N   1      24.189  16.634   5.456  0.00  0.00    -0.292 N 
ATOM      8  HN  UNK N   1      23.369  16.985   4.961  1.00  0.00     0.187 HD
HETATM    9  C   UNK N   1      25.433  17.172   5.413  0.00  0.00     0.073 A 
HETATM   10  C   UNK N   1      26.290  16.385   6.244  0.00  0.00     0.050 A 
ENDROOT
BRANCH  10  11
HETATM   11  C   UNK N   1      27.743  16.508   6.578  0.00  0.00     0.064 A 
HETATM   12  C   UNK N   1      28.158  17.221   7.705  0.00  0.00     0.051 A 
HETATM   13  C   UNK N   1      29.501  17.300   7.965  0.00  0.00     0.058 A 
HETATM   14  C   UNK N   1      30.399  16.709   7.159  0.00  0.00     0.148 A 
HETATM   15  C   UNK N   1      30.235  17.897   8.946  0.00  0.00     0.127 A 
HETATM   16  N   UNK N   1      30.017  16.013   6.062  0.00  0.00    -0.283 N 
HETATM   17  N   UNK N   1      31.648  16.923   7.612  0.00  0.00    -0.282 N 
HETATM   18  N   UNK N   1      28.705  15.918   5.781  0.00  0.00    -0.298 N 
ATOM     19  HN  UNK N   1      30.710  15.570   5.459  1.00  0.00     0.188 HD
ATOM     20  HN  UNK N   1      28.411  15.396   4.956  1.00  0.00     0.187 HD
HETATM   21  N   UNK N   1      31.548  17.659   8.720  0.00  0.00    -0.283 N 
HETATM   22  H   UNK N   1      32.481  16.596   7.201  0.00  0.00     0.188 HD
ATOM     23  HN  UNK N   1      32.324  17.985   9.295  1.00  0.00     0.188 HD
BRANCH  15  24
HETATM   24  N   UNK N   1      29.731  18.646  10.030  0.00  0.00    -0.384 N 
HETATM   25  H   UNK N   1      28.960  18.310  10.544  0.00  0.00     0.157 HD
HETATM   26  H   UNK N   1      30.147  19.503  10.272  0.00  0.00     0.157 HD
ENDBRANCH  15  24
ENDBRANCH  10  11
BRANCH   9  27
HETATM   27  C   UNK N   1      25.681  18.393   4.577  0.00  0.00    -0.007 A 
HETATM   28  C   UNK N   1      26.978  18.932   4.539  0.00  0.00     0.014 A 
HETATM   29  C   UNK N   1      27.261  20.068   3.772  0.00  0.00     0.001 A 
HETATM   30  C   UNK N   1      26.250  20.685   3.033  0.00  0.00     0.000 A 
HETATM   31  C   UNK N   1      24.958  20.164   3.062  0.00  0.00     0.001 A 
HETATM   32  C   UNK N   1      24.688  19.030   3.828  0.00  0.00     0.014 A 
ENDBRANCH   9  27
TORSDOF 3
ENDMDL
