MODEL 1
REMARK VINA RESULT:      -6.9      0.000      0.000
REMARK  5 active torsions:
REMARK  status: ('A' for Active; 'I' for Inactive)
REMARK    1  A    between atoms: C_6  and  O_21 
REMARK    2  A    between atoms: C_8  and  O_20 
REMARK    3  A    between atoms: C_9  and  C_10 
REMARK    4  A    between atoms: C_13  and  O_19 
REMARK    5  A    between atoms: C_14  and  O_18 
ROOT
HETATM    1  C   UNK N   1      30.698  17.404   8.789  0.00  0.00     0.037 A 
HETATM    2  C   UNK N   1      30.670  17.059   7.434  0.00  0.00     0.021 A 
HETATM    3  C   UNK N   1      29.644  17.541   6.610  0.00  0.00     0.051 A 
HETATM    4  C   UNK N   1      28.645  18.373   7.156  0.00  0.00     0.093 A 
HETATM    5  C   UNK N   1      28.681  18.712   8.509  0.00  0.00     0.074 A 
HETATM    6  C   UNK N   1      29.704  18.230   9.324  0.00  0.00     0.068 A 
HETATM    7  C   UNK N   1      29.577  17.221   5.249  0.00  0.00     0.220 A 
HETATM    8  C   UNK N   1      28.530  17.731   4.477  0.00  0.00     0.152 A 
HETATM    9  C   UNK N   1      27.561  18.562   5.095  0.00  0.00     0.123 A 
HETATM   10  O   UNK N   1      27.667  18.838   6.394  0.00  0.00    -0.306 OA
HETATM   11  O   UNK N   1      30.423  16.503   4.738  0.00  0.00    -0.284 OA
ENDROOT
BRANCH   9  12
HETATM   12  C   UNK N   1      26.415  19.150   4.363  0.00  0.00     0.004 A 
HETATM   13  C   UNK N   1      26.647  20.215   3.478  0.00  0.00     0.017 A 
HETATM   14  C   UNK N   1      25.590  20.792   2.772  0.00  0.00     0.040 A 
HETATM   15  C   UNK N   1      24.291  20.311   2.943  0.00  0.00     0.098 A 
HETATM   16  C   UNK N   1      24.050  19.249   3.824  0.00  0.00     0.099 A 
HETATM   17  C   UNK N   1      25.108  18.675   4.527  0.00  0.00     0.053 A 
BRANCH  15  18
HETATM   18  O   UNK N   1      23.277  20.870   2.262  0.00  0.00    -0.358 OA
HETATM   19  H   UNK N   1      23.449  21.551   1.641  0.00  0.00     0.217 HD
ENDBRANCH  15  18
BRANCH  16  20
HETATM   20  O   UNK N   1      22.805  18.777   3.999  0.00  0.00    -0.358 OA
HETATM   21  H   UNK N   1      22.654  17.853   4.035  0.00  0.00     0.217 HD
ENDBRANCH  16  20
ENDBRANCH   9  12
BRANCH   8  22
HETATM   22  O   UNK N   1      28.462  17.425   3.167  0.00  0.00    -0.355 OA
HETATM   23  H   UNK N   1      28.218  16.561   2.899  0.00  0.00     0.218 HD
ENDBRANCH   8  22
BRANCH   6  24
HETATM   24  O   UNK N   1      29.732  18.561  10.625  0.00  0.00    -0.361 OA
HETATM   25  H   UNK N   1      28.981  18.409  11.164  0.00  0.00     0.217 HD
ENDBRANCH   6  24
TORSDOF 5
ENDMDL
MODEL 2
REMARK VINA RESULT:      -6.9      2.842      7.694
REMARK  5 active torsions:
REMARK  status: ('A' for Active; 'I' for Inactive)
REMARK    1  A    between atoms: C_6  and  O_21 
REMARK    2  A    between atoms: C_8  and  O_20 
REMARK    3  A    between atoms: C_9  and  C_10 
REMARK    4  A    between atoms: C_13  and  O_19 
REMARK    5  A    between atoms: C_14  and  O_18 
ROOT
HETATM    1  C   UNK N   1      27.177  17.562   4.080  0.00  0.00     0.037 A 
HETATM    2  C   UNK N   1      28.371  16.954   3.680  0.00  0.00     0.021 A 
HETATM    3  C   UNK N   1      29.473  16.935   4.546  0.00  0.00     0.051 A 
HETATM    4  C   UNK N   1      29.368  17.531   5.819  0.00  0.00     0.093 A 
HETATM    5  C   UNK N   1      28.172  18.137   6.211  0.00  0.00     0.074 A 
HETATM    6  C   UNK N   1      27.080  18.153   5.344  0.00  0.00     0.068 A 
HETATM    7  C   UNK N   1      30.686  16.337   4.186  0.00  0.00     0.220 A 
HETATM    8  C   UNK N   1      31.750  16.349   5.093  0.00  0.00     0.152 A 
HETATM    9  C   UNK N   1      31.570  16.968   6.356  0.00  0.00     0.123 A 
HETATM   10  O   UNK N   1      30.397  17.524   6.653  0.00  0.00    -0.306 OA
HETATM   11  O   UNK N   1      30.818  15.809   3.093  0.00  0.00    -0.284 OA
ENDROOT
BRANCH   9  12
HETATM   12  C   UNK N   1      32.636  17.033   7.383  0.00  0.00     0.004 A 
HETATM   13  C   UNK N   1      32.771  15.972   8.292  0.00  0.00     0.017 A 
HETATM   14  C   UNK N   1      33.764  16.001   9.273  0.00  0.00     0.040 A 
HETATM   15  C   UNK N   1      34.633  17.091   9.355  0.00  0.00     0.098 A 
HETATM   16  C   UNK N   1      34.506  18.154   8.452  0.00  0.00     0.099 A 
HETATM   17  C   UNK N   1      33.512  18.122   7.474  0.00  0.00     0.053 A 
BRANCH  15  18
HETATM   18  O   UNK N   1      35.586  17.114  10.299  0.00  0.00    -0.358 OA
HETATM   19  H   UNK N   1      35.358  16.990  11.200  0.00  0.00     0.217 HD
ENDBRANCH  15  18
BRANCH  16  20
HETATM   20  O   UNK N   1      35.334  19.209   8.519  0.00  0.00    -0.358 OA
HETATM   21  H   UNK N   1      35.651  19.608   7.734  0.00  0.00     0.217 HD
ENDBRANCH  16  20
ENDBRANCH   9  12
BRANCH   8  22
HETATM   22  O   UNK N   1      32.918  15.775   4.750  0.00  0.00    -0.355 OA
HETATM   23  H   UNK N   1      33.339  16.009   3.947  0.00  0.00     0.218 HD
ENDBRANCH   8  22
BRANCH   6  24
HETATM   24  O   UNK N   1      25.934  18.737   5.728  0.00  0.00    -0.361 OA
HETATM   25  H   UNK N   1      25.513  18.469   6.521  0.00  0.00     0.217 HD
ENDBRANCH   6  24
TORSDOF 5
ENDMDL
MODEL 3
REMARK VINA RESULT:      -6.8      6.552      7.864
REMARK  5 active torsions:
REMARK  status: ('A' for Active; 'I' for Inactive)
REMARK    1  A    between atoms: C_6  and  O_21 
REMARK    2  A    between atoms: C_8  and  O_20 
REMARK    3  A    between atoms: C_9  and  C_10 
REMARK    4  A    between atoms: C_13  and  O_19 
REMARK    5  A    between atoms: C_14  and  O_18 
ROOT
HETATM    1  C   UNK N   1      22.897  11.911  11.569  0.00  0.00     0.037 A 
HETATM    2  C   UNK N   1      21.686  12.451  11.125  0.00  0.00     0.021 A 
HETATM    3  C   UNK N   1      21.667  13.317  10.023  0.00  0.00     0.051 A 
HETATM    4  C   UNK N   1      22.875  13.638   9.370  0.00  0.00     0.093 A 
HETATM    5  C   UNK N   1      24.079  13.095   9.820  0.00  0.00     0.074 A 
HETATM    6  C   UNK N   1      24.091  12.234  10.917  0.00  0.00     0.068 A 
HETATM    7  C   UNK N   1      20.478  13.879   9.545  0.00  0.00     0.220 A 
HETATM    8  C   UNK N   1      20.523  14.737   8.442  0.00  0.00     0.152 A 
HETATM    9  C   UNK N   1      21.774  15.014   7.836  0.00  0.00     0.123 A 
HETATM   10  O   UNK N   1      22.879  14.455   8.327  0.00  0.00    -0.306 OA
HETATM   11  O   UNK N   1      19.412  13.626  10.082  0.00  0.00    -0.284 OA
ENDROOT
BRANCH   9  12
HETATM   12  C   UNK N   1      21.924  15.909   6.664  0.00  0.00     0.004 A 
HETATM   13  C   UNK N   1      22.581  15.429   5.521  0.00  0.00     0.017 A 
HETATM   14  C   UNK N   1      22.740  16.245   4.400  0.00  0.00     0.040 A 
HETATM   15  C   UNK N   1      22.244  17.550   4.410  0.00  0.00     0.098 A 
HETATM   16  C   UNK N   1      21.587  18.038   5.547  0.00  0.00     0.099 A 
HETATM   17  C   UNK N   1      21.430  17.219   6.665  0.00  0.00     0.053 A 
BRANCH  15  18
HETATM   18  O   UNK N   1      22.399  18.332   3.330  0.00  0.00    -0.358 OA
HETATM   19  H   UNK N   1      22.234  19.252   3.389  0.00  0.00     0.217 HD
ENDBRANCH  15  18
BRANCH  16  20
HETATM   20  O   UNK N   1      21.104  19.291   5.571  0.00  0.00    -0.358 OA
HETATM   21  H   UNK N   1      20.451  19.555   4.954  0.00  0.00     0.217 HD
ENDBRANCH  16  20
ENDBRANCH   9  12
BRANCH   8  22
HETATM   22  O   UNK N   1      19.380  15.280   7.979  0.00  0.00    -0.355 OA
HETATM   23  H   UNK N   1      19.268  15.424   7.060  0.00  0.00     0.218 HD
ENDBRANCH   8  22
BRANCH   6  24
HETATM   24  O   UNK N   1      25.253  11.716  11.344  0.00  0.00    -0.361 OA
HETATM   25  H   UNK N   1      25.697  11.071  10.829  0.00  0.00     0.217 HD
ENDBRANCH   6  24
TORSDOF 5
ENDMDL
MODEL 4
REMARK VINA RESULT:      -6.8      5.691      7.018
REMARK  5 active torsions:
REMARK  status: ('A' for Active; 'I' for Inactive)
REMARK    1  A    between atoms: C_6  and  O_21 
REMARK    2  A    between atoms: C_8  and  O_20 
REMARK    3  A    between atoms: C_9  and  C_10 
REMARK    4  A    between atoms: C_13  and  O_19 
REMARK    5  A    between atoms: C_14  and  O_18 
ROOT
HETATM    1  C   UNK N   1      21.023  14.679   8.932  0.00  0.00     0.037 A 
HETATM    2  C   UNK N   1      22.087  14.806   8.034  0.00  0.00     0.021 A 
HETATM    3  C   UNK N   1      21.968  15.648   6.920  0.00  0.00     0.051 A 
HETATM    4  C   UNK N   1      20.771  16.364   6.714  0.00  0.00     0.093 A 
HETATM    5  C   UNK N   1      19.714  16.232   7.616  0.00  0.00     0.074 A 
HETATM    6  C   UNK N   1      19.839  15.393   8.723  0.00  0.00     0.068 A 
HETATM    7  C   UNK N   1      23.007  15.804   5.996  0.00  0.00     0.220 A 
HETATM    8  C   UNK N   1      22.829  16.659   4.904  0.00  0.00     0.152 A 
HETATM    9  C   UNK N   1      21.597  17.346   4.763  0.00  0.00     0.123 A 
HETATM   10  O   UNK N   1      20.638  17.165   5.669  0.00  0.00    -0.306 OA
HETATM   11  O   UNK N   1      24.060  15.202   6.138  0.00  0.00    -0.284 OA
ENDROOT
BRANCH   9  12
HETATM   12  C   UNK N   1      21.313  18.273   3.642  0.00  0.00     0.004 A 
HETATM   13  C   UNK N   1      20.621  17.792   2.520  0.00  0.00     0.017 A 
HETATM   14  C   UNK N   1      20.336  18.638   1.446  0.00  0.00     0.040 A 
HETATM   15  C   UNK N   1      20.741  19.973   1.483  0.00  0.00     0.098 A 
HETATM   16  C   UNK N   1      21.433  20.462   2.599  0.00  0.00     0.099 A 
HETATM   17  C   UNK N   1      21.715  19.614   3.669  0.00  0.00     0.053 A 
BRANCH  15  18
HETATM   18  O   UNK N   1      20.466  20.783   0.449  0.00  0.00    -0.358 OA
HETATM   19  H   UNK N   1      19.679  21.293   0.448  0.00  0.00     0.217 HD
ENDBRANCH  15  18
BRANCH  16  20
HETATM   20  O   UNK N   1      21.829  21.745   2.649  0.00  0.00    -0.358 OA
HETATM   21  H   UNK N   1      21.211  22.433   2.498  0.00  0.00     0.217 HD
ENDBRANCH  16  20
ENDBRANCH   9  12
BRANCH   8  22
HETATM   22  O   UNK N   1      23.827  16.811   4.013  0.00  0.00    -0.355 OA
HETATM   23  H   UNK N   1      23.845  16.291   3.235  0.00  0.00     0.218 HD
ENDBRANCH   8  22
BRANCH   6  24
HETATM   24  O   UNK N   1      18.818  15.271   9.586  0.00  0.00    -0.361 OA
HETATM   25  H   UNK N   1      18.433  14.431   9.742  0.00  0.00     0.217 HD
ENDBRANCH   6  24
TORSDOF 5
ENDMDL
MODEL 5
REMARK VINA RESULT:      -6.8      6.285     10.971
REMARK  5 active torsions:
REMARK  status: ('A' for Active; 'I' for Inactive)
REMARK    1  A    between atoms: C_6  and  O_21 
REMARK    2  A    between atoms: C_8  and  O_20 
REMARK    3  A    between atoms: C_9  and  C_10 
REMARK    4  A    between atoms: C_13  and  O_19 
REMARK    5  A    between atoms: C_14  and  O_18 
ROOT
HETATM    1  C   UNK N   1      32.428  16.823   5.225  0.00  0.00     0.037 A 
HETATM    2  C   UNK N   1      33.088  17.580   6.198  0.00  0.00     0.021 A 
HETATM    3  C   UNK N   1      33.716  16.941   7.276  0.00  0.00     0.051 A 
HETATM    4  C   UNK N   1      33.677  15.535   7.370  0.00  0.00     0.093 A 
HETATM    5  C   UNK N   1      33.016  14.787   6.395  0.00  0.00     0.074 A 
HETATM    6  C   UNK N   1      32.393  15.428   5.325  0.00  0.00     0.068 A 
HETATM    7  C   UNK N   1      34.388  17.660   8.271  0.00  0.00     0.220 A 
HETATM    8  C   UNK N   1      34.996  16.968   9.322  0.00  0.00     0.152 A 
HETATM    9  C   UNK N   1      34.915  15.553   9.351  0.00  0.00     0.123 A 
HETATM   10  O   UNK N   1      34.265  14.913   8.381  0.00  0.00    -0.306 OA
HETATM   11  O   UNK N   1      34.444  18.879   8.226  0.00  0.00    -0.284 OA
ENDROOT
BRANCH   9  12
HETATM   12  C   UNK N   1      35.526  14.730  10.421  0.00  0.00     0.004 A 
HETATM   13  C   UNK N   1      36.805  14.189  10.219  0.00  0.00     0.017 A 
HETATM   14  C   UNK N   1      37.410  13.410  11.206  0.00  0.00     0.040 A 
HETATM   15  C   UNK N   1      36.742  13.163  12.407  0.00  0.00     0.098 A 
HETATM   16  C   UNK N   1      35.465  13.698  12.619  0.00  0.00     0.099 A 
HETATM   17  C   UNK N   1      34.865  14.476  11.630  0.00  0.00     0.053 A 
BRANCH  15  18
HETATM   18  O   UNK N   1      37.328  12.413  13.354  0.00  0.00    -0.358 OA
HETATM   19  H   UNK N   1      38.026  11.830  13.126  0.00  0.00     0.217 HD
ENDBRANCH  15  18
BRANCH  16  20
HETATM   20  O   UNK N   1      34.811  13.469  13.769  0.00  0.00    -0.358 OA
HETATM   21  H   UNK N   1      35.227  13.646  14.589  0.00  0.00     0.217 HD
ENDBRANCH  16  20
ENDBRANCH   9  12
BRANCH   8  22
HETATM   22  O   UNK N   1      35.643  17.656  10.282  0.00  0.00    -0.355 OA
HETATM   23  H   UNK N   1      36.313  17.240  10.786  0.00  0.00     0.218 HD
ENDBRANCH   8  22
BRANCH   6  24
HETATM   24  O   UNK N   1      31.759  14.702   4.391  0.00  0.00    -0.361 OA
HETATM   25  H   UNK N   1      31.932  13.784   4.312  0.00  0.00     0.217 HD
ENDBRANCH   6  24
TORSDOF 5
ENDMDL
MODEL 6
REMARK VINA RESULT:      -6.8     10.367     13.303
REMARK  5 active torsions:
REMARK  status: ('A' for Active; 'I' for Inactive)
REMARK    1  A    between atoms: C_6  and  O_21 
REMARK    2  A    between atoms: C_8  and  O_20 
REMARK    3  A    between atoms: C_9  and  C_10 
REMARK    4  A    between atoms: C_13  and  O_19 
REMARK    5  A    between atoms: C_14  and  O_18 
ROOT
HETATM    1  C   UNK N   1      24.981  27.692  -5.093  0.00  0.00     0.037 A 
HETATM    2  C   UNK N   1      25.041  26.544  -5.890  0.00  0.00     0.021 A 
HETATM    3  C   UNK N   1      26.039  25.586  -5.665  0.00  0.00     0.051 A 
HETATM    4  C   UNK N   1      26.978  25.788  -4.633  0.00  0.00     0.093 A 
HETATM    5  C   UNK N   1      26.910  26.936  -3.842  0.00  0.00     0.074 A 
HETATM    6  C   UNK N   1      25.915  27.886  -4.070  0.00  0.00     0.068 A 
HETATM    7  C   UNK N   1      26.136  24.424  -6.439  0.00  0.00     0.220 A 
HETATM    8  C   UNK N   1      27.154  23.505  -6.167  0.00  0.00     0.152 A 
HETATM    9  C   UNK N   1      28.061  23.775  -5.112  0.00  0.00     0.123 A 
HETATM   10  O   UNK N   1      27.928  24.895  -4.404  0.00  0.00    -0.306 OA
HETATM   11  O   UNK N   1      25.343  24.212  -7.343  0.00  0.00    -0.284 OA
ENDROOT
BRANCH   9  12
HETATM   12  C   UNK N   1      29.171  22.863  -4.747  0.00  0.00     0.004 A 
HETATM   13  C   UNK N   1      29.581  21.887  -5.668  0.00  0.00     0.017 A 
HETATM   14  C   UNK N   1      30.623  21.012  -5.356  0.00  0.00     0.040 A 
HETATM   15  C   UNK N   1      31.266  21.105  -4.121  0.00  0.00     0.098 A 
HETATM   16  C   UNK N   1      30.864  22.076  -3.195  0.00  0.00     0.099 A 
HETATM   17  C   UNK N   1      29.823  22.948  -3.511  0.00  0.00     0.053 A 
BRANCH  15  18
HETATM   18  O   UNK N   1      32.268  20.261  -3.825  0.00  0.00    -0.358 OA
HETATM   19  H   UNK N   1      33.111  20.597  -3.590  0.00  0.00     0.217 HD
ENDBRANCH  15  18
BRANCH  16  20
HETATM   20  O   UNK N   1      31.474  22.177  -2.003  0.00  0.00    -0.358 OA
HETATM   21  H   UNK N   1      31.157  22.782  -1.363  0.00  0.00     0.217 HD
ENDBRANCH  16  20
ENDBRANCH   9  12
BRANCH   8  22
HETATM   22  O   UNK N   1      27.250  22.386  -6.910  0.00  0.00    -0.355 OA
HETATM   23  H   UNK N   1      27.923  22.308  -7.557  0.00  0.00     0.218 HD
ENDBRANCH   8  22
BRANCH   6  24
HETATM   24  O   UNK N   1      25.857  28.987  -3.305  0.00  0.00    -0.361 OA
HETATM   25  H   UNK N   1      26.547  29.175  -2.700  0.00  0.00     0.217 HD
ENDBRANCH   6  24
TORSDOF 5
ENDMDL
MODEL 7
REMARK VINA RESULT:      -6.7     10.309     12.193
REMARK  5 active torsions:
REMARK  status: ('A' for Active; 'I' for Inactive)
REMARK    1  A    between atoms: C_6  and  O_21 
REMARK    2  A    between atoms: C_8  and  O_20 
REMARK    3  A    between atoms: C_9  and  C_10 
REMARK    4  A    between atoms: C_13  and  O_19 
REMARK    5  A    between atoms: C_14  and  O_18 
ROOT
HETATM    1  C   UNK N   1      31.306  20.811  -4.031  0.00  0.00     0.037 A 
HETATM    2  C   UNK N   1      30.358  21.176  -4.993  0.00  0.00     0.021 A 
HETATM    3  C   UNK N   1      29.682  22.399  -4.881  0.00  0.00     0.051 A 
HETATM    4  C   UNK N   1      29.965  23.254  -3.797  0.00  0.00     0.093 A 
HETATM    5  C   UNK N   1      30.913  22.882  -2.842  0.00  0.00     0.074 A 
HETATM    6  C   UNK N   1      31.582  21.664  -2.958  0.00  0.00     0.068 A 
HETATM    7  C   UNK N   1      28.727  22.804  -5.820  0.00  0.00     0.220 A 
HETATM    8  C   UNK N   1      28.086  24.036  -5.656  0.00  0.00     0.152 A 
HETATM    9  C   UNK N   1      28.422  24.843  -4.540  0.00  0.00     0.123 A 
HETATM   10  O   UNK N   1      29.338  24.414  -3.673  0.00  0.00    -0.306 OA
HETATM   11  O   UNK N   1      28.453  22.093  -6.774  0.00  0.00    -0.284 OA
ENDROOT
BRANCH   9  12
HETATM   12  C   UNK N   1      27.799  26.162  -4.279  0.00  0.00     0.004 A 
HETATM   13  C   UNK N   1      26.568  26.213  -3.608  0.00  0.00     0.017 A 
HETATM   14  C   UNK N   1      25.954  27.438  -3.346  0.00  0.00     0.040 A 
HETATM   15  C   UNK N   1      26.564  28.626  -3.753  0.00  0.00     0.098 A 
HETATM   16  C   UNK N   1      27.793  28.585  -4.424  0.00  0.00     0.099 A 
HETATM   17  C   UNK N   1      28.403  27.359  -4.683  0.00  0.00     0.053 A 
BRANCH  15  18
HETATM   18  O   UNK N   1      25.970  29.803  -3.499  0.00  0.00    -0.358 OA
HETATM   19  H   UNK N   1      26.461  30.599  -3.554  0.00  0.00     0.217 HD
ENDBRANCH  15  18
BRANCH  16  20
HETATM   20  O   UNK N   1      28.392  29.720  -4.821  0.00  0.00    -0.358 OA
HETATM   21  H   UNK N   1      29.298  29.863  -4.635  0.00  0.00     0.217 HD
ENDBRANCH  16  20
ENDBRANCH   9  12
BRANCH   8  22
HETATM   22  O   UNK N   1      27.166  24.428  -6.557  0.00  0.00    -0.355 OA
HETATM   23  H   UNK N   1      26.254  24.327  -6.371  0.00  0.00     0.218 HD
ENDBRANCH   8  22
BRANCH   6  24
HETATM   24  O   UNK N   1      32.491  21.312  -2.036  0.00  0.00    -0.361 OA
HETATM   25  H   UNK N   1      33.025  20.554  -2.168  0.00  0.00     0.217 HD
ENDBRANCH   6  24
TORSDOF 5
ENDMDL
MODEL 8
REMARK VINA RESULT:      -6.7      3.861      8.905
REMARK  5 active torsions:
REMARK  status: ('A' for Active; 'I' for Inactive)
REMARK    1  A    between atoms: C_6  and  O_21 
REMARK    2  A    between atoms: C_8  and  O_20 
REMARK    3  A    between atoms: C_9  and  C_10 
REMARK    4  A    between atoms: C_13  and  O_19 
REMARK    5  A    between atoms: C_14  and  O_18 
ROOT
HETATM    1  C   UNK N   1      29.177  17.767   5.210  0.00  0.00     0.037 A 
HETATM    2  C   UNK N   1      30.509  17.471   4.905  0.00  0.00     0.021 A 
HETATM    3  C   UNK N   1      31.404  17.132   5.929  0.00  0.00     0.051 A 
HETATM    4  C   UNK N   1      30.951  17.091   7.264  0.00  0.00     0.093 A 
HETATM    5  C   UNK N   1      29.620  17.388   7.559  0.00  0.00     0.074 A 
HETATM    6  C   UNK N   1      28.734  17.725   6.536  0.00  0.00     0.068 A 
HETATM    7  C   UNK N   1      32.745  16.829   5.669  0.00  0.00     0.220 A 
HETATM    8  C   UNK N   1      33.590  16.498   6.732  0.00  0.00     0.152 A 
HETATM    9  C   UNK N   1      33.064  16.478   8.048  0.00  0.00     0.123 A 
HETATM   10  O   UNK N   1      31.781  16.773   8.246  0.00  0.00    -0.306 OA
HETATM   11  O   UNK N   1      33.177  16.853   4.527  0.00  0.00    -0.284 OA
ENDROOT
BRANCH   9  12
HETATM   12  C   UNK N   1      33.879  16.139   9.239  0.00  0.00     0.004 A 
HETATM   13  C   UNK N   1      34.899  17.017   9.638  0.00  0.00     0.017 A 
HETATM   14  C   UNK N   1      35.685  16.729  10.755  0.00  0.00     0.040 A 
HETATM   15  C   UNK N   1      35.459  15.560  11.485  0.00  0.00     0.098 A 
HETATM   16  C   UNK N   1      34.443  14.678  11.094  0.00  0.00     0.099 A 
HETATM   17  C   UNK N   1      33.661  14.970   9.978  0.00  0.00     0.053 A 
BRANCH  15  18
HETATM   18  O   UNK N   1      36.217  15.287  12.558  0.00  0.00    -0.358 OA
HETATM   19  H   UNK N   1      36.184  15.845  13.310  0.00  0.00     0.217 HD
ENDBRANCH  15  18
BRANCH  16  20
HETATM   20  O   UNK N   1      34.215  13.550  11.786  0.00  0.00    -0.358 OA
HETATM   21  H   UNK N   1      34.579  13.442  12.642  0.00  0.00     0.217 HD
ENDBRANCH  16  20
ENDBRANCH   9  12
BRANCH   8  22
HETATM   22  O   UNK N   1      34.882  16.206   6.485  0.00  0.00    -0.355 OA
HETATM   23  H   UNK N   1      35.102  15.476   5.940  0.00  0.00     0.218 HD
ENDBRANCH   8  22
BRANCH   6  24
HETATM   24  O   UNK N   1      27.455  18.008   6.828  0.00  0.00    -0.361 OA
HETATM   25  H   UNK N   1      27.149  18.893   6.786  0.00  0.00     0.217 HD
ENDBRANCH   6  24
TORSDOF 5
ENDMDL
MODEL 9
REMARK VINA RESULT:      -6.6      4.118      9.101
REMARK  5 active torsions:
REMARK  status: ('A' for Active; 'I' for Inactive)
REMARK    1  A    between atoms: C_6  and  O_21 
REMARK    2  A    between atoms: C_8  and  O_20 
REMARK    3  A    between atoms: C_9  and  C_10 
REMARK    4  A    between atoms: C_13  and  O_19 
REMARK    5  A    between atoms: C_14  and  O_18 
ROOT
HETATM    1  C   UNK N   1      28.411  18.023   7.219  0.00  0.00     0.037 A 
HETATM    2  C   UNK N   1      29.470  17.553   6.435  0.00  0.00     0.021 A 
HETATM    3  C   UNK N   1      30.589  16.970   7.046  0.00  0.00     0.051 A 
HETATM    4  C   UNK N   1      30.637  16.861   8.451  0.00  0.00     0.093 A 
HETATM    5  C   UNK N   1      29.575  17.333   9.225  0.00  0.00     0.074 A 
HETATM    6  C   UNK N   1      28.465  17.912   8.612  0.00  0.00     0.068 A 
HETATM    7  C   UNK N   1      31.670  16.487   6.301  0.00  0.00     0.220 A 
HETATM    8  C   UNK N   1      32.758  15.916   6.966  0.00  0.00     0.152 A 
HETATM    9  C   UNK N   1      32.736  15.840   8.382  0.00  0.00     0.123 A 
HETATM   10  O   UNK N   1      31.684  16.314   9.047  0.00  0.00    -0.306 OA
HETATM   11  O   UNK N   1      31.667  16.562   5.082  0.00  0.00    -0.284 OA
ENDROOT
BRANCH   9  12
HETATM   12  C   UNK N   1      33.840  15.253   9.177  0.00  0.00     0.004 A 
HETATM   13  C   UNK N   1      33.817  13.880   9.464  0.00  0.00     0.017 A 
HETATM   14  C   UNK N   1      34.841  13.294  10.211  0.00  0.00     0.040 A 
HETATM   15  C   UNK N   1      35.899  14.076  10.678  0.00  0.00     0.098 A 
HETATM   16  C   UNK N   1      35.931  15.448  10.396  0.00  0.00     0.099 A 
HETATM   17  C   UNK N   1      34.906  16.029   9.650  0.00  0.00     0.053 A 
BRANCH  15  18
HETATM   18  O   UNK N   1      36.882  13.509  11.396  0.00  0.00    -0.358 OA
HETATM   19  H   UNK N   1      36.860  13.544  12.332  0.00  0.00     0.217 HD
ENDBRANCH  15  18
BRANCH  16  20
HETATM   20  O   UNK N   1      36.943  16.212  10.839  0.00  0.00    -0.358 OA
HETATM   21  H   UNK N   1      36.988  17.116  10.599  0.00  0.00     0.217 HD
ENDBRANCH  16  20
ENDBRANCH   9  12
BRANCH   8  22
HETATM   22  O   UNK N   1      33.801  15.450   6.252  0.00  0.00    -0.355 OA
HETATM   23  H   UNK N   1      34.675  15.563   6.569  0.00  0.00     0.218 HD
ENDBRANCH   8  22
BRANCH   6  24
HETATM   24  O   UNK N   1      27.448  18.363   9.363  0.00  0.00    -0.361 OA
HETATM   25  H   UNK N   1      27.424  18.175  10.280  0.00  0.00     0.217 HD
ENDBRANCH   6  24
TORSDOF 5
ENDMDL
