MODEL 1
REMARK VINA RESULT:      -8.3      0.000      0.000
REMARK  5 active torsions:
REMARK  status: ('A' for Active; 'I' for Inactive)
REMARK    1  A    between atoms: N_3  and  C_4 
REMARK    2  A    between atoms: C_4  and  C_5 
REMARK    3  A    between atoms: C_20  and  C_21 
REMARK    4  A    between atoms: C_24  and  C_27 
REMARK    5  A    between atoms: C_27  and  N_29 
ROOT
HETATM    1  O   UNK N   1      31.078  16.663   8.658  0.00  0.00    -0.272 OA
HETATM    2  C   UNK N   1      31.718  16.777   7.624  0.00  0.00     0.234 C 
HETATM    3  N   UNK N   1      32.990  17.226   7.582  0.00  0.00    -0.283 N 
HETATM    4  C   UNK N   1      33.424  17.212   6.304  0.00  0.00     0.234 C 
HETATM    5  O   UNK N   1      34.526  17.610   5.957  0.00  0.00    -0.272 OA
HETATM    6  C   UNK N   1      32.283  16.974   5.385  0.00  0.00     0.127 C 
HETATM    7  C   UNK N   1      32.052  16.280   4.068  0.00  0.00     0.237 C 
HETATM    8  N   UNK N   1      30.577  16.290   3.982  0.00  0.00     0.103 N 
HETATM    9  C   UNK N   1      30.209  15.088   3.229  0.00  0.00     0.274 C 
HETATM   10  C   UNK N   1      31.448  14.213   3.081  0.00  0.00     0.032 C 
HETATM   11  C   UNK N   1      32.479  14.823   4.002  0.00  0.00     0.038 C 
HETATM   12  C   UNK N   1      30.058  16.240   5.392  0.00  0.00     0.270 C 
HETATM   13  C   UNK N   1      31.311  16.230   6.285  0.00  0.00     0.131 C 
ENDROOT
BRANCH  12  14
HETATM   14  C   UNK N   1      29.020  17.305   5.668  0.00  0.00    -0.024 A 
HETATM   15  C   UNK N   1      28.713  18.288   4.714  0.00  0.00     0.010 A 
HETATM   16  C   UNK N   1      27.979  19.420   5.076  0.00  0.00     0.016 A 
HETATM   17  C   UNK N   1      27.535  19.583   6.397  0.00  0.00     0.007 A 
HETATM   18  C   UNK N   1      27.782  18.570   7.333  0.00  0.00     0.016 A 
HETATM   19  C   UNK N   1      28.531  17.447   6.973  0.00  0.00     0.010 A 
BRANCH  17  20
HETATM   20  C   UNK N   1      26.882  20.840   6.824  0.00  0.00     0.102 C 
HETATM   21  N   UNK N   1      27.183  21.951   6.256  0.00  0.00    -0.385 N 
HETATM   22  H   UNK N   1      26.737  22.786   6.525  0.00  0.00     0.157 HD
HETATM   23  H   UNK N   1      27.866  21.967   5.547  0.00  0.00     0.157 HD
BRANCH  20  24
HETATM   24  N   UNK N   1      26.041  20.852   7.961  0.00  0.00    -0.385 N 
HETATM   25  H   UNK N   1      26.063  20.109   8.607  0.00  0.00     0.157 HD
HETATM   26  H   UNK N   1      25.428  21.609   8.108  0.00  0.00     0.157 HD
ENDBRANCH  20  24
ENDBRANCH  17  20
ENDBRANCH  12  14
BRANCH   3  27
HETATM   27  C   UNK N   1      33.744  17.708   8.724  0.00  0.00     0.173 C 
BRANCH  27  28
HETATM   28  C   UNK N   1      34.583  16.626   9.314  0.00  0.00    -0.040 A 
HETATM   29  C   UNK N   1      35.247  16.864  10.523  0.00  0.00     0.012 A 
HETATM   30  C   UNK N   1      36.097  15.894  11.058  0.00  0.00     0.043 A 
HETATM   31  C   UNK N   1      36.278  14.681  10.389  0.00  0.00     0.116 A 
HETATM   32  F   UNK N   1      37.115  13.747  10.901  0.00  0.00    -0.206 F 
HETATM   33  C   UNK N   1      35.603  14.435   9.188  0.00  0.00     0.043 A 
HETATM   34  C   UNK N   1      34.759  15.410   8.646  0.00  0.00     0.012 A 
ENDBRANCH  27  28
ENDBRANCH   3  27
TORSDOF 5
ENDMDL
MODEL 2
REMARK VINA RESULT:      -8.0      6.660      9.313
REMARK  5 active torsions:
REMARK  status: ('A' for Active; 'I' for Inactive)
REMARK    1  A    between atoms: N_3  and  C_4 
REMARK    2  A    between atoms: C_4  and  C_5 
REMARK    3  A    between atoms: C_20  and  C_21 
REMARK    4  A    between atoms: C_24  and  C_27 
REMARK    5  A    between atoms: C_27  and  N_29 
ROOT
HETATM    1  O   UNK N   1      25.210  14.655   5.241  0.00  0.00    -0.272 OA
HETATM    2  C   UNK N   1      24.544  15.678   5.200  0.00  0.00     0.234 C 
HETATM    3  N   UNK N   1      25.065  16.895   4.937  0.00  0.00    -0.283 N 
HETATM    4  C   UNK N   1      24.074  17.812   4.938  0.00  0.00     0.234 C 
HETATM    5  O   UNK N   1      24.257  19.009   4.775  0.00  0.00    -0.272 OA
HETATM    6  C   UNK N   1      22.833  17.213   5.490  0.00  0.00     0.127 C 
HETATM    7  C   UNK N   1      21.348  17.348   5.266  0.00  0.00     0.237 C 
HETATM    8  N   UNK N   1      20.827  16.204   6.043  0.00  0.00     0.103 N 
HETATM    9  C   UNK N   1      19.604  15.777   5.358  0.00  0.00     0.274 C 
HETATM   10  C   UNK N   1      19.523  16.499   4.018  0.00  0.00     0.032 C 
HETATM   11  C   UNK N   1      20.872  17.153   3.836  0.00  0.00     0.038 C 
HETATM   12  C   UNK N   1      21.883  15.135   6.006  0.00  0.00     0.270 C 
HETATM   13  C   UNK N   1      23.043  15.738   5.195  0.00  0.00     0.131 C 
ENDROOT
BRANCH  12  14
HETATM   14  C   UNK N   1      22.208  14.592   7.380  0.00  0.00    -0.024 A 
HETATM   15  C   UNK N   1      23.183  13.599   7.558  0.00  0.00     0.010 A 
HETATM   16  C   UNK N   1      23.274  12.906   8.769  0.00  0.00     0.016 A 
HETATM   17  C   UNK N   1      22.395  13.202   9.821  0.00  0.00     0.007 A 
HETATM   18  C   UNK N   1      21.468  14.241   9.667  0.00  0.00     0.016 A 
HETATM   19  C   UNK N   1      21.366  14.920   8.450  0.00  0.00     0.010 A 
BRANCH  17  20
HETATM   20  C   UNK N   1      22.389  12.382  11.052  0.00  0.00     0.102 C 
HETATM   21  N   UNK N   1      21.289  11.892  11.497  0.00  0.00    -0.385 N 
HETATM   22  H   UNK N   1      21.283  11.331  12.305  0.00  0.00     0.157 HD
HETATM   23  H   UNK N   1      20.444  12.081  11.027  0.00  0.00     0.157 HD
BRANCH  20  24
HETATM   24  N   UNK N   1      23.562  12.262  11.831  0.00  0.00    -0.385 N 
HETATM   25  H   UNK N   1      23.517  11.934  12.758  0.00  0.00     0.157 HD
HETATM   26  H   UNK N   1      24.434  12.508  11.443  0.00  0.00     0.157 HD
ENDBRANCH  20  24
ENDBRANCH  17  20
ENDBRANCH  12  14
BRANCH   3  27
HETATM   27  C   UNK N   1      26.475  17.177   4.747  0.00  0.00     0.173 C 
BRANCH  27  28
HETATM   28  C   UNK N   1      27.113  17.633   6.015  0.00  0.00    -0.040 A 
HETATM   29  C   UNK N   1      27.432  18.988   6.166  0.00  0.00     0.012 A 
HETATM   30  C   UNK N   1      28.096  19.427   7.312  0.00  0.00     0.043 A 
HETATM   31  C   UNK N   1      28.434  18.514   8.315  0.00  0.00     0.116 A 
HETATM   32  F   UNK N   1      29.092  18.939   9.420  0.00  0.00    -0.206 F 
HETATM   33  C   UNK N   1      28.101  17.162   8.173  0.00  0.00     0.043 A 
HETATM   34  C   UNK N   1      27.446  16.719   7.020  0.00  0.00     0.012 A 
ENDBRANCH  27  28
ENDBRANCH   3  27
TORSDOF 5
ENDMDL
MODEL 3
REMARK VINA RESULT:      -8.0      7.753     10.608
REMARK  5 active torsions:
REMARK  status: ('A' for Active; 'I' for Inactive)
REMARK    1  A    between atoms: N_3  and  C_4 
REMARK    2  A    between atoms: C_4  and  C_5 
REMARK    3  A    between atoms: C_20  and  C_21 
REMARK    4  A    between atoms: C_24  and  C_27 
REMARK    5  A    between atoms: C_27  and  N_29 
ROOT
HETATM    1  O   UNK N   1      21.293  17.572   7.067  0.00  0.00    -0.272 OA
HETATM    2  C   UNK N   1      21.112  16.472   6.566  0.00  0.00     0.234 C 
HETATM    3  N   UNK N   1      20.689  15.398   7.265  0.00  0.00    -0.283 N 
HETATM    4  C   UNK N   1      20.562  14.346   6.428  0.00  0.00     0.234 C 
HETATM    5  O   UNK N   1      20.240  13.225   6.791  0.00  0.00    -0.272 OA
HETATM    6  C   UNK N   1      21.185  14.665   5.118  0.00  0.00     0.127 C 
HETATM    7  C   UNK N   1      20.940  14.332   3.669  0.00  0.00     0.237 C 
HETATM    8  N   UNK N   1      21.862  15.266   2.991  0.00  0.00     0.103 N 
HETATM    9  C   UNK N   1      21.237  15.585   1.705  0.00  0.00     0.274 C 
HETATM   10  C   UNK N   1      19.811  15.046   1.713  0.00  0.00     0.032 C 
HETATM   11  C   UNK N   1      19.547  14.641   3.144  0.00  0.00     0.038 C 
HETATM   12  C   UNK N   1      21.974  16.482   3.868  0.00  0.00     0.270 C 
HETATM   13  C   UNK N   1      21.093  16.181   5.093  0.00  0.00     0.131 C 
ENDROOT
BRANCH  12  14
HETATM   14  C   UNK N   1      23.410  16.880   4.129  0.00  0.00    -0.024 A 
HETATM   15  C   UNK N   1      23.737  18.162   4.596  0.00  0.00     0.010 A 
HETATM   16  C   UNK N   1      25.060  18.611   4.560  0.00  0.00     0.016 A 
HETATM   17  C   UNK N   1      26.076  17.782   4.063  0.00  0.00     0.007 A 
HETATM   18  C   UNK N   1      25.760  16.478   3.661  0.00  0.00     0.016 A 
HETATM   19  C   UNK N   1      24.435  16.036   3.681  0.00  0.00     0.010 A 
BRANCH  17  20
HETATM   20  C   UNK N   1      27.452  18.296   3.888  0.00  0.00     0.102 C 
HETATM   21  N   UNK N   1      27.675  19.560   3.882  0.00  0.00    -0.385 N 
HETATM   22  H   UNK N   1      28.591  19.905   3.785  0.00  0.00     0.157 HD
HETATM   23  H   UNK N   1      26.922  20.189   3.975  0.00  0.00     0.157 HD
BRANCH  20  24
HETATM   24  N   UNK N   1      28.506  17.408   3.572  0.00  0.00    -0.385 N 
HETATM   25  H   UNK N   1      28.317  16.470   3.339  0.00  0.00     0.157 HD
HETATM   26  H   UNK N   1      29.437  17.731   3.583  0.00  0.00     0.157 HD
ENDBRANCH  20  24
ENDBRANCH  17  20
ENDBRANCH  12  14
BRANCH   3  27
HETATM   27  C   UNK N   1      20.468  15.367   8.698  0.00  0.00     0.173 C 
BRANCH  27  28
HETATM   28  C   UNK N   1      21.224  14.254   9.340  0.00  0.00    -0.040 A 
HETATM   29  C   UNK N   1      20.552  13.390  10.212  0.00  0.00     0.012 A 
HETATM   30  C   UNK N   1      21.255  12.386  10.882  0.00  0.00     0.043 A 
HETATM   31  C   UNK N   1      22.629  12.240  10.674  0.00  0.00     0.116 A 
HETATM   32  F   UNK N   1      23.311  11.276  11.337  0.00  0.00    -0.206 F 
HETATM   33  C   UNK N   1      23.300  13.093   9.791  0.00  0.00     0.043 A 
HETATM   34  C   UNK N   1      22.599  14.106   9.127  0.00  0.00     0.012 A 
ENDBRANCH  27  28
ENDBRANCH   3  27
TORSDOF 5
ENDMDL
MODEL 4
REMARK VINA RESULT:      -7.9      6.434      9.341
REMARK  5 active torsions:
REMARK  status: ('A' for Active; 'I' for Inactive)
REMARK    1  A    between atoms: N_3  and  C_4 
REMARK    2  A    between atoms: C_4  and  C_5 
REMARK    3  A    between atoms: C_20  and  C_21 
REMARK    4  A    between atoms: C_24  and  C_27 
REMARK    5  A    between atoms: C_27  and  N_29 
ROOT
HETATM    1  O   UNK N   1      25.083  16.122   4.104  0.00  0.00    -0.272 OA
HETATM    2  C   UNK N   1      24.455  17.167   4.033  0.00  0.00     0.234 C 
HETATM    3  N   UNK N   1      25.035  18.375   3.874  0.00  0.00    -0.283 N 
HETATM    4  C   UNK N   1      24.076  19.323   3.806  0.00  0.00     0.234 C 
HETATM    5  O   UNK N   1      24.310  20.519   3.710  0.00  0.00    -0.272 OA
HETATM    6  C   UNK N   1      22.767  18.746   4.200  0.00  0.00     0.127 C 
HETATM    7  C   UNK N   1      21.319  18.936   3.826  0.00  0.00     0.237 C 
HETATM    8  N   UNK N   1      20.685  17.783   4.498  0.00  0.00     0.103 N 
HETATM    9  C   UNK N   1      19.531  17.421   3.672  0.00  0.00     0.274 C 
HETATM   10  C   UNK N   1      19.614  18.193   2.361  0.00  0.00     0.032 C 
HETATM   11  C   UNK N   1      20.993  18.808   2.347  0.00  0.00     0.038 C 
HETATM   12  C   UNK N   1      21.708  16.682   4.532  0.00  0.00     0.270 C 
HETATM   13  C   UNK N   1      22.965  17.276   3.871  0.00  0.00     0.131 C 
ENDROOT
BRANCH  12  14
HETATM   14  C   UNK N   1      21.870  16.080   5.910  0.00  0.00    -0.024 A 
HETATM   15  C   UNK N   1      22.515  14.848   6.096  0.00  0.00     0.010 A 
HETATM   16  C   UNK N   1      22.408  14.170   7.313  0.00  0.00     0.016 A 
HETATM   17  C   UNK N   1      21.659  14.718   8.365  0.00  0.00     0.007 A 
HETATM   18  C   UNK N   1      21.072  15.980   8.203  0.00  0.00     0.016 A 
HETATM   19  C   UNK N   1      21.165  16.648   6.980  0.00  0.00     0.010 A 
BRANCH  17  20
HETATM   20  C   UNK N   1      21.421  13.946   9.604  0.00  0.00     0.102 C 
HETATM   21  N   UNK N   1      22.385  13.312  10.167  0.00  0.00    -0.385 N 
HETATM   22  H   UNK N   1      22.235  12.814  11.001  0.00  0.00     0.157 HD
HETATM   23  H   UNK N   1      23.282  13.325   9.759  0.00  0.00     0.157 HD
BRANCH  20  24
HETATM   24  N   UNK N   1      20.105  13.774  10.091  0.00  0.00    -0.385 N 
HETATM   25  H   UNK N   1      19.816  14.218  10.921  0.00  0.00     0.157 HD
HETATM   26  H   UNK N   1      19.472  13.205   9.595  0.00  0.00     0.157 HD
ENDBRANCH  20  24
ENDBRANCH  17  20
ENDBRANCH  12  14
BRANCH   3  27
HETATM   27  C   UNK N   1      26.465  18.617   3.845  0.00  0.00     0.173 C 
BRANCH  27  28
HETATM   28  C   UNK N   1      27.030  18.695   5.222  0.00  0.00    -0.040 A 
HETATM   29  C   UNK N   1      27.016  19.922   5.894  0.00  0.00     0.012 A 
HETATM   30  C   UNK N   1      27.606  20.038   7.154  0.00  0.00     0.043 A 
HETATM   31  C   UNK N   1      28.202  18.923   7.749  0.00  0.00     0.116 A 
HETATM   32  F   UNK N   1      28.787  19.040   8.965  0.00  0.00    -0.206 F 
HETATM   33  C   UNK N   1      28.204  17.690   7.086  0.00  0.00     0.043 A 
HETATM   34  C   UNK N   1      27.623  17.577   5.818  0.00  0.00     0.012 A 
ENDBRANCH  27  28
ENDBRANCH   3  27
TORSDOF 5
ENDMDL
MODEL 5
REMARK VINA RESULT:      -7.8      4.705      9.305
REMARK  5 active torsions:
REMARK  status: ('A' for Active; 'I' for Inactive)
REMARK    1  A    between atoms: N_3  and  C_4 
REMARK    2  A    between atoms: C_4  and  C_5 
REMARK    3  A    between atoms: C_20  and  C_21 
REMARK    4  A    between atoms: C_24  and  C_27 
REMARK    5  A    between atoms: C_27  and  N_29 
ROOT
HETATM    1  O   UNK N   1      34.559  16.131  10.900  0.00  0.00    -0.272 OA
HETATM    2  C   UNK N   1      34.394  15.046  10.363  0.00  0.00     0.234 C 
HETATM    3  N   UNK N   1      33.387  14.786   9.504  0.00  0.00    -0.283 N 
HETATM    4  C   UNK N   1      33.493  13.513   9.067  0.00  0.00     0.234 C 
HETATM    5  O   UNK N   1      32.689  12.985   8.312  0.00  0.00    -0.272 OA
HETATM    6  C   UNK N   1      34.495  12.781   9.882  0.00  0.00     0.127 C 
HETATM    7  C   UNK N   1      35.510  11.689   9.664  0.00  0.00     0.237 C 
HETATM    8  N   UNK N   1      36.272  11.736  10.929  0.00  0.00     0.103 N 
HETATM    9  C   UNK N   1      37.637  11.321  10.591  0.00  0.00     0.274 C 
HETATM   10  C   UNK N   1      37.766  11.271   9.074  0.00  0.00     0.032 C 
HETATM   11  C   UNK N   1      36.512  11.927   8.546  0.00  0.00     0.038 C 
HETATM   12  C   UNK N   1      36.230  13.159  11.411  0.00  0.00     0.270 C 
HETATM   13  C   UNK N   1      35.382  13.914  10.372  0.00  0.00     0.131 C 
ENDROOT
BRANCH  12  14
HETATM   14  C   UNK N   1      35.810  13.270  12.859  0.00  0.00    -0.024 A 
HETATM   15  C   UNK N   1      36.444  14.165  13.735  0.00  0.00     0.010 A 
HETATM   16  C   UNK N   1      36.252  14.059  15.115  0.00  0.00     0.016 A 
HETATM   17  C   UNK N   1      35.418  13.060  15.639  0.00  0.00     0.007 A 
HETATM   18  C   UNK N   1      34.731  12.211  14.762  0.00  0.00     0.016 A 
HETATM   19  C   UNK N   1      34.938  12.307  13.383  0.00  0.00     0.010 A 
BRANCH  17  20
HETATM   20  C   UNK N   1      35.320  12.849  17.100  0.00  0.00     0.102 C 
HETATM   21  N   UNK N   1      35.129  11.671  17.572  0.00  0.00    -0.385 N 
HETATM   22  H   UNK N   1      35.082  11.523  18.543  0.00  0.00     0.157 HD
HETATM   23  H   UNK N   1      35.028  10.909  16.956  0.00  0.00     0.157 HD
BRANCH  20  24
HETATM   24  N   UNK N   1      35.279  13.958  17.976  0.00  0.00    -0.385 N 
HETATM   25  H   UNK N   1      35.150  14.869  17.625  0.00  0.00     0.157 HD
HETATM   26  H   UNK N   1      35.379  13.819  18.946  0.00  0.00     0.157 HD
ENDBRANCH  20  24
ENDBRANCH  17  20
ENDBRANCH  12  14
BRANCH   3  27
HETATM   27  C   UNK N   1      32.325  15.712   9.156  0.00  0.00     0.173 C 
BRANCH  27  28
HETATM   28  C   UNK N   1      32.499  16.241   7.773  0.00  0.00    -0.040 A 
HETATM   29  C   UNK N   1      33.660  16.956   7.459  0.00  0.00     0.012 A 
HETATM   30  C   UNK N   1      33.812  17.524   6.193  0.00  0.00     0.043 A 
HETATM   31  C   UNK N   1      32.806  17.371   5.236  0.00  0.00     0.116 A 
HETATM   32  F   UNK N   1      32.948  17.936   4.013  0.00  0.00    -0.206 F 
HETATM   33  C   UNK N   1      31.650  16.643   5.542  0.00  0.00     0.043 A 
HETATM   34  C   UNK N   1      31.493  16.082   6.814  0.00  0.00     0.012 A 
ENDBRANCH  27  28
ENDBRANCH   3  27
TORSDOF 5
ENDMDL
MODEL 6
REMARK VINA RESULT:      -7.8      4.902      8.323
REMARK  5 active torsions:
REMARK  status: ('A' for Active; 'I' for Inactive)
REMARK    1  A    between atoms: N_3  and  C_4 
REMARK    2  A    between atoms: C_4  and  C_5 
REMARK    3  A    between atoms: C_20  and  C_21 
REMARK    4  A    between atoms: C_24  and  C_27 
REMARK    5  A    between atoms: C_27  and  N_29 
ROOT
HETATM    1  O   UNK N   1      26.589  15.723   8.191  0.00  0.00    -0.272 OA
HETATM    2  C   UNK N   1      26.651  15.797   6.972  0.00  0.00     0.234 C 
HETATM    3  N   UNK N   1      26.179  14.843   6.144  0.00  0.00    -0.283 N 
HETATM    4  C   UNK N   1      26.373  15.229   4.865  0.00  0.00     0.234 C 
HETATM    5  O   UNK N   1      26.086  14.541   3.897  0.00  0.00    -0.272 OA
HETATM    6  C   UNK N   1      27.266  16.414   4.825  0.00  0.00     0.127 C 
HETATM    7  C   UNK N   1      27.424  17.650   3.977  0.00  0.00     0.237 C 
HETATM    8  N   UNK N   1      28.386  18.437   4.776  0.00  0.00     0.103 N 
HETATM    9  C   UNK N   1      28.071  19.843   4.512  0.00  0.00     0.274 C 
HETATM   10  C   UNK N   1      26.751  19.910   3.754  0.00  0.00     0.032 C 
HETATM   11  C   UNK N   1      26.182  18.512   3.822  0.00  0.00     0.038 C 
HETATM   12  C   UNK N   1      28.152  18.078   6.217  0.00  0.00     0.270 C 
HETATM   13  C   UNK N   1      27.029  17.026   6.196  0.00  0.00     0.131 C 
ENDROOT
BRANCH  12  14
HETATM   14  C   UNK N   1      29.429  17.712   6.940  0.00  0.00    -0.024 A 
HETATM   15  C   UNK N   1      29.645  18.088   8.274  0.00  0.00     0.010 A 
HETATM   16  C   UNK N   1      30.921  18.002   8.836  0.00  0.00     0.016 A 
HETATM   17  C   UNK N   1      32.000  17.530   8.073  0.00  0.00     0.007 A 
HETATM   18  C   UNK N   1      31.771  17.090   6.763  0.00  0.00     0.016 A 
HETATM   19  C   UNK N   1      30.498  17.194   6.197  0.00  0.00     0.010 A 
BRANCH  17  20
HETATM   20  C   UNK N   1      33.378  17.568   8.610  0.00  0.00     0.102 C 
HETATM   21  N   UNK N   1      33.738  16.744   9.526  0.00  0.00    -0.385 N 
HETATM   22  H   UNK N   1      34.659  16.753   9.872  0.00  0.00     0.157 HD
HETATM   23  H   UNK N   1      33.087  16.097   9.885  0.00  0.00     0.157 HD
BRANCH  20  24
HETATM   24  N   UNK N   1      34.258  18.608   8.233  0.00  0.00    -0.385 N 
HETATM   25  H   UNK N   1      34.307  18.907   7.296  0.00  0.00     0.157 HD
HETATM   26  H   UNK N   1      34.827  19.038   8.913  0.00  0.00     0.157 HD
ENDBRANCH  20  24
ENDBRANCH  17  20
ENDBRANCH  12  14
BRANCH   3  27
HETATM   27  C   UNK N   1      25.612  13.575   6.566  0.00  0.00     0.173 C 
BRANCH  27  28
HETATM   28  C   UNK N   1      24.373  13.777   7.370  0.00  0.00    -0.040 A 
HETATM   29  C   UNK N   1      24.270  13.167   8.625  0.00  0.00     0.012 A 
HETATM   30  C   UNK N   1      23.091  13.280   9.364  0.00  0.00     0.043 A 
HETATM   31  C   UNK N   1      22.015  14.010   8.852  0.00  0.00     0.116 A 
HETATM   32  F   UNK N   1      20.867  14.105   9.563  0.00  0.00    -0.206 F 
HETATM   33  C   UNK N   1      22.121  14.634   7.604  0.00  0.00     0.043 A 
HETATM   34  C   UNK N   1      23.299  14.512   6.858  0.00  0.00     0.012 A 
ENDBRANCH  27  28
ENDBRANCH   3  27
TORSDOF 5
ENDMDL
MODEL 7
REMARK VINA RESULT:      -7.7     12.548     14.761
REMARK  5 active torsions:
REMARK  status: ('A' for Active; 'I' for Inactive)
REMARK    1  A    between atoms: N_3  and  C_4 
REMARK    2  A    between atoms: C_4  and  C_5 
REMARK    3  A    between atoms: C_20  and  C_21 
REMARK    4  A    between atoms: C_24  and  C_27 
REMARK    5  A    between atoms: C_27  and  N_29 
ROOT
HETATM    1  O   UNK N   1      29.377  23.439  -4.321  0.00  0.00    -0.272 OA
HETATM    2  C   UNK N   1      29.259  23.199  -5.513  0.00  0.00     0.234 C 
HETATM    3  N   UNK N   1      30.307  23.074  -6.354  0.00  0.00    -0.283 N 
HETATM    4  C   UNK N   1      29.851  22.786  -7.592  0.00  0.00     0.234 C 
HETATM    5  O   UNK N   1      30.574  22.663  -8.570  0.00  0.00    -0.272 OA
HETATM    6  C   UNK N   1      28.380  22.980  -7.646  0.00  0.00     0.127 C 
HETATM    7  C   UNK N   1      27.210  22.350  -8.356  0.00  0.00     0.237 C 
HETATM    8  N   UNK N   1      26.068  22.968  -7.650  0.00  0.00     0.103 N 
HETATM    9  C   UNK N   1      24.990  21.976  -7.685  0.00  0.00     0.274 C 
HETATM   10  C   UNK N   1      25.563  20.656  -8.188  0.00  0.00     0.032 C 
HETATM   11  C   UNK N   1      27.061  20.847  -8.188  0.00  0.00     0.038 C 
HETATM   12  C   UNK N   1      26.522  23.242  -6.244  0.00  0.00     0.270 C 
HETATM   13  C   UNK N   1      27.988  22.776  -6.193  0.00  0.00     0.131 C 
ENDROOT
BRANCH  12  14
HETATM   14  C   UNK N   1      26.231  24.659  -5.804  0.00  0.00    -0.024 A 
HETATM   15  C   UNK N   1      26.111  25.701  -6.736  0.00  0.00     0.010 A 
HETATM   16  C   UNK N   1      26.131  27.033  -6.315  0.00  0.00     0.016 A 
HETATM   17  C   UNK N   1      26.263  27.343  -4.953  0.00  0.00     0.007 A 
HETATM   18  C   UNK N   1      26.313  26.302  -4.016  0.00  0.00     0.016 A 
HETATM   19  C   UNK N   1      26.311  24.971  -4.441  0.00  0.00     0.010 A 
BRANCH  17  20
HETATM   20  C   UNK N   1      26.428  28.744  -4.510  0.00  0.00     0.102 C 
HETATM   21  N   UNK N   1      27.136  29.562  -5.200  0.00  0.00    -0.385 N 
HETATM   22  H   UNK N   1      27.232  30.500  -4.919  0.00  0.00     0.157 HD
HETATM   23  H   UNK N   1      27.587  29.248  -6.018  0.00  0.00     0.157 HD
BRANCH  20  24
HETATM   24  N   UNK N   1      25.937  29.151  -3.248  0.00  0.00    -0.385 N 
HETATM   25  H   UNK N   1      25.663  30.085  -3.095  0.00  0.00     0.157 HD
HETATM   26  H   UNK N   1      25.869  28.496  -2.516  0.00  0.00     0.157 HD
ENDBRANCH  20  24
ENDBRANCH  17  20
ENDBRANCH  12  14
BRANCH   3  27
HETATM   27  C   UNK N   1      31.697  23.279  -5.993  0.00  0.00     0.173 C 
BRANCH  27  28
HETATM   28  C   UNK N   1      32.287  22.052  -5.387  0.00  0.00    -0.040 A 
HETATM   29  C   UNK N   1      32.636  22.063  -4.032  0.00  0.00     0.012 A 
HETATM   30  C   UNK N   1      33.258  20.952  -3.460  0.00  0.00     0.043 A 
HETATM   31  C   UNK N   1      33.524  19.823  -4.240  0.00  0.00     0.116 A 
HETATM   32  F   UNK N   1      34.140  18.752  -3.687  0.00  0.00    -0.206 F 
HETATM   33  C   UNK N   1      33.161  19.804  -5.592  0.00  0.00     0.043 A 
HETATM   34  C   UNK N   1      32.548  20.921  -6.168  0.00  0.00     0.012 A 
ENDBRANCH  27  28
ENDBRANCH   3  27
TORSDOF 5
ENDMDL
MODEL 8
REMARK VINA RESULT:      -7.6     11.866     14.261
REMARK  5 active torsions:
REMARK  status: ('A' for Active; 'I' for Inactive)
REMARK    1  A    between atoms: N_3  and  C_4 
REMARK    2  A    between atoms: C_4  and  C_5 
REMARK    3  A    between atoms: C_20  and  C_21 
REMARK    4  A    between atoms: C_24  and  C_27 
REMARK    5  A    between atoms: C_27  and  N_29 
ROOT
HETATM    1  O   UNK N   1      30.663  21.776  -6.212  0.00  0.00    -0.272 OA
HETATM    2  C   UNK N   1      30.535  22.448  -5.200  0.00  0.00     0.234 C 
HETATM    3  N   UNK N   1      30.836  21.997  -3.964  0.00  0.00    -0.283 N 
HETATM    4  C   UNK N   1      30.610  22.979  -3.066  0.00  0.00     0.234 C 
HETATM    5  O   UNK N   1      30.752  22.841  -1.860  0.00  0.00    -0.272 OA
HETATM    6  C   UNK N   1      29.864  24.090  -3.709  0.00  0.00     0.127 C 
HETATM    7  C   UNK N   1      29.801  25.591  -3.591  0.00  0.00     0.237 C 
HETATM    8  N   UNK N   1      28.992  25.947  -4.775  0.00  0.00     0.103 N 
HETATM    9  C   UNK N   1      29.455  27.272  -5.194  0.00  0.00     0.274 C 
HETATM   10  C   UNK N   1      30.723  27.609  -4.420  0.00  0.00     0.032 C 
HETATM   11  C   UNK N   1      31.125  26.324  -3.735  0.00  0.00     0.038 C 
HETATM   12  C   UNK N   1      29.271  24.906  -5.823  0.00  0.00     0.270 C 
HETATM   13  C   UNK N   1      30.258  23.924  -5.167  0.00  0.00     0.131 C 
ENDROOT
BRANCH  12  14
HETATM   14  C   UNK N   1      28.007  24.325  -6.416  0.00  0.00    -0.024 A 
HETATM   15  C   UNK N   1      26.908  23.996  -5.609  0.00  0.00     0.010 A 
HETATM   16  C   UNK N   1      25.872  23.204  -6.113  0.00  0.00     0.016 A 
HETATM   17  C   UNK N   1      25.918  22.736  -7.434  0.00  0.00     0.007 A 
HETATM   18  C   UNK N   1      26.981  23.121  -8.261  0.00  0.00     0.016 A 
HETATM   19  C   UNK N   1      28.025  23.898  -7.751  0.00  0.00     0.010 A 
BRANCH  17  20
HETATM   20  C   UNK N   1      24.902  21.783  -7.933  0.00  0.00     0.102 C 
HETATM   21  N   UNK N   1      23.769  21.676  -7.340  0.00  0.00    -0.385 N 
HETATM   22  H   UNK N   1      23.084  21.058  -7.680  0.00  0.00     0.157 HD
HETATM   23  H   UNK N   1      23.585  22.217  -6.538  0.00  0.00     0.157 HD
BRANCH  20  24
HETATM   24  N   UNK N   1      25.228  20.876  -8.967  0.00  0.00    -0.385 N 
HETATM   25  H   UNK N   1      25.769  20.075  -8.779  0.00  0.00     0.157 HD
HETATM   26  H   UNK N   1      24.911  21.046  -9.884  0.00  0.00     0.157 HD
ENDBRANCH  20  24
ENDBRANCH  17  20
ENDBRANCH  12  14
BRANCH   3  27
HETATM   27  C   UNK N   1      31.273  20.650  -3.650  0.00  0.00     0.173 C 
BRANCH  27  28
HETATM   28  C   UNK N   1      32.694  20.434  -4.048  0.00  0.00    -0.040 A 
HETATM   29  C   UNK N   1      33.704  21.104  -3.349  0.00  0.00     0.012 A 
HETATM   30  C   UNK N   1      35.036  20.976  -3.750  0.00  0.00     0.043 A 
HETATM   31  C   UNK N   1      35.360  20.171  -4.845  0.00  0.00     0.116 A 
HETATM   32  F   UNK N   1      36.650  20.061  -5.242  0.00  0.00    -0.206 F 
HETATM   33  C   UNK N   1      34.352  19.488  -5.536  0.00  0.00     0.043 A 
HETATM   34  C   UNK N   1      33.017  19.624  -5.142  0.00  0.00     0.012 A 
ENDBRANCH  27  28
ENDBRANCH   3  27
TORSDOF 5
ENDMDL
MODEL 9
REMARK VINA RESULT:      -7.5      8.681     11.551
REMARK  5 active torsions:
REMARK  status: ('A' for Active; 'I' for Inactive)
REMARK    1  A    between atoms: N_3  and  C_4 
REMARK    2  A    between atoms: C_4  and  C_5 
REMARK    3  A    between atoms: C_20  and  C_21 
REMARK    4  A    between atoms: C_24  and  C_27 
REMARK    5  A    between atoms: C_27  and  N_29 
ROOT
HETATM    1  O   UNK N   1      22.723  15.931   6.743  0.00  0.00    -0.272 OA
HETATM    2  C   UNK N   1      22.767  15.150   5.804  0.00  0.00     0.234 C 
HETATM    3  N   UNK N   1      21.803  15.063   4.863  0.00  0.00    -0.283 N 
HETATM    4  C   UNK N   1      22.154  14.130   3.953  0.00  0.00     0.234 C 
HETATM    5  O   UNK N   1      21.449  13.803   3.010  0.00  0.00    -0.272 OA
HETATM    6  C   UNK N   1      23.317  13.352   4.449  0.00  0.00     0.127 C 
HETATM    7  C   UNK N   1      24.527  12.677   3.857  0.00  0.00     0.237 C 
HETATM    8  N   UNK N   1      25.311  12.359   5.069  0.00  0.00     0.103 N 
HETATM    9  C   UNK N   1      26.718  12.407   4.661  0.00  0.00     0.274 C 
HETATM   10  C   UNK N   1      26.796  13.007   3.263  0.00  0.00     0.032 C 
HETATM   11  C   UNK N   1      25.414  13.550   2.984  0.00  0.00     0.038 C 
HETATM   12  C   UNK N   1      24.994  13.421   6.085  0.00  0.00     0.270 C 
HETATM   13  C   UNK N   1      23.968  14.342   5.401  0.00  0.00     0.131 C 
ENDROOT
BRANCH  12  14
HETATM   14  C   UNK N   1      24.616  12.843   7.431  0.00  0.00    -0.024 A 
HETATM   15  C   UNK N   1      23.617  11.865   7.550  0.00  0.00     0.010 A 
HETATM   16  C   UNK N   1      23.079  11.552   8.801  0.00  0.00     0.016 A 
HETATM   17  C   UNK N   1      23.539  12.207   9.953  0.00  0.00     0.007 A 
HETATM   18  C   UNK N   1      24.584  13.133   9.843  0.00  0.00     0.016 A 
HETATM   19  C   UNK N   1      25.108  13.459   8.589  0.00  0.00     0.010 A 
BRANCH  17  20
HETATM   20  C   UNK N   1      22.881  11.987  11.259  0.00  0.00     0.102 C 
HETATM   21  N   UNK N   1      21.620  11.760  11.319  0.00  0.00    -0.385 N 
HETATM   22  H   UNK N   1      21.182  11.594  12.184  0.00  0.00     0.157 HD
HETATM   23  H   UNK N   1      21.086  11.752  10.491  0.00  0.00     0.157 HD
BRANCH  20  24
HETATM   24  N   UNK N   1      23.605  12.180  12.459  0.00  0.00    -0.385 N 
HETATM   25  H   UNK N   1      23.520  11.540  13.203  0.00  0.00     0.157 HD
HETATM   26  H   UNK N   1      24.199  12.960  12.552  0.00  0.00     0.157 HD
ENDBRANCH  20  24
ENDBRANCH  17  20
ENDBRANCH  12  14
BRANCH   3  27
HETATM   27  C   UNK N   1      20.560  15.812   4.869  0.00  0.00     0.173 C 
BRANCH  27  28
HETATM   28  C   UNK N   1      20.649  17.018   3.998  0.00  0.00    -0.040 A 
HETATM   29  C   UNK N   1      21.175  18.202   4.528  0.00  0.00     0.012 A 
HETATM   30  C   UNK N   1      21.200  19.364   3.755  0.00  0.00     0.043 A 
HETATM   31  C   UNK N   1      20.708  19.342   2.447  0.00  0.00     0.116 A 
HETATM   32  F   UNK N   1      20.720  20.474   1.704  0.00  0.00    -0.206 F 
HETATM   33  C   UNK N   1      20.197  18.156   1.910  0.00  0.00     0.043 A 
HETATM   34  C   UNK N   1      20.161  16.993   2.687  0.00  0.00     0.012 A 
ENDBRANCH  27  28
ENDBRANCH   3  27
TORSDOF 5
ENDMDL
