MODEL 1
REMARK VINA RESULT:      -6.5      0.000      0.000
REMARK  8 active torsions:
REMARK  status: ('A' for Active; 'I' for Inactive)
REMARK    1  A    between atoms: C_1  and  N_9 
REMARK    2  A    between atoms: N_9  and  C_10 
REMARK    3  A    between atoms: C_10  and  N_12 
REMARK    4  A    between atoms: N_12  and  C_13 
REMARK    5  A    between atoms: C_13  and  C_14 
REMARK    6  A    between atoms: C_14  and  C_15 
REMARK    7  A    between atoms: C_20  and  O_22 
REMARK    8  A    between atoms: O_22  and  C_23 
ROOT
HETATM    1  N   UNK N   1      33.112  15.191  10.509  0.00  0.00    -0.367 N 
HETATM    2  H   UNK N   1      32.543  15.301  11.306  0.00  0.00     0.161 HD
ENDROOT
BRANCH   1   3
HETATM    3  C   UNK N   1      34.531  15.235  10.776  0.00  0.00     0.173 C 
HETATM    4  S   UNK N   1      35.298  16.442  10.574  0.00  0.00    -0.041 SA
BRANCH   3   5
HETATM    5  N   UNK N   1      35.170  14.035  11.253  0.00  0.00    -0.320 N 
HETATM    6  H   UNK N   1      35.573  13.463  10.561  0.00  0.00     0.169 HD
BRANCH   5   7
HETATM    7  C   UNK N   1      35.299  13.562  12.601  0.00  0.00     0.107 A 
HETATM    8  N   UNK N   1      34.576  12.473  12.993  0.00  0.00    -0.351 N 
HETATM    9  C   UNK N   1      34.655  11.976  14.260  0.00  0.00     0.113 A 
ATOM     10  HN  UNK N   1      33.960  12.018  12.320  1.00  0.00     0.166 HD
HETATM   11  C   UNK N   1      35.492  12.580  15.202  0.00  0.00     0.049 A 
HETATM   12  C   UNK N   1      36.241  13.691  14.834  0.00  0.00     0.029 A 
HETATM   13 Cl   UNK N   1      35.605  11.954  16.832  0.00  0.00    -0.083 Cl
HETATM   14  C   UNK N   1      36.145  14.182  13.537  0.00  0.00     0.050 A 
ENDBRANCH   5   7
ENDBRANCH   3   5
ENDBRANCH   1   3
BRANCH   1  15
HETATM   15  C   UNK N   1      32.373  15.012   9.250  0.00  0.00     0.128 C 
BRANCH  15  16
HETATM   16  C   UNK N   1      32.188  16.291   8.448  0.00  0.00     0.080 C 
BRANCH  16  17
HETATM   17  C   UNK N   1      30.915  17.077   8.439  0.00  0.00     0.052 A 
HETATM   18  N   UNK N   1      30.551  17.636   9.624  0.00  0.00    -0.367 N 
HETATM   19  C   UNK N   1      29.424  18.374   9.763  0.00  0.00     0.091 A 
ATOM     20  HN  UNK N   1      31.149  17.495  10.437  1.00  0.00     0.165 HD
HETATM   21  C   UNK N   1      28.592  18.582   8.672  0.00  0.00     0.057 A 
HETATM   22  C   UNK N   1      28.915  18.033   7.431  0.00  0.00     0.110 A 
HETATM   23  C   UNK N   1      30.100  17.262   7.302  0.00  0.00     0.172 A 
HETATM   24  F   UNK N   1      30.448  16.711   6.112  0.00  0.00    -0.201 F 
BRANCH  22  25
HETATM   25  O   UNK N   1      28.061  18.273   6.404  0.00  0.00    -0.348 OA
BRANCH  25  26
HETATM   26  C   UNK N   1      27.525  19.495   6.081  0.00  0.00     0.171 C 
HETATM   27  C   UNK N   1      27.981  19.880   4.689  0.00  0.00     0.034 C 
ENDBRANCH  25  26
ENDBRANCH  22  25
ENDBRANCH  16  17
ENDBRANCH  15  16
ENDBRANCH   1  15
TORSDOF 8
ENDMDL
MODEL 2
REMARK VINA RESULT:      -6.3      4.731      9.584
REMARK  8 active torsions:
REMARK  status: ('A' for Active; 'I' for Inactive)
REMARK    1  A    between atoms: C_1  and  N_9 
REMARK    2  A    between atoms: N_9  and  C_10 
REMARK    3  A    between atoms: C_10  and  N_12 
REMARK    4  A    between atoms: N_12  and  C_13 
REMARK    5  A    between atoms: C_13  and  C_14 
REMARK    6  A    between atoms: C_14  and  C_15 
REMARK    7  A    between atoms: C_20  and  O_22 
REMARK    8  A    between atoms: O_22  and  C_23 
ROOT
HETATM    1  N   UNK N   1      34.134  15.755  10.641  0.00  0.00    -0.367 N 
HETATM    2  H   UNK N   1      33.556  15.077  11.061  0.00  0.00     0.161 HD
ENDROOT
BRANCH   1   3
HETATM    3  C   UNK N   1      33.608  16.318   9.420  0.00  0.00     0.173 C 
HETATM    4  S   UNK N   1      34.384  17.236   8.618  0.00  0.00    -0.041 SA
BRANCH   3   5
HETATM    5  N   UNK N   1      32.278  15.941   9.015  0.00  0.00    -0.320 N 
HETATM    6  H   UNK N   1      32.088  14.975   9.028  0.00  0.00     0.169 HD
BRANCH   5   7
HETATM    7  C   UNK N   1      31.195  16.781   8.595  0.00  0.00     0.107 A 
HETATM    8  N   UNK N   1      30.709  17.718   9.460  0.00  0.00    -0.351 N 
HETATM    9  C   UNK N   1      29.681  18.546   9.120  0.00  0.00     0.113 A 
ATOM     10  HN  UNK N   1      31.127  17.801  10.386  1.00  0.00     0.166 HD
HETATM   11  C   UNK N   1      29.091  18.454   7.857  0.00  0.00     0.049 A 
HETATM   12  C   UNK N   1      29.563  17.509   6.953  0.00  0.00     0.029 A 
HETATM   13 Cl   UNK N   1      27.771  19.509   7.405  0.00  0.00    -0.083 Cl
HETATM   14  C   UNK N   1      30.612  16.675   7.321  0.00  0.00     0.050 A 
ENDBRANCH   5   7
ENDBRANCH   3   5
ENDBRANCH   1   3
BRANCH   1  15
HETATM   15  C   UNK N   1      35.387  16.022  11.365  0.00  0.00     0.128 C 
BRANCH  15  16
HETATM   16  C   UNK N   1      36.111  14.771  11.840  0.00  0.00     0.080 C 
BRANCH  16  17
HETATM   17  C   UNK N   1      36.095  14.304  13.261  0.00  0.00     0.052 A 
HETATM   18  N   UNK N   1      36.914  14.970  14.117  0.00  0.00    -0.367 N 
HETATM   19  C   UNK N   1      37.001  14.657  15.432  0.00  0.00     0.091 A 
ATOM     20  HN  UNK N   1      37.484  15.735  13.757  1.00  0.00     0.165 HD
HETATM   21  C   UNK N   1      36.236  13.621  15.950  0.00  0.00     0.057 A 
HETATM   22  C   UNK N   1      35.377  12.902  15.119  0.00  0.00     0.110 A 
HETATM   23  C   UNK N   1      35.298  13.244  13.743  0.00  0.00     0.172 A 
HETATM   24  F   UNK N   1      34.475  12.568  12.902  0.00  0.00    -0.201 F 
BRANCH  22  25
HETATM   25  O   UNK N   1      34.657  11.902  15.685  0.00  0.00    -0.348 OA
BRANCH  25  26
HETATM   26  C   UNK N   1      35.136  10.655  16.006  0.00  0.00     0.171 C 
HETATM   27  C   UNK N   1      34.870   9.714  14.849  0.00  0.00     0.034 C 
ENDBRANCH  25  26
ENDBRANCH  22  25
ENDBRANCH  16  17
ENDBRANCH  15  16
ENDBRANCH   1  15
TORSDOF 8
ENDMDL
MODEL 3
REMARK VINA RESULT:      -6.1      2.811      3.457
REMARK  8 active torsions:
REMARK  status: ('A' for Active; 'I' for Inactive)
REMARK    1  A    between atoms: C_1  and  N_9 
REMARK    2  A    between atoms: N_9  and  C_10 
REMARK    3  A    between atoms: C_10  and  N_12 
REMARK    4  A    between atoms: N_12  and  C_13 
REMARK    5  A    between atoms: C_13  and  C_14 
REMARK    6  A    between atoms: C_14  and  C_15 
REMARK    7  A    between atoms: C_20  and  O_22 
REMARK    8  A    between atoms: O_22  and  C_23 
ROOT
HETATM    1  N   UNK N   1      36.590  15.425  11.289  0.00  0.00    -0.367 N 
HETATM    2  H   UNK N   1      37.350  15.960  11.616  0.00  0.00     0.161 HD
ENDROOT
BRANCH   1   3
HETATM    3  C   UNK N   1      36.923  14.065  10.936  0.00  0.00     0.173 C 
HETATM    4  S   UNK N   1      37.736  13.764   9.780  0.00  0.00    -0.041 SA
BRANCH   3   5
HETATM    5  N   UNK N   1      36.421  13.003  11.770  0.00  0.00    -0.320 N 
HETATM    6  H   UNK N   1      36.281  12.139  11.321  0.00  0.00     0.169 HD
BRANCH   5   7
HETATM    7  C   UNK N   1      36.097  13.036  13.167  0.00  0.00     0.107 A 
HETATM    8  N   UNK N   1      36.943  13.672  14.029  0.00  0.00    -0.351 N 
HETATM    9  C   UNK N   1      36.690  13.738  15.367  0.00  0.00     0.113 A 
ATOM     10  HN  UNK N   1      37.786  14.111  13.661  1.00  0.00     0.166 HD
HETATM   11  C   UNK N   1      35.542  13.144  15.896  0.00  0.00     0.049 A 
HETATM   12  C   UNK N   1      34.660  12.488  15.045  0.00  0.00     0.029 A 
HETATM   13 Cl   UNK N   1      35.204  13.219  17.611  0.00  0.00    -0.083 Cl
HETATM   14  C   UNK N   1      34.937  12.434  13.684  0.00  0.00     0.050 A 
ENDBRANCH   5   7
ENDBRANCH   3   5
ENDBRANCH   1   3
BRANCH   1  15
HETATM   15  C   UNK N   1      35.309  16.147  11.245  0.00  0.00     0.128 C 
BRANCH  15  16
HETATM   16  C   UNK N   1      35.022  16.825   9.912  0.00  0.00     0.080 C 
BRANCH  16  17
HETATM   17  C   UNK N   1      33.959  16.359   8.969  0.00  0.00     0.052 A 
HETATM   18  N   UNK N   1      33.702  15.025   8.971  0.00  0.00    -0.367 N 
HETATM   19  C   UNK N   1      32.765  14.464   8.169  0.00  0.00     0.091 A 
ATOM     20  HN  UNK N   1      34.232  14.423   9.600  1.00  0.00     0.165 HD
HETATM   21  C   UNK N   1      32.027  15.259   7.303  0.00  0.00     0.057 A 
HETATM   22  C   UNK N   1      32.248  16.635   7.258  0.00  0.00     0.110 A 
HETATM   23  C   UNK N   1      33.234  17.207   8.105  0.00  0.00     0.172 A 
HETATM   24  F   UNK N   1      33.477  18.541   8.089  0.00  0.00    -0.201 F 
BRANCH  22  25
HETATM   25  O   UNK N   1      31.494  17.357   6.391  0.00  0.00    -0.348 OA
BRANCH  25  26
HETATM   26  C   UNK N   1      31.461  17.186   5.028  0.00  0.00     0.171 C 
HETATM   27  C   UNK N   1      32.822  17.528   4.457  0.00  0.00     0.034 C 
ENDBRANCH  25  26
ENDBRANCH  22  25
ENDBRANCH  16  17
ENDBRANCH  15  16
ENDBRANCH   1  15
TORSDOF 8
ENDMDL
MODEL 4
REMARK VINA RESULT:      -6.1      5.110      9.733
REMARK  8 active torsions:
REMARK  status: ('A' for Active; 'I' for Inactive)
REMARK    1  A    between atoms: C_1  and  N_9 
REMARK    2  A    between atoms: N_9  and  C_10 
REMARK    3  A    between atoms: C_10  and  N_12 
REMARK    4  A    between atoms: N_12  and  C_13 
REMARK    5  A    between atoms: C_13  and  C_14 
REMARK    6  A    between atoms: C_14  and  C_15 
REMARK    7  A    between atoms: C_20  and  O_22 
REMARK    8  A    between atoms: O_22  and  C_23 
ROOT
HETATM    1  N   UNK N   1      34.581  15.558  11.315  0.00  0.00    -0.367 N 
HETATM    2  H   UNK N   1      33.755  15.808  11.789  0.00  0.00     0.161 HD
ENDROOT
BRANCH   1   3
HETATM    3  C   UNK N   1      34.607  15.929   9.920  0.00  0.00     0.173 C 
HETATM    4  S   UNK N   1      35.381  15.181   8.956  0.00  0.00    -0.041 SA
BRANCH   3   5
HETATM    5  N   UNK N   1      33.835  17.073   9.506  0.00  0.00    -0.320 N 
HETATM    6  H   UNK N   1      34.111  17.935   9.893  0.00  0.00     0.169 HD
BRANCH   5   7
HETATM    7  C   UNK N   1      32.720  17.126   8.606  0.00  0.00     0.107 A 
HETATM    8  N   UNK N   1      31.454  17.110   9.116  0.00  0.00    -0.351 N 
HETATM    9  C   UNK N   1      30.354  17.157   8.313  0.00  0.00     0.113 A 
ATOM     10  HN  UNK N   1      31.329  17.061  10.127  1.00  0.00     0.166 HD
HETATM   11  C   UNK N   1      30.499  17.225   6.925  0.00  0.00     0.049 A 
HETATM   12  C   UNK N   1      31.775  17.243   6.373  0.00  0.00     0.029 A 
HETATM   13 Cl   UNK N   1      29.097  17.287   5.880  0.00  0.00    -0.083 Cl
HETATM   14  C   UNK N   1      32.883  17.193   7.211  0.00  0.00     0.050 A 
ENDBRANCH   5   7
ENDBRANCH   3   5
ENDBRANCH   1   3
BRANCH   1  15
HETATM   15  C   UNK N   1      35.580  14.871  12.149  0.00  0.00     0.128 C 
BRANCH  15  16
HETATM   16  C   UNK N   1      35.505  13.352  12.086  0.00  0.00     0.080 C 
BRANCH  16  17
HETATM   17  C   UNK N   1      35.158  12.500  13.265  0.00  0.00     0.052 A 
HETATM   18  N   UNK N   1      34.175  11.582  13.069  0.00  0.00    -0.367 N 
HETATM   19  C   UNK N   1      33.759  10.743  14.047  0.00  0.00     0.091 A 
ATOM     20  HN  UNK N   1      33.735  11.522  12.152  1.00  0.00     0.165 HD
HETATM   21  C   UNK N   1      34.341  10.801  15.306  0.00  0.00     0.057 A 
HETATM   22  C   UNK N   1      35.355  11.723  15.565  0.00  0.00     0.110 A 
HETATM   23  C   UNK N   1      35.779  12.596  14.528  0.00  0.00     0.172 A 
HETATM   24  F   UNK N   1      36.762  13.506  14.742  0.00  0.00    -0.201 F 
BRANCH  22  25
HETATM   25  O   UNK N   1      35.884  11.730  16.814  0.00  0.00    -0.348 OA
BRANCH  25  26
HETATM   26  C   UNK N   1      35.222  12.103  17.959  0.00  0.00     0.171 C 
HETATM   27  C   UNK N   1      35.214  13.615  18.052  0.00  0.00     0.034 C 
ENDBRANCH  25  26
ENDBRANCH  22  25
ENDBRANCH  16  17
ENDBRANCH  15  16
ENDBRANCH   1  15
TORSDOF 8
ENDMDL
MODEL 5
REMARK VINA RESULT:      -6.1      2.794      3.466
REMARK  8 active torsions:
REMARK  status: ('A' for Active; 'I' for Inactive)
REMARK    1  A    between atoms: C_1  and  N_9 
REMARK    2  A    between atoms: N_9  and  C_10 
REMARK    3  A    between atoms: C_10  and  N_12 
REMARK    4  A    between atoms: N_12  and  C_13 
REMARK    5  A    between atoms: C_13  and  C_14 
REMARK    6  A    between atoms: C_14  and  C_15 
REMARK    7  A    between atoms: C_20  and  O_22 
REMARK    8  A    between atoms: O_22  and  C_23 
ROOT
HETATM    1  N   UNK N   1      36.032  13.603   9.799  0.00  0.00    -0.367 N 
HETATM    2  H   UNK N   1      36.437  13.919   8.959  0.00  0.00     0.161 HD
ENDROOT
BRANCH   1   3
HETATM    3  C   UNK N   1      36.982  13.286  10.840  0.00  0.00     0.173 C 
HETATM    4  S   UNK N   1      37.901  12.179  10.709  0.00  0.00    -0.041 SA
BRANCH   3   5
HETATM    5  N   UNK N   1      36.993  14.108  12.023  0.00  0.00    -0.320 N 
HETATM    6  H   UNK N   1      37.410  14.995  11.921  0.00  0.00     0.169 HD
BRANCH   5   7
HETATM    7  C   UNK N   1      36.480  13.810  13.328  0.00  0.00     0.107 A 
HETATM    8  N   UNK N   1      37.072  14.378  14.419  0.00  0.00    -0.351 N 
HETATM    9  C   UNK N   1      36.631  14.134  15.685  0.00  0.00     0.113 A 
ATOM     10  HN  UNK N   1      37.867  15.001  14.282  1.00  0.00     0.166 HD
HETATM   11  C   UNK N   1      35.544  13.283  15.899  0.00  0.00     0.049 A 
HETATM   12  C   UNK N   1      34.918  12.689  14.809  0.00  0.00     0.029 A 
HETATM   13 Cl   UNK N   1      34.965  12.959  17.518  0.00  0.00    -0.083 Cl
HETATM   14  C   UNK N   1      35.385  12.952  13.527  0.00  0.00     0.050 A 
ENDBRANCH   5   7
ENDBRANCH   3   5
ENDBRANCH   1   3
BRANCH   1  15
HETATM   15  C   UNK N   1      34.563  13.533   9.781  0.00  0.00     0.128 C 
BRANCH  15  16
HETATM   16  C   UNK N   1      33.872  14.828  10.183  0.00  0.00     0.080 C 
BRANCH  16  17
HETATM   17  C   UNK N   1      33.123  15.691   9.218  0.00  0.00     0.052 A 
HETATM   18  N   UNK N   1      31.812  15.907   9.504  0.00  0.00    -0.367 N 
HETATM   19  C   UNK N   1      31.013  16.668   8.719  0.00  0.00     0.091 A 
ATOM     20  HN  UNK N   1      31.415  15.481  10.340  1.00  0.00     0.165 HD
HETATM   21  C   UNK N   1      31.527  17.262   7.574  0.00  0.00     0.057 A 
HETATM   22  C   UNK N   1      32.865  17.075   7.231  0.00  0.00     0.110 A 
HETATM   23  C   UNK N   1      33.690  16.274   8.065  0.00  0.00     0.172 A 
HETATM   24  F   UNK N   1      34.996  16.070   7.764  0.00  0.00    -0.201 F 
BRANCH  22  25
HETATM   25  O   UNK N   1      33.307  17.682   6.101  0.00  0.00    -0.348 OA
BRANCH  25  26
HETATM   26  C   UNK N   1      33.391  17.096   4.861  0.00  0.00     0.171 C 
HETATM   27  C   UNK N   1      32.280  17.637   3.985  0.00  0.00     0.034 C 
ENDBRANCH  25  26
ENDBRANCH  22  25
ENDBRANCH  16  17
ENDBRANCH  15  16
ENDBRANCH   1  15
TORSDOF 8
ENDMDL
MODEL 6
REMARK VINA RESULT:      -6.0     11.306     14.476
REMARK  8 active torsions:
REMARK  status: ('A' for Active; 'I' for Inactive)
REMARK    1  A    between atoms: C_1  and  N_9 
REMARK    2  A    between atoms: N_9  and  C_10 
REMARK    3  A    between atoms: C_10  and  N_12 
REMARK    4  A    between atoms: N_12  and  C_13 
REMARK    5  A    between atoms: C_13  and  C_14 
REMARK    6  A    between atoms: C_14  and  C_15 
REMARK    7  A    between atoms: C_20  and  O_22 
REMARK    8  A    between atoms: O_22  and  C_23 
ROOT
HETATM    1  N   UNK N   1      19.009  15.909   6.023  0.00  0.00    -0.367 N 
HETATM    2  H   UNK N   1      18.147  15.540   6.324  0.00  0.00     0.161 HD
ENDROOT
BRANCH   1   3
HETATM    3  C   UNK N   1      19.244  15.799   4.602  0.00  0.00     0.173 C 
HETATM    4  S   UNK N   1      19.388  14.513   3.960  0.00  0.00    -0.041 SA
BRANCH   3   5
HETATM    5  N   UNK N   1      19.330  17.013   3.831  0.00  0.00    -0.320 N 
HETATM    6  H   UNK N   1      18.508  17.277   3.358  0.00  0.00     0.169 HD
BRANCH   5   7
HETATM    7  C   UNK N   1      20.452  17.890   3.661  0.00  0.00     0.107 A 
HETATM    8  N   UNK N   1      20.269  19.086   3.028  0.00  0.00    -0.351 N 
HETATM    9  C   UNK N   1      21.296  19.962   2.836  0.00  0.00     0.113 A 
ATOM     10  HN  UNK N   1      19.339  19.330   2.690  1.00  0.00     0.166 HD
HETATM   11  C   UNK N   1      22.580  19.652   3.289  0.00  0.00     0.049 A 
HETATM   12  C   UNK N   1      22.800  18.442   3.938  0.00  0.00     0.029 A 
HETATM   13 Cl   UNK N   1      23.908  20.765   3.050  0.00  0.00    -0.083 Cl
HETATM   14  C   UNK N   1      21.738  17.563   4.123  0.00  0.00     0.050 A 
ENDBRANCH   5   7
ENDBRANCH   3   5
ENDBRANCH   1   3
BRANCH   1  15
HETATM   15  C   UNK N   1      19.838  16.479   7.096  0.00  0.00     0.128 C 
BRANCH  15  16
HETATM   16  C   UNK N   1      19.945  15.600   8.334  0.00  0.00     0.080 C 
BRANCH  16  17
HETATM   17  C   UNK N   1      21.083  14.661   8.577  0.00  0.00     0.052 A 
HETATM   18  N   UNK N   1      22.103  14.714   7.680  0.00  0.00    -0.367 N 
HETATM   19  C   UNK N   1      23.197  13.923   7.776  0.00  0.00     0.091 A 
ATOM     20  HN  UNK N   1      22.042  15.376   6.907  1.00  0.00     0.165 HD
HETATM   21  C   UNK N   1      23.307  13.014   8.820  0.00  0.00     0.057 A 
HETATM   22  C   UNK N   1      22.291  12.915   9.770  0.00  0.00     0.110 A 
HETATM   23  C   UNK N   1      21.150  13.752   9.655  0.00  0.00     0.172 A 
HETATM   24  F   UNK N   1      20.141  13.685  10.559  0.00  0.00    -0.201 F 
BRANCH  22  25
HETATM   25  O   UNK N   1      22.457  12.008  10.765  0.00  0.00    -0.348 OA
BRANCH  25  26
HETATM   26  C   UNK N   1      23.575  11.883  11.553  0.00  0.00     0.171 C 
HETATM   27  C   UNK N   1      23.151  11.859  13.007  0.00  0.00     0.034 C 
ENDBRANCH  25  26
ENDBRANCH  22  25
ENDBRANCH  16  17
ENDBRANCH  15  16
ENDBRANCH   1  15
TORSDOF 8
ENDMDL
MODEL 7
REMARK VINA RESULT:      -5.9      2.487      4.046
REMARK  8 active torsions:
REMARK  status: ('A' for Active; 'I' for Inactive)
REMARK    1  A    between atoms: C_1  and  N_9 
REMARK    2  A    between atoms: N_9  and  C_10 
REMARK    3  A    between atoms: C_10  and  N_12 
REMARK    4  A    between atoms: N_12  and  C_13 
REMARK    5  A    between atoms: C_13  and  C_14 
REMARK    6  A    between atoms: C_14  and  C_15 
REMARK    7  A    between atoms: C_20  and  O_22 
REMARK    8  A    between atoms: O_22  and  C_23 
ROOT
HETATM    1  N   UNK N   1      30.695  17.351   9.410  0.00  0.00    -0.367 N 
HETATM    2  H   UNK N   1      30.329  16.735  10.086  0.00  0.00     0.161 HD
ENDROOT
BRANCH   1   3
HETATM    3  C   UNK N   1      31.829  16.834   8.681  0.00  0.00     0.173 C 
HETATM    4  S   UNK N   1      32.571  17.660   7.757  0.00  0.00    -0.041 SA
BRANCH   3   5
HETATM    5  N   UNK N   1      32.209  15.461   8.898  0.00  0.00    -0.320 N 
HETATM    6  H   UNK N   1      31.560  14.786   8.595  0.00  0.00     0.169 HD
BRANCH   5   7
HETATM    7  C   UNK N   1      33.406  14.945   9.496  0.00  0.00     0.107 A 
HETATM    8  N   UNK N   1      33.564  15.035  10.849  0.00  0.00    -0.351 N 
HETATM    9  C   UNK N   1      34.678  14.563  11.476  0.00  0.00     0.113 A 
ATOM     10  HN  UNK N   1      32.827  15.468  11.406  1.00  0.00     0.166 HD
HETATM   11  C   UNK N   1      35.702  13.966  10.737  0.00  0.00     0.049 A 
HETATM   12  C   UNK N   1      35.572  13.859   9.357  0.00  0.00     0.029 A 
HETATM   13 Cl   UNK N   1      37.138  13.355  11.527  0.00  0.00    -0.083 Cl
HETATM   14  C   UNK N   1      34.427  14.347   8.738  0.00  0.00     0.050 A 
ENDBRANCH   5   7
ENDBRANCH   3   5
ENDBRANCH   1   3
BRANCH   1  15
HETATM   15  C   UNK N   1      29.994  18.640   9.314  0.00  0.00     0.128 C 
BRANCH  15  16
HETATM   16  C   UNK N   1      28.551  18.532   8.844  0.00  0.00     0.080 C 
BRANCH  16  17
HETATM   17  C   UNK N   1      28.114  18.872   7.455  0.00  0.00     0.052 A 
HETATM   18  N   UNK N   1      27.268  19.930   7.338  0.00  0.00    -0.367 N 
HETATM   19  C   UNK N   1      26.792  20.351   6.142  0.00  0.00     0.091 A 
ATOM     20  HN  UNK N   1      26.982  20.426   8.182  1.00  0.00     0.165 HD
HETATM   21  C   UNK N   1      27.166  19.696   4.977  0.00  0.00     0.057 A 
HETATM   22  C   UNK N   1      28.031  18.604   5.036  0.00  0.00     0.110 A 
HETATM   23  C   UNK N   1      28.521  18.175   6.298  0.00  0.00     0.172 A 
HETATM   24  F   UNK N   1      29.365  17.117   6.396  0.00  0.00    -0.201 F 
BRANCH  22  25
HETATM   25  O   UNK N   1      28.359  18.007   3.863  0.00  0.00    -0.348 OA
BRANCH  25  26
HETATM   26  C   UNK N   1      27.923  16.773   3.446  0.00  0.00     0.171 C 
HETATM   27  C   UNK N   1      29.101  15.995   2.897  0.00  0.00     0.034 C 
ENDBRANCH  25  26
ENDBRANCH  22  25
ENDBRANCH  16  17
ENDBRANCH  15  16
ENDBRANCH   1  15
TORSDOF 8
ENDMDL
MODEL 8
REMARK VINA RESULT:      -5.9      2.569      3.728
REMARK  8 active torsions:
REMARK  status: ('A' for Active; 'I' for Inactive)
REMARK    1  A    between atoms: C_1  and  N_9 
REMARK    2  A    between atoms: N_9  and  C_10 
REMARK    3  A    between atoms: C_10  and  N_12 
REMARK    4  A    between atoms: N_12  and  C_13 
REMARK    5  A    between atoms: C_13  and  C_14 
REMARK    6  A    between atoms: C_14  and  C_15 
REMARK    7  A    between atoms: C_20  and  O_22 
REMARK    8  A    between atoms: O_22  and  C_23 
ROOT
HETATM    1  N   UNK N   1      34.547  13.116  11.674  0.00  0.00    -0.367 N 
HETATM    2  H   UNK N   1      33.572  13.000  11.599  0.00  0.00     0.161 HD
ENDROOT
BRANCH   1   3
HETATM    3  C   UNK N   1      35.162  12.349  12.731  0.00  0.00     0.173 C 
HETATM    4  S   UNK N   1      36.570  12.025  12.705  0.00  0.00    -0.041 SA
BRANCH   3   5
HETATM    5  N   UNK N   1      34.333  11.911  13.824  0.00  0.00    -0.320 N 
HETATM    6  H   UNK N   1      33.435  11.593  13.576  0.00  0.00     0.169 HD
BRANCH   5   7
HETATM    7  C   UNK N   1      34.640  11.873  15.224  0.00  0.00     0.107 A 
HETATM    8  N   UNK N   1      34.813  10.664  15.834  0.00  0.00    -0.351 N 
HETATM    9  C   UNK N   1      35.106  10.563  17.161  0.00  0.00     0.113 A 
ATOM     10  HN  UNK N   1      34.721   9.813  15.280  1.00  0.00     0.166 HD
HETATM   11  C   UNK N   1      35.238  11.714  17.942  0.00  0.00     0.049 A 
HETATM   12  C   UNK N   1      35.068  12.961  17.352  0.00  0.00     0.029 A 
HETATM   13 Cl   UNK N   1      35.613  11.601  19.647  0.00  0.00    -0.083 Cl
HETATM   14  C   UNK N   1      34.769  13.040  15.996  0.00  0.00     0.050 A 
ENDBRANCH   5   7
ENDBRANCH   3   5
ENDBRANCH   1   3
BRANCH   1  15
HETATM   15  C   UNK N   1      35.129  14.042  10.689  0.00  0.00     0.128 C 
BRANCH  15  16
HETATM   16  C   UNK N   1      34.637  15.477  10.816  0.00  0.00     0.080 C 
BRANCH  16  17
HETATM   17  C   UNK N   1      34.164  16.287   9.651  0.00  0.00     0.052 A 
HETATM   18  N   UNK N   1      34.886  17.403   9.368  0.00  0.00    -0.367 N 
HETATM   19  C   UNK N   1      34.574  18.230   8.342  0.00  0.00     0.091 A 
ATOM     20  HN  UNK N   1      35.694  17.626   9.950  1.00  0.00     0.165 HD
HETATM   21  C   UNK N   1      33.481  17.951   7.534  0.00  0.00     0.057 A 
HETATM   22  C   UNK N   1      32.703  16.819   7.776  0.00  0.00     0.110 A 
HETATM   23  C   UNK N   1      33.045  15.962   8.856  0.00  0.00     0.172 A 
HETATM   24  F   UNK N   1      32.312  14.852   9.124  0.00  0.00    -0.201 F 
BRANCH  22  25
HETATM   25  O   UNK N   1      31.649  16.601   6.951  0.00  0.00    -0.348 OA
BRANCH  25  26
HETATM   26  C   UNK N   1      30.337  16.888   7.239  0.00  0.00     0.171 C 
HETATM   27  C   UNK N   1      29.666  17.424   5.991  0.00  0.00     0.034 C 
ENDBRANCH  25  26
ENDBRANCH  22  25
ENDBRANCH  16  17
ENDBRANCH  15  16
ENDBRANCH   1  15
TORSDOF 8
ENDMDL
MODEL 9
REMARK VINA RESULT:      -5.8      6.040     10.302
REMARK  8 active torsions:
REMARK  status: ('A' for Active; 'I' for Inactive)
REMARK    1  A    between atoms: C_1  and  N_9 
REMARK    2  A    between atoms: N_9  and  C_10 
REMARK    3  A    between atoms: C_10  and  N_12 
REMARK    4  A    between atoms: N_12  and  C_13 
REMARK    5  A    between atoms: C_13  and  C_14 
REMARK    6  A    between atoms: C_14  and  C_15 
REMARK    7  A    between atoms: C_20  and  O_22 
REMARK    8  A    between atoms: O_22  and  C_23 
ROOT
HETATM    1  N   UNK N   1      34.804  12.520  11.674  0.00  0.00    -0.367 N 
HETATM    2  H   UNK N   1      34.576  12.208  10.768  0.00  0.00     0.161 HD
ENDROOT
BRANCH   1   3
HETATM    3  C   UNK N   1      34.858  13.956  11.817  0.00  0.00     0.173 C 
HETATM    4  S   UNK N   1      35.934  14.601  12.534  0.00  0.00    -0.041 SA
BRANCH   3   5
HETATM    5  N   UNK N   1      33.804  14.738  11.223  0.00  0.00    -0.320 N 
HETATM    6  H   UNK N   1      32.995  14.850  11.773  0.00  0.00     0.169 HD
BRANCH   5   7
HETATM    7  C   UNK N   1      33.775  15.377   9.940  0.00  0.00     0.107 A 
HETATM    8  N   UNK N   1      34.234  16.658   9.825  0.00  0.00    -0.351 N 
HETATM    9  C   UNK N   1      34.232  17.318   8.633  0.00  0.00     0.113 A 
ATOM     10  HN  UNK N   1      34.587  17.133  10.655  1.00  0.00     0.166 HD
HETATM   11  C   UNK N   1      33.752  16.690   7.481  0.00  0.00     0.049 A 
HETATM   12  C   UNK N   1      33.278  15.386   7.564  0.00  0.00     0.029 A 
HETATM   13 Cl   UNK N   1      33.743  17.524   5.944  0.00  0.00    -0.083 Cl
HETATM   14  C   UNK N   1      33.289  14.731   8.790  0.00  0.00     0.050 A 
ENDBRANCH   5   7
ENDBRANCH   3   5
ENDBRANCH   1   3
BRANCH   1  15
HETATM   15  C   UNK N   1      35.032  11.444  12.651  0.00  0.00     0.128 C 
BRANCH  15  16
HETATM   16  C   UNK N   1      34.062  11.451  13.824  0.00  0.00     0.080 C 
BRANCH  16  17
HETATM   17  C   UNK N   1      34.491  11.657  15.242  0.00  0.00     0.052 A 
HETATM   18  N   UNK N   1      34.545  12.946  15.668  0.00  0.00    -0.367 N 
HETATM   19  C   UNK N   1      34.915  13.281  16.927  0.00  0.00     0.091 A 
ATOM     20  HN  UNK N   1      34.296  13.690  15.016  1.00  0.00     0.165 HD
HETATM   21  C   UNK N   1      35.259  12.289  17.835  0.00  0.00     0.057 A 
HETATM   22  C   UNK N   1      35.222  10.948  17.454  0.00  0.00     0.110 A 
HETATM   23  C   UNK N   1      34.831  10.615  16.130  0.00  0.00     0.172 A 
HETATM   24  F   UNK N   1      34.783   9.322  15.722  0.00  0.00    -0.201 F 
BRANCH  22  25
HETATM   25  O   UNK N   1      35.568  10.027  18.388  0.00  0.00    -0.348 OA
BRANCH  25  26
HETATM   26  C   UNK N   1      34.853   9.733  19.522  0.00  0.00     0.171 C 
HETATM   27  C   UNK N   1      33.698   8.824  19.154  0.00  0.00     0.034 C 
ENDBRANCH  25  26
ENDBRANCH  22  25
ENDBRANCH  16  17
ENDBRANCH  15  16
ENDBRANCH   1  15
TORSDOF 8
ENDMDL
