MODEL 1
REMARK VINA RESULT:      -6.9      0.000      0.000
REMARK  6 active torsions:
REMARK  status: ('A' for Active; 'I' for Inactive)
REMARK    1  A    between atoms: C_5  and  C_6 
REMARK    2  A    between atoms: C_12  and  S_13 
REMARK    3  A    between atoms: S_13  and  N_16 
REMARK    4  A    between atoms: N_16  and  C_17 
REMARK    5  A    between atoms: C_17  and  C_18 
REMARK    6  A    between atoms: C_18  and  C_19 
ROOT
HETATM    1  C   UNK N   1      34.538  15.189   8.939  0.00  0.00     0.034 A 
HETATM    2  C   UNK N   1      34.802  14.161   9.855  0.00  0.00    -0.033 A 
HETATM    3  C   UNK N   1      34.526  12.742   9.485  0.00  0.00     0.153 C 
HETATM    4  N   UNK N   1      34.078  11.996  10.663  0.00  0.00    -0.411 N 
HETATM    5  C   UNK N   1      35.151  11.980  11.661  0.00  0.00     0.109 C 
HETATM    6  C   UNK N   1      35.447  13.397  12.180  0.00  0.00     0.066 C 
HETATM    7  C   UNK N   1      35.274  14.474  11.141  0.00  0.00    -0.048 A 
HETATM    8  C   UNK N   1      35.511  15.802  11.492  0.00  0.00     0.009 A 
HETATM    9  C   UNK N   1      35.255  16.826  10.574  0.00  0.00     0.026 A 
HETATM   10  C   UNK N   1      34.762  16.519   9.302  0.00  0.00     0.080 A 
HETATM   11  H   UNK N   1      33.163  11.559  10.772  0.00  0.00     0.154 HD
ENDROOT
BRANCH  10  12
HETATM   12  S   UNK N   1      34.260  17.843   8.210  0.00  0.00     0.258 S 
HETATM   13  O   UNK N   1      35.131  19.085   8.452  0.00  0.00    -0.201 OA
HETATM   14  O   UNK N   1      34.637  17.525   6.754  0.00  0.00    -0.201 OA
BRANCH  12  15
HETATM   15  N   UNK N   1      32.593  18.469   8.208  0.00  0.00    -0.315 N 
HETATM   16  H   UNK N   1      32.334  19.431   7.989  0.00  0.00     0.172 HD
BRANCH  15  17
HETATM   17  C   UNK N   1      31.650  17.415   8.565  0.00  0.00     0.141 C 
BRANCH  17  18
HETATM   18  C   UNK N   1      30.221  17.860   8.268  0.00  0.00     0.137 C 
BRANCH  18  19
HETATM   19  C   UNK N   1      29.431  18.078   9.550  0.00  0.00     0.389 C 
HETATM   20  F   UNK N   1      28.120  18.370   9.227  0.00  0.00    -0.171 F 
HETATM   21  F   UNK N   1      29.971  19.134  10.260  0.00  0.00    -0.171 F 
HETATM   22  F   UNK N   1      29.454  16.935  10.331  0.00  0.00    -0.171 F 
ENDBRANCH  18  19
ENDBRANCH  17  18
ENDBRANCH  15  17
ENDBRANCH  12  15
ENDBRANCH  10  12
BRANCH   5  23
HETATM   23  C   UNK N   1      34.712  11.106  12.824  0.00  0.00     0.247 C 
HETATM   24  F   UNK N   1      33.518  10.466  12.542  0.00  0.00    -0.253 F 
ENDBRANCH   5  23
TORSDOF 6
ENDMDL
MODEL 2
REMARK VINA RESULT:      -6.7      4.536      7.895
REMARK  6 active torsions:
REMARK  status: ('A' for Active; 'I' for Inactive)
REMARK    1  A    between atoms: C_5  and  C_6 
REMARK    2  A    between atoms: C_12  and  S_13 
REMARK    3  A    between atoms: S_13  and  N_16 
REMARK    4  A    between atoms: N_16  and  C_17 
REMARK    5  A    between atoms: C_17  and  C_18 
REMARK    6  A    between atoms: C_18  and  C_19 
ROOT
HETATM    1  C   UNK N   1      30.027  16.515   5.917  0.00  0.00     0.034 A 
HETATM    2  C   UNK N   1      29.099  17.559   6.028  0.00  0.00    -0.033 A 
HETATM    3  C   UNK N   1      28.343  18.018   4.826  0.00  0.00     0.153 C 
HETATM    4  N   UNK N   1      28.118  19.463   4.899  0.00  0.00    -0.411 N 
HETATM    5  C   UNK N   1      27.287  19.763   6.069  0.00  0.00     0.109 C 
HETATM    6  C   UNK N   1      28.022  19.412   7.374  0.00  0.00     0.066 C 
HETATM    7  C   UNK N   1      28.922  18.209   7.261  0.00  0.00    -0.048 A 
HETATM    8  C   UNK N   1      29.644  17.793   8.379  0.00  0.00     0.009 A 
HETATM    9  C   UNK N   1      30.564  16.745   8.267  0.00  0.00     0.026 A 
HETATM   10  C   UNK N   1      30.760  16.112   7.036  0.00  0.00     0.080 A 
HETATM   11  H   UNK N   1      28.481  20.151   4.240  0.00  0.00     0.154 HD
ENDROOT
BRANCH  10  12
HETATM   12  S   UNK N   1      32.071  14.909   6.864  0.00  0.00     0.258 S 
HETATM   13  O   UNK N   1      32.527  14.424   8.248  0.00  0.00    -0.201 OA
HETATM   14  O   UNK N   1      31.534  13.593   6.278  0.00  0.00    -0.201 OA
BRANCH  12  15
HETATM   15  N   UNK N   1      33.587  15.295   6.014  0.00  0.00    -0.315 N 
HETATM   16  H   UNK N   1      33.820  14.984   5.070  0.00  0.00     0.172 HD
BRANCH  15  17
HETATM   17  C   UNK N   1      34.451  16.117   6.854  0.00  0.00     0.141 C 
BRANCH  17  18
HETATM   18  C   UNK N   1      34.026  17.581   6.779  0.00  0.00     0.137 C 
BRANCH  18  19
HETATM   19  C   UNK N   1      33.968  18.212   8.163  0.00  0.00     0.389 C 
HETATM   20  F   UNK N   1      35.091  18.994   8.349  0.00  0.00    -0.171 F 
HETATM   21  F   UNK N   1      33.934  17.224   9.128  0.00  0.00    -0.171 F 
HETATM   22  F   UNK N   1      32.843  19.012   8.280  0.00  0.00    -0.171 F 
ENDBRANCH  18  19
ENDBRANCH  17  18
ENDBRANCH  15  17
ENDBRANCH  12  15
ENDBRANCH  10  12
BRANCH   5  23
HETATM   23  C   UNK N   1      26.967  21.248   6.063  0.00  0.00     0.247 C 
HETATM   24  F   UNK N   1      28.052  21.992   6.492  0.00  0.00    -0.253 F 
ENDBRANCH   5  23
TORSDOF 6
ENDMDL
MODEL 3
REMARK VINA RESULT:      -6.7      1.526      2.197
REMARK  6 active torsions:
REMARK  status: ('A' for Active; 'I' for Inactive)
REMARK    1  A    between atoms: C_5  and  C_6 
REMARK    2  A    between atoms: C_12  and  S_13 
REMARK    3  A    between atoms: S_13  and  N_16 
REMARK    4  A    between atoms: N_16  and  C_17 
REMARK    5  A    between atoms: C_17  and  C_18 
REMARK    6  A    between atoms: C_18  and  C_19 
ROOT
HETATM    1  C   UNK N   1      34.891  16.238  10.098  0.00  0.00     0.034 A 
HETATM    2  C   UNK N   1      35.414  15.051  10.631  0.00  0.00    -0.033 A 
HETATM    3  C   UNK N   1      35.676  14.943  12.096  0.00  0.00     0.153 C 
HETATM    4  N   UNK N   1      36.861  14.115  12.332  0.00  0.00    -0.411 N 
HETATM    5  C   UNK N   1      36.607  12.758  11.839  0.00  0.00     0.109 C 
HETATM    6  C   UNK N   1      36.418  12.750  10.312  0.00  0.00     0.066 C 
HETATM    7  C   UNK N   1      35.741  13.985   9.776  0.00  0.00    -0.048 A 
HETATM    8  C   UNK N   1      35.515  14.096   8.405  0.00  0.00     0.009 A 
HETATM    9  C   UNK N   1      34.986  15.278   7.877  0.00  0.00     0.026 A 
HETATM   10  C   UNK N   1      34.681  16.349   8.721  0.00  0.00     0.080 A 
HETATM   11  H   UNK N   1      37.725  14.433  12.769  0.00  0.00     0.154 HD
ENDROOT
BRANCH  10  12
HETATM   12  S   UNK N   1      34.188  17.915   8.014  0.00  0.00     0.258 S 
HETATM   13  O   UNK N   1      35.144  19.026   8.473  0.00  0.00    -0.201 OA
HETATM   14  O   UNK N   1      34.449  17.939   6.499  0.00  0.00    -0.201 OA
BRANCH  12  15
HETATM   15  N   UNK N   1      32.564  18.593   8.288  0.00  0.00    -0.315 N 
HETATM   16  H   UNK N   1      32.331  19.584   8.230  0.00  0.00     0.172 HD
BRANCH  15  17
HETATM   17  C   UNK N   1      31.614  17.534   8.610  0.00  0.00     0.141 C 
BRANCH  17  18
HETATM   18  C   UNK N   1      30.188  17.996   8.328  0.00  0.00     0.137 C 
BRANCH  18  19
HETATM   19  C   UNK N   1      29.378  18.107   9.612  0.00  0.00     0.389 C 
HETATM   20  F   UNK N   1      29.477  16.920  10.310  0.00  0.00    -0.171 F 
HETATM   21  F   UNK N   1      28.051  18.348   9.310  0.00  0.00    -0.171 F 
HETATM   22  F   UNK N   1      29.867  19.133  10.403  0.00  0.00    -0.171 F 
ENDBRANCH  18  19
ENDBRANCH  17  18
ENDBRANCH  15  17
ENDBRANCH  12  15
ENDBRANCH  10  12
BRANCH   5  23
HETATM   23  C   UNK N   1      37.800  11.887  12.196  0.00  0.00     0.247 C 
HETATM   24  F   UNK N   1      37.390  10.691  12.759  0.00  0.00    -0.253 F 
ENDBRANCH   5  23
TORSDOF 6
ENDMDL
MODEL 4
REMARK VINA RESULT:      -6.5      5.217      8.130
REMARK  6 active torsions:
REMARK  status: ('A' for Active; 'I' for Inactive)
REMARK    1  A    between atoms: C_5  and  C_6 
REMARK    2  A    between atoms: C_12  and  S_13 
REMARK    3  A    between atoms: S_13  and  N_16 
REMARK    4  A    between atoms: N_16  and  C_17 
REMARK    5  A    between atoms: C_17  and  C_18 
REMARK    6  A    between atoms: C_18  and  C_19 
ROOT
HETATM    1  C   UNK N   1      30.053  16.716   6.640  0.00  0.00     0.034 A 
HETATM    2  C   UNK N   1      29.041  17.674   6.488  0.00  0.00    -0.033 A 
HETATM    3  C   UNK N   1      28.288  17.768   5.204  0.00  0.00     0.153 C 
HETATM    4  N   UNK N   1      27.945  19.164   4.926  0.00  0.00    -0.411 N 
HETATM    5  C   UNK N   1      27.058  19.662   5.982  0.00  0.00     0.109 C 
HETATM    6  C   UNK N   1      27.779  19.695   7.341  0.00  0.00     0.066 C 
HETATM    7  C   UNK N   1      28.775  18.581   7.529  0.00  0.00    -0.048 A 
HETATM    8  C   UNK N   1      29.494  18.505   8.720  0.00  0.00     0.009 A 
HETATM    9  C   UNK N   1      30.498  17.543   8.872  0.00  0.00     0.026 A 
HETATM   10  C   UNK N   1      30.782  16.655   7.831  0.00  0.00     0.080 A 
HETATM   11  H   UNK N   1      28.272  19.705   4.126  0.00  0.00     0.154 HD
ENDROOT
BRANCH  10  12
HETATM   12  S   UNK N   1      32.190  15.562   7.966  0.00  0.00     0.258 S 
HETATM   13  O   UNK N   1      32.345  15.077   9.415  0.00  0.00    -0.201 OA
HETATM   14  O   UNK N   1      31.914  14.224   7.259  0.00  0.00    -0.201 OA
BRANCH  12  15
HETATM   15  N   UNK N   1      33.827  16.086   7.501  0.00  0.00    -0.315 N 
HETATM   16  H   UNK N   1      34.545  16.395   8.156  0.00  0.00     0.172 HD
BRANCH  15  17
HETATM   17  C   UNK N   1      33.997  16.014   6.054  0.00  0.00     0.141 C 
BRANCH  17  18
HETATM   18  C   UNK N   1      33.573  17.328   5.405  0.00  0.00     0.137 C 
BRANCH  18  19
HETATM   19  C   UNK N   1      32.671  17.086   4.203  0.00  0.00     0.389 C 
HETATM   20  F   UNK N   1      31.735  18.099   4.132  0.00  0.00    -0.171 F 
HETATM   21  F   UNK N   1      32.022  15.874   4.339  0.00  0.00    -0.171 F 
HETATM   22  F   UNK N   1      33.416  17.084   3.035  0.00  0.00    -0.171 F 
ENDBRANCH  18  19
ENDBRANCH  17  18
ENDBRANCH  15  17
ENDBRANCH  12  15
ENDBRANCH  10  12
BRANCH   5  23
HETATM   23  C   UNK N   1      26.620  21.071   5.617  0.00  0.00     0.247 C 
HETATM   24  F   UNK N   1      27.438  22.015   6.212  0.00  0.00    -0.253 F 
ENDBRANCH   5  23
TORSDOF 6
ENDMDL
MODEL 5
REMARK VINA RESULT:      -6.5      5.623      7.391
REMARK  6 active torsions:
REMARK  status: ('A' for Active; 'I' for Inactive)
REMARK    1  A    between atoms: C_5  and  C_6 
REMARK    2  A    between atoms: C_12  and  S_13 
REMARK    3  A    between atoms: S_13  and  N_16 
REMARK    4  A    between atoms: N_16  and  C_17 
REMARK    5  A    between atoms: C_17  and  C_18 
REMARK    6  A    between atoms: C_18  and  C_19 
ROOT
HETATM    1  C   UNK N   1      28.515  17.173   6.806  0.00  0.00     0.034 A 
HETATM    2  C   UNK N   1      29.871  17.111   7.155  0.00  0.00    -0.033 A 
HETATM    3  C   UNK N   1      30.272  17.087   8.592  0.00  0.00     0.153 C 
HETATM    4  N   UNK N   1      31.533  17.811   8.772  0.00  0.00    -0.411 N 
HETATM    5  C   UNK N   1      32.590  17.130   8.019  0.00  0.00     0.109 C 
HETATM    6  C   UNK N   1      32.317  17.185   6.506  0.00  0.00     0.066 C 
HETATM    7  C   UNK N   1      30.854  17.126   6.151  0.00  0.00    -0.048 A 
HETATM    8  C   UNK N   1      30.478  17.170   4.809  0.00  0.00     0.009 A 
HETATM    9  C   UNK N   1      29.124  17.224   4.463  0.00  0.00     0.026 A 
HETATM   10  C   UNK N   1      28.145  17.233   5.460  0.00  0.00     0.080 A 
HETATM   11  H   UNK N   1      31.654  18.654   9.331  0.00  0.00     0.154 HD
ENDROOT
BRANCH  10  12
HETATM   12  S   UNK N   1      26.434  17.494   5.012  0.00  0.00     0.258 S 
HETATM   13  O   UNK N   1      26.291  17.543   3.483  0.00  0.00    -0.201 OA
HETATM   14  O   UNK N   1      25.588  16.249   5.325  0.00  0.00    -0.201 OA
BRANCH  12  15
HETATM   15  N   UNK N   1      25.527  18.916   5.583  0.00  0.00    -0.315 N 
HETATM   16  H   UNK N   1      24.899  18.920   6.387  0.00  0.00     0.172 HD
BRANCH  15  17
HETATM   17  C   UNK N   1      25.805  20.073   4.740  0.00  0.00     0.141 C 
BRANCH  17  18
HETATM   18  C   UNK N   1      27.194  20.627   5.040  0.00  0.00     0.137 C 
BRANCH  18  19
HETATM   19  C   UNK N   1      27.253  21.255   6.424  0.00  0.00     0.389 C 
HETATM   20  F   UNK N   1      27.479  20.264   7.359  0.00  0.00    -0.171 F 
HETATM   21  F   UNK N   1      26.055  21.883   6.706  0.00  0.00    -0.171 F 
HETATM   22  F   UNK N   1      28.286  22.175   6.492  0.00  0.00    -0.171 F 
ENDBRANCH  18  19
ENDBRANCH  17  18
ENDBRANCH  15  17
ENDBRANCH  12  15
ENDBRANCH  10  12
BRANCH   5  23
HETATM   23  C   UNK N   1      33.910  17.826   8.310  0.00  0.00     0.247 C 
HETATM   24  F   UNK N   1      33.775  19.201   8.232  0.00  0.00    -0.253 F 
ENDBRANCH   5  23
TORSDOF 6
ENDMDL
MODEL 6
REMARK VINA RESULT:      -6.4      2.464      3.047
REMARK  6 active torsions:
REMARK  status: ('A' for Active; 'I' for Inactive)
REMARK    1  A    between atoms: C_5  and  C_6 
REMARK    2  A    between atoms: C_12  and  S_13 
REMARK    3  A    between atoms: S_13  and  N_16 
REMARK    4  A    between atoms: N_16  and  C_17 
REMARK    5  A    between atoms: C_17  and  C_18 
REMARK    6  A    between atoms: C_18  and  C_19 
ROOT
HETATM    1  C   UNK N   1      34.943  16.223  10.139  0.00  0.00     0.034 A 
HETATM    2  C   UNK N   1      35.449  15.030  10.673  0.00  0.00    -0.033 A 
HETATM    3  C   UNK N   1      35.709  14.918  12.138  0.00  0.00     0.153 C 
HETATM    4  N   UNK N   1      36.883  14.075  12.374  0.00  0.00    -0.411 N 
HETATM    5  C   UNK N   1      36.611  12.721  11.881  0.00  0.00     0.109 C 
HETATM    6  C   UNK N   1      36.423  12.715  10.354  0.00  0.00     0.066 C 
HETATM    7  C   UNK N   1      35.763  13.959   9.818  0.00  0.00    -0.048 A 
HETATM    8  C   UNK N   1      35.539  14.073   8.447  0.00  0.00     0.009 A 
HETATM    9  C   UNK N   1      35.026  15.262   7.918  0.00  0.00     0.026 A 
HETATM   10  C   UNK N   1      34.735  16.337   8.762  0.00  0.00     0.080 A 
HETATM   11  H   UNK N   1      37.751  14.381  12.812  0.00  0.00     0.154 HD
ENDROOT
BRANCH  10  12
HETATM   12  S   UNK N   1      34.262  17.909   8.054  0.00  0.00     0.258 S 
HETATM   13  O   UNK N   1      35.225  19.010   8.524  0.00  0.00    -0.201 OA
HETATM   14  O   UNK N   1      34.537  17.934   6.541  0.00  0.00    -0.201 OA
BRANCH  12  15
HETATM   15  N   UNK N   1      32.643  18.602   8.316  0.00  0.00    -0.315 N 
HETATM   16  H   UNK N   1      32.449  19.595   8.442  0.00  0.00     0.172 HD
BRANCH  15  17
HETATM   17  C   UNK N   1      31.632  17.550   8.328  0.00  0.00     0.141 C 
BRANCH  17  18
HETATM   18  C   UNK N   1      31.293  17.123   6.904  0.00  0.00     0.137 C 
BRANCH  18  19
HETATM   19  C   UNK N   1      31.429  15.618   6.729  0.00  0.00     0.389 C 
HETATM   20  F   UNK N   1      32.445  15.358   5.830  0.00  0.00    -0.171 F 
HETATM   21  F   UNK N   1      30.246  15.093   6.245  0.00  0.00    -0.171 F 
HETATM   22  F   UNK N   1      31.740  15.019   7.939  0.00  0.00    -0.171 F 
ENDBRANCH  18  19
ENDBRANCH  17  18
ENDBRANCH  15  17
ENDBRANCH  12  15
ENDBRANCH  10  12
BRANCH   5  23
HETATM   23  C   UNK N   1      37.792  11.834  12.239  0.00  0.00     0.247 C 
HETATM   24  F   UNK N   1      37.818  11.565  13.596  0.00  0.00    -0.253 F 
ENDBRANCH   5  23
TORSDOF 6
ENDMDL
MODEL 7
REMARK VINA RESULT:      -6.4     18.429     20.763
REMARK  6 active torsions:
REMARK  status: ('A' for Active; 'I' for Inactive)
REMARK    1  A    between atoms: C_5  and  C_6 
REMARK    2  A    between atoms: C_12  and  S_13 
REMARK    3  A    between atoms: S_13  and  N_16 
REMARK    4  A    between atoms: N_16  and  C_17 
REMARK    5  A    between atoms: C_17  and  C_18 
REMARK    6  A    between atoms: C_18  and  C_19 
ROOT
HETATM    1  C   UNK N   1      27.190  27.346  -6.941  0.00  0.00     0.034 A 
HETATM    2  C   UNK N   1      27.153  28.358  -5.972  0.00  0.00    -0.033 A 
HETATM    3  C   UNK N   1      28.204  29.417  -5.958  0.00  0.00     0.153 C 
HETATM    4  N   UNK N   1      28.496  29.814  -4.579  0.00  0.00    -0.411 N 
HETATM    5  C   UNK N   1      27.291  30.395  -3.979  0.00  0.00     0.109 C 
HETATM    6  C   UNK N   1      26.171  29.347  -3.860  0.00  0.00     0.066 C 
HETATM    7  C   UNK N   1      26.157  28.342  -4.981  0.00  0.00    -0.048 A 
HETATM    8  C   UNK N   1      25.188  27.339  -4.983  0.00  0.00     0.009 A 
HETATM    9  C   UNK N   1      25.222  26.335  -5.956  0.00  0.00     0.026 A 
HETATM   10  C   UNK N   1      26.226  26.334  -6.929  0.00  0.00     0.080 A 
HETATM   11  H   UNK N   1      29.394  29.702  -4.110  0.00  0.00     0.154 HD
ENDROOT
BRANCH  10  12
HETATM   12  S   UNK N   1      26.370  24.945  -8.045  0.00  0.00     0.258 S 
HETATM   13  O   UNK N   1      25.038  24.184  -8.115  0.00  0.00    -0.201 OA
HETATM   14  O   UNK N   1      26.489  25.422  -9.502  0.00  0.00    -0.201 OA
BRANCH  12  15
HETATM   15  N   UNK N   1      27.590  23.671  -7.796  0.00  0.00    -0.315 N 
HETATM   16  H   UNK N   1      28.279  23.383  -8.491  0.00  0.00     0.172 HD
BRANCH  15  17
HETATM   17  C   UNK N   1      27.465  23.096  -6.462  0.00  0.00     0.141 C 
BRANCH  17  18
HETATM   18  C   UNK N   1      28.436  23.772  -5.499  0.00  0.00     0.137 C 
BRANCH  18  19
HETATM   19  C   UNK N   1      27.744  24.178  -4.207  0.00  0.00     0.389 C 
HETATM   20  F   UNK N   1      26.404  23.856  -4.294  0.00  0.00    -0.171 F 
HETATM   21  F   UNK N   1      27.874  25.540  -4.012  0.00  0.00    -0.171 F 
HETATM   22  F   UNK N   1      28.296  23.502  -3.132  0.00  0.00    -0.171 F 
ENDBRANCH  18  19
ENDBRANCH  17  18
ENDBRANCH  15  17
ENDBRANCH  12  15
ENDBRANCH  10  12
BRANCH   5  23
HETATM   23  C   UNK N   1      27.644  30.905  -2.592  0.00  0.00     0.247 C 
HETATM   24  F   UNK N   1      27.722  29.864  -1.684  0.00  0.00    -0.253 F 
ENDBRANCH   5  23
TORSDOF 6
ENDMDL
MODEL 8
REMARK VINA RESULT:      -6.4      9.854     12.827
REMARK  6 active torsions:
REMARK  status: ('A' for Active; 'I' for Inactive)
REMARK    1  A    between atoms: C_5  and  C_6 
REMARK    2  A    between atoms: C_12  and  S_13 
REMARK    3  A    between atoms: S_13  and  N_16 
REMARK    4  A    between atoms: N_16  and  C_17 
REMARK    5  A    between atoms: C_17  and  C_18 
REMARK    6  A    between atoms: C_18  and  C_19 
ROOT
HETATM    1  C   UNK N   1      23.596  18.575   3.901  0.00  0.00     0.034 A 
HETATM    2  C   UNK N   1      24.935  18.325   4.231  0.00  0.00    -0.033 A 
HETATM    3  C   UNK N   1      25.292  17.135   5.057  0.00  0.00     0.153 C 
HETATM    4  N   UNK N   1      26.425  17.453   5.929  0.00  0.00    -0.411 N 
HETATM    5  C   UNK N   1      27.594  17.768   5.102  0.00  0.00     0.109 C 
HETATM    6  C   UNK N   1      27.361  19.045   4.277  0.00  0.00     0.066 C 
HETATM    7  C   UNK N   1      25.935  19.228   3.829  0.00  0.00    -0.048 A 
HETATM    8  C   UNK N   1      25.597  20.351   3.074  0.00  0.00     0.009 A 
HETATM    9  C   UNK N   1      24.261  20.593   2.739  0.00  0.00     0.026 A 
HETATM   10  C   UNK N   1      23.261  19.710   3.158  0.00  0.00     0.080 A 
HETATM   11  H   UNK N   1      26.405  17.455   6.948  0.00  0.00     0.154 HD
ENDROOT
BRANCH  10  12
HETATM   12  S   UNK N   1      21.545  20.131   2.888  0.00  0.00     0.258 S 
HETATM   13  O   UNK N   1      20.751  19.973   4.193  0.00  0.00    -0.201 OA
HETATM   14  O   UNK N   1      21.382  21.641   2.650  0.00  0.00    -0.201 OA
BRANCH  12  15
HETATM   15  N   UNK N   1      20.558  19.286   1.670  0.00  0.00    -0.315 N 
HETATM   16  H   UNK N   1      20.504  19.543   0.685  0.00  0.00     0.172 HD
BRANCH  15  17
HETATM   17  C   UNK N   1      19.834  18.175   2.279  0.00  0.00     0.141 C 
BRANCH  17  18
HETATM   18  C   UNK N   1      20.699  16.918   2.285  0.00  0.00     0.137 C 
BRANCH  18  19
HETATM   19  C   UNK N   1      20.364  16.008   1.113  0.00  0.00     0.389 C 
HETATM   20  F   UNK N   1      19.349  15.149   1.486  0.00  0.00    -0.171 F 
HETATM   21  F   UNK N   1      21.478  15.272   0.757  0.00  0.00    -0.171 F 
HETATM   22  F   UNK N   1      19.938  16.757   0.029  0.00  0.00    -0.171 F 
ENDBRANCH  18  19
ENDBRANCH  17  18
ENDBRANCH  15  17
ENDBRANCH  12  15
ENDBRANCH  10  12
BRANCH   5  23
HETATM   23  C   UNK N   1      28.787  17.980   6.019  0.00  0.00     0.247 C 
HETATM   24  F   UNK N   1      28.466  18.828   7.065  0.00  0.00    -0.253 F 
ENDBRANCH   5  23
TORSDOF 6
ENDMDL
MODEL 9
REMARK VINA RESULT:      -6.4      3.073      7.603
REMARK  6 active torsions:
REMARK  status: ('A' for Active; 'I' for Inactive)
REMARK    1  A    between atoms: C_5  and  C_6 
REMARK    2  A    between atoms: C_12  and  S_13 
REMARK    3  A    between atoms: S_13  and  N_16 
REMARK    4  A    between atoms: N_16  and  C_17 
REMARK    5  A    between atoms: C_17  and  C_18 
REMARK    6  A    between atoms: C_18  and  C_19 
ROOT
HETATM    1  C   UNK N   1      32.213  17.146   6.517  0.00  0.00     0.034 A 
HETATM    2  C   UNK N   1      30.903  17.197   6.023  0.00  0.00    -0.033 A 
HETATM    3  C   UNK N   1      30.633  16.893   4.588  0.00  0.00     0.153 C 
HETATM    4  N   UNK N   1      29.533  17.726   4.098  0.00  0.00    -0.411 N 
HETATM    5  C   UNK N   1      28.313  17.401   4.843  0.00  0.00     0.109 C 
HETATM    6  C   UNK N   1      28.456  17.771   6.329  0.00  0.00     0.066 C 
HETATM    7  C   UNK N   1      29.851  17.590   6.869  0.00  0.00    -0.048 A 
HETATM    8  C   UNK N   1      30.108  17.894   8.205  0.00  0.00     0.009 A 
HETATM    9  C   UNK N   1      31.416  17.835   8.698  0.00  0.00     0.026 A 
HETATM   10  C   UNK N   1      32.467  17.468   7.853  0.00  0.00     0.080 A 
HETATM   11  H   UNK N   1      29.604  18.422   3.357  0.00  0.00     0.154 HD
ENDROOT
BRANCH  10  12
HETATM   12  S   UNK N   1      34.151  17.580   8.443  0.00  0.00     0.258 S 
HETATM   13  O   UNK N   1      35.084  16.763   7.538  0.00  0.00    -0.201 OA
HETATM   14  O   UNK N   1      34.718  18.991   8.216  0.00  0.00    -0.201 OA
BRANCH  12  15
HETATM   15  N   UNK N   1      34.596  17.083  10.094  0.00  0.00    -0.315 N 
HETATM   16  H   UNK N   1      34.473  17.657  10.928  0.00  0.00     0.172 HD
BRANCH  15  17
HETATM   17  C   UNK N   1      35.164  15.739  10.088  0.00  0.00     0.141 C 
BRANCH  17  18
HETATM   18  C   UNK N   1      34.562  14.904  11.214  0.00  0.00     0.137 C 
BRANCH  18  19
HETATM   19  C   UNK N   1      35.622  14.489  12.224  0.00  0.00     0.389 C 
HETATM   20  F   UNK N   1      36.611  13.778  11.573  0.00  0.00    -0.171 F 
HETATM   21  F   UNK N   1      35.054  13.691  13.200  0.00  0.00    -0.171 F 
HETATM   22  F   UNK N   1      36.189  15.607  12.813  0.00  0.00    -0.171 F 
ENDBRANCH  18  19
ENDBRANCH  17  18
ENDBRANCH  15  17
ENDBRANCH  12  15
ENDBRANCH  10  12
BRANCH   5  23
HETATM   23  C   UNK N   1      27.160  18.189   4.244  0.00  0.00     0.247 C 
HETATM   24  F   UNK N   1      27.008  19.409   4.879  0.00  0.00    -0.253 F 
ENDBRANCH   5  23
TORSDOF 6
ENDMDL
