REMARK  6 active torsions:
REMARK  status: ('A' for Active; 'I' for Inactive)
REMARK    1  A    between atoms: C_3  and  S_19 
REMARK    2  A    between atoms: C_4  and  C_5 
REMARK       I    between atoms: C_4  and  N_21 
REMARK    3  A    between atoms: C_8  and  N_10 
REMARK    4  A    between atoms: C_16  and  N_21 
REMARK    5  A    between atoms: S_19  and  N_20 
REMARK    6  A    between atoms: N_20  and  C_26 
ROOT
HETATM    1  C   UNK N   1      -0.310   5.822   0.310  0.00  0.00     0.002 A 
HETATM    2  C   UNK N   1       0.632   4.874  -0.097  0.00  0.00     0.027 A 
HETATM    3  C   UNK N   1       0.248   3.545  -0.283  0.00  0.00     0.106 A 
HETATM    4  C   UNK N   1      -1.087   3.164  -0.065  0.00  0.00     0.058 A 
HETATM    5  C   UNK N   1      -2.033   4.113   0.339  0.00  0.00     0.031 A 
HETATM    6  C   UNK N   1      -1.642   5.444   0.521  0.00  0.00     0.002 A 
ENDROOT
BRANCH   4   7
HETATM    7  N   UNK N   1      -1.397   1.799  -0.215  0.00  0.00    -0.322 N 
HETATM    8  C   UNK N   1      -2.540   1.082  -0.117  0.00  0.00     0.256 C 
HETATM    9  O   UNK N   1      -3.623   1.616   0.068  0.00  0.00    -0.267 OA
HETATM   10  H   UNK N   1      -0.613   1.248  -0.440  0.00  0.00     0.169 HD
BRANCH   8  11
HETATM   11  C   UNK N   1      -2.375  -0.384  -0.163  0.00  0.00     0.032 A 
HETATM   12  C   UNK N   1      -1.066  -0.850  -0.298  0.00  0.00     0.019 A 
HETATM   13  C   UNK N   1      -0.769  -2.189  -0.233  0.00  0.00     0.031 A 
HETATM   14  C   UNK N   1      -1.767  -3.138  -0.030  0.00  0.00     0.042 A 
HETATM   15  C   UNK N   1      -3.109  -2.689   0.066  0.00  0.00     0.031 A 
HETATM   16  C   UNK N   1      -3.414  -1.311   0.008  0.00  0.00     0.019 A 
BRANCH  14  17
HETATM   17  N   UNK N   1      -1.414  -4.543   0.114  0.00  0.00    -0.290 N 
HETATM   18  C   UNK N   1      -0.087  -4.980   0.199  0.00  0.00     0.252 A 
HETATM   19  C   UNK N   1       0.202  -6.333   0.356  0.00  0.00     0.075 A 
HETATM   20  O   UNK N   1       0.846  -4.194   0.155  0.00  0.00    -0.268 OA
HETATM   21  C   UNK N   1      -0.832  -7.257   0.427  0.00  0.00     0.007 A 
HETATM   22  C   UNK N   1      -2.150  -6.822   0.346  0.00  0.00     0.018 A 
HETATM   23  C   UNK N   1      -2.423  -5.462   0.194  0.00  0.00     0.100 A 
ENDBRANCH  14  17
ENDBRANCH   8  11
ENDBRANCH   4   7
BRANCH   3  24
HETATM   24  S   UNK N   1       1.467   2.330  -0.852  0.00  0.00     0.266 S 
HETATM   25  O   UNK N   1       0.829   1.120  -1.550  0.00  0.00    -0.200 OA
HETATM   26  O   UNK N   1       2.294   2.886  -2.020  0.00  0.00    -0.200 OA
BRANCH  24  27
HETATM   27  N   UNK N   1       2.654   1.609   0.223  0.00  0.00    -0.266 N 
HETATM   28  H   UNK N   1       2.421   0.806   0.744  0.00  0.00     0.180 HD
BRANCH  27  29
HETATM   29  C   UNK N   1       3.941   2.175   0.344  0.00  0.00     0.114 A 
HETATM   30  C   UNK N   1       5.035   1.358   0.642  0.00  0.00     0.051 A 
HETATM   31  C   UNK N   1       6.318   1.910   0.641  0.00  0.00     0.029 A 
HETATM   32  C   UNK N   1       6.486   3.267   0.357  0.00  0.00     0.049 A 
HETATM   33  C   UNK N   1       5.369   4.055   0.089  0.00  0.00     0.113 A 
HETATM   34 Cl   UNK N   1       8.085   3.974   0.311  0.00  0.00    -0.083 Cl
HETATM   35  N   UNK N   1       4.131   3.497   0.078  0.00  0.00    -0.350 N 
ATOM     36  HN  UNK N   1       3.324   4.083  -0.134  1.00  0.00     0.166 HD
ENDBRANCH  27  29
ENDBRANCH  24  27
ENDBRANCH   3  24
TORSDOF 6
