MODEL 1
REMARK VINA RESULT:      -8.5      0.000      0.000
REMARK  6 active torsions:
REMARK  status: ('A' for Active; 'I' for Inactive)
REMARK    1  A    between atoms: C_3  and  S_19 
REMARK    2  A    between atoms: C_4  and  C_5 
REMARK       I    between atoms: C_4  and  N_21 
REMARK    3  A    between atoms: C_8  and  N_10 
REMARK    4  A    between atoms: C_16  and  N_21 
REMARK    5  A    between atoms: S_19  and  N_20 
REMARK    6  A    between atoms: N_20  and  C_26 
ROOT
HETATM    1  C   UNK N   1      36.400  13.838   6.888  0.00  0.00     0.002 A 
HETATM    2  C   UNK N   1      35.859  14.727   7.820  0.00  0.00     0.027 A 
HETATM    3  C   UNK N   1      35.793  14.371   9.168  0.00  0.00     0.106 A 
HETATM    4  C   UNK N   1      36.277  13.119   9.586  0.00  0.00     0.058 A 
HETATM    5  C   UNK N   1      36.823  12.228   8.655  0.00  0.00     0.031 A 
HETATM    6  C   UNK N   1      36.888  12.593   7.306  0.00  0.00     0.002 A 
ENDROOT
BRANCH   4   7
HETATM    7  N   UNK N   1      36.131  12.798  10.949  0.00  0.00    -0.322 N 
HETATM    8  C   UNK N   1      35.288  11.993  11.636  0.00  0.00     0.256 C 
HETATM    9  O   UNK N   1      34.475  11.277  11.071  0.00  0.00    -0.267 OA
HETATM   10  H   UNK N   1      36.781  13.259  11.526  0.00  0.00     0.169 HD
BRANCH   8  11
HETATM   11  C   UNK N   1      35.363  12.103  13.106  0.00  0.00     0.032 A 
HETATM   12  C   UNK N   1      34.377  11.424  13.823  0.00  0.00     0.019 A 
HETATM   13  C   UNK N   1      34.406  11.350  15.194  0.00  0.00     0.031 A 
HETATM   14  C   UNK N   1      35.426  11.954  15.925  0.00  0.00     0.042 A 
HETATM   15  C   UNK N   1      36.414  12.686  15.218  0.00  0.00     0.031 A 
HETATM   16  C   UNK N   1      36.389  12.755  13.807  0.00  0.00     0.019 A 
BRANCH  14  17
HETATM   17  N   UNK N   1      35.476  11.792  17.371  0.00  0.00    -0.290 N 
HETATM   18  C   UNK N   1      35.208  12.844  18.254  0.00  0.00     0.252 A 
HETATM   19  C   UNK N   1      35.248  12.637  19.631  0.00  0.00     0.075 A 
HETATM   20  O   UNK N   1      34.917  13.958  17.849  0.00  0.00    -0.268 OA
HETATM   21  C   UNK N   1      35.559  11.380  20.132  0.00  0.00     0.007 A 
HETATM   22  C   UNK N   1      35.822  10.335  19.254  0.00  0.00     0.018 A 
HETATM   23  C   UNK N   1      35.772  10.557  17.877  0.00  0.00     0.100 A 
ENDBRANCH  14  17
ENDBRANCH   8  11
ENDBRANCH   4   7
BRANCH   3  24
HETATM   24  S   UNK N   1      35.129  15.547  10.376  0.00  0.00     0.266 S 
HETATM   25  O   UNK N   1      33.982  14.965  11.214  0.00  0.00    -0.200 OA
HETATM   26  O   UNK N   1      36.144  15.820  11.495  0.00  0.00    -0.200 OA
BRANCH  24  27
HETATM   27  N   UNK N   1      34.540  17.138   9.919  0.00  0.00    -0.266 N 
HETATM   28  H   UNK N   1      34.836  17.933  10.420  0.00  0.00     0.180 HD
BRANCH  27  29
HETATM   29  C   UNK N   1      33.646  17.283   8.838  0.00  0.00     0.114 A 
HETATM   30  C   UNK N   1      34.125  17.680   7.586  0.00  0.00     0.051 A 
HETATM   31  C   UNK N   1      33.251  17.703   6.498  0.00  0.00     0.029 A 
HETATM   32  C   UNK N   1      31.913  17.344   6.678  0.00  0.00     0.049 A 
HETATM   33  C   UNK N   1      31.466  16.978   7.945  0.00  0.00     0.113 A 
HETATM   34 Cl   UNK N   1      30.807  17.328   5.323  0.00  0.00    -0.083 Cl
HETATM   35  N   UNK N   1      32.335  16.945   8.989  0.00  0.00    -0.350 N 
ATOM     36  HN  UNK N   1      31.997  16.661   9.908  1.00  0.00     0.166 HD
ENDBRANCH  27  29
ENDBRANCH  24  27
ENDBRANCH   3  24
TORSDOF 6
ENDMDL
MODEL 2
REMARK VINA RESULT:      -8.4      3.417      9.007
REMARK  6 active torsions:
REMARK  status: ('A' for Active; 'I' for Inactive)
REMARK    1  A    between atoms: C_3  and  S_19 
REMARK    2  A    between atoms: C_4  and  C_5 
REMARK       I    between atoms: C_4  and  N_21 
REMARK    3  A    between atoms: C_8  and  N_10 
REMARK    4  A    between atoms: C_16  and  N_21 
REMARK    5  A    between atoms: S_19  and  N_20 
REMARK    6  A    between atoms: N_20  and  C_26 
ROOT
HETATM    1  C   UNK N   1      39.129  12.214   9.758  0.00  0.00     0.002 A 
HETATM    2  C   UNK N   1      38.413  13.120  10.544  0.00  0.00     0.027 A 
HETATM    3  C   UNK N   1      37.276  13.745  10.027  0.00  0.00     0.106 A 
HETATM    4  C   UNK N   1      36.852  13.458   8.719  0.00  0.00     0.058 A 
HETATM    5  C   UNK N   1      37.566  12.547   7.931  0.00  0.00     0.031 A 
HETATM    6  C   UNK N   1      38.703  11.922   8.457  0.00  0.00     0.002 A 
ENDROOT
BRANCH   4   7
HETATM    7  N   UNK N   1      35.733  14.163   8.238  0.00  0.00    -0.322 N 
HETATM    8  C   UNK N   1      35.500  14.909   7.134  0.00  0.00     0.256 C 
HETATM    9  O   UNK N   1      36.329  15.022   6.244  0.00  0.00    -0.267 OA
HETATM   10  H   UNK N   1      34.952  14.099   8.833  0.00  0.00     0.169 HD
BRANCH   8  11
HETATM   11  C   UNK N   1      34.218  15.640   7.121  0.00  0.00     0.032 A 
HETATM   12  C   UNK N   1      33.106  14.936   7.586  0.00  0.00     0.019 A 
HETATM   13  C   UNK N   1      31.882  15.541   7.737  0.00  0.00     0.031 A 
HETATM   14  C   UNK N   1      31.703  16.887   7.429  0.00  0.00     0.042 A 
HETATM   15  C   UNK N   1      32.810  17.610   6.914  0.00  0.00     0.031 A 
HETATM   16  C   UNK N   1      34.070  16.990   6.767  0.00  0.00     0.019 A 
BRANCH  14  17
HETATM   17  N   UNK N   1      30.416  17.522   7.674  0.00  0.00    -0.290 N 
HETATM   18  C   UNK N   1      29.434  17.636   6.683  0.00  0.00     0.252 A 
HETATM   19  C   UNK N   1      28.209  18.234   6.969  0.00  0.00     0.075 A 
HETATM   20  O   UNK N   1      29.613  17.203   5.556  0.00  0.00    -0.268 OA
HETATM   21  C   UNK N   1      27.960  18.724   8.244  0.00  0.00     0.007 A 
HETATM   22  C   UNK N   1      28.935  18.607   9.228  0.00  0.00     0.018 A 
HETATM   23  C   UNK N   1      30.155  18.000   8.927  0.00  0.00     0.100 A 
ENDBRANCH  14  17
ENDBRANCH   8  11
ENDBRANCH   4   7
BRANCH   3  24
HETATM   24  S   UNK N   1      36.329  14.888  11.068  0.00  0.00     0.266 S 
HETATM   25  O   UNK N   1      36.503  16.358  10.660  0.00  0.00    -0.200 OA
HETATM   26  O   UNK N   1      34.821  14.735  10.821  0.00  0.00    -0.200 OA
BRANCH  24  27
HETATM   27  N   UNK N   1      36.486  14.923  12.817  0.00  0.00    -0.266 N 
HETATM   28  H   UNK N   1      36.844  15.726  13.262  0.00  0.00     0.180 HD
BRANCH  27  29
HETATM   29  C   UNK N   1      36.103  13.806  13.589  0.00  0.00     0.114 A 
HETATM   30  C   UNK N   1      36.544  13.688  14.909  0.00  0.00     0.051 A 
HETATM   31  C   UNK N   1      36.062  12.641  15.698  0.00  0.00     0.029 A 
HETATM   32  C   UNK N   1      35.159  11.725  15.154  0.00  0.00     0.049 A 
HETATM   33  C   UNK N   1      34.761  11.861  13.826  0.00  0.00     0.113 A 
HETATM   34 Cl   UNK N   1      34.510  10.428  16.132  0.00  0.00    -0.083 Cl
HETATM   35  N   UNK N   1      35.228  12.894  13.079  0.00  0.00    -0.350 N 
ATOM     36  HN  UNK N   1      34.917  12.990  12.113  1.00  0.00     0.166 HD
ENDBRANCH  27  29
ENDBRANCH  24  27
ENDBRANCH   3  24
TORSDOF 6
ENDMDL
MODEL 3
REMARK VINA RESULT:      -8.3      9.452     14.747
REMARK  6 active torsions:
REMARK  status: ('A' for Active; 'I' for Inactive)
REMARK    1  A    between atoms: C_3  and  S_19 
REMARK    2  A    between atoms: C_4  and  C_5 
REMARK       I    between atoms: C_4  and  N_21 
REMARK    3  A    between atoms: C_8  and  N_10 
REMARK    4  A    between atoms: C_16  and  N_21 
REMARK    5  A    between atoms: S_19  and  N_20 
REMARK    6  A    between atoms: N_20  and  C_26 
ROOT
HETATM    1  C   UNK N   1      19.539  19.302   2.438  0.00  0.00     0.002 A 
HETATM    2  C   UNK N   1      20.065  18.269   3.217  0.00  0.00     0.027 A 
HETATM    3  C   UNK N   1      21.390  18.329   3.651  0.00  0.00     0.106 A 
HETATM    4  C   UNK N   1      22.191  19.431   3.308  0.00  0.00     0.058 A 
HETATM    5  C   UNK N   1      21.665  20.469   2.531  0.00  0.00     0.031 A 
HETATM    6  C   UNK N   1      20.335  20.404   2.101  0.00  0.00     0.002 A 
ENDROOT
BRANCH   4   7
HETATM    7  N   UNK N   1      23.534  19.404   3.729  0.00  0.00    -0.322 N 
HETATM    8  C   UNK N   1      24.676  19.953   3.255  0.00  0.00     0.256 C 
HETATM    9  O   UNK N   1      24.677  20.718   2.302  0.00  0.00    -0.267 OA
HETATM   10  H   UNK N   1      23.672  18.870   4.545  0.00  0.00     0.169 HD
BRANCH   8  11
HETATM   11  C   UNK N   1      25.918  19.500   3.911  0.00  0.00     0.032 A 
HETATM   12  C   UNK N   1      26.091  18.118   4.009  0.00  0.00     0.019 A 
HETATM   13  C   UNK N   1      27.256  17.571   4.488  0.00  0.00     0.031 A 
HETATM   14  C   UNK N   1      28.314  18.378   4.898  0.00  0.00     0.042 A 
HETATM   15  C   UNK N   1      28.142  19.785   4.848  0.00  0.00     0.031 A 
HETATM   16  C   UNK N   1      26.947  20.348   4.346  0.00  0.00     0.019 A 
BRANCH  14  17
HETATM   17  N   UNK N   1      29.565  17.771   5.327  0.00  0.00    -0.290 N 
HETATM   18  C   UNK N   1      29.797  17.381   6.651  0.00  0.00     0.252 A 
HETATM   19  C   UNK N   1      31.003  16.785   7.011  0.00  0.00     0.075 A 
HETATM   20  O   UNK N   1      28.950  17.534   7.517  0.00  0.00    -0.268 OA
HETATM   21  C   UNK N   1      31.985  16.579   6.051  0.00  0.00     0.007 A 
HETATM   22  C   UNK N   1      31.753  16.963   4.736  0.00  0.00     0.018 A 
HETATM   23  C   UNK N   1      30.537  17.554   4.390  0.00  0.00     0.100 A 
ENDBRANCH  14  17
ENDBRANCH   8  11
ENDBRANCH   4   7
BRANCH   3  24
HETATM   24  S   UNK N   1      22.052  17.005   4.697  0.00  0.00     0.266 S 
HETATM   25  O   UNK N   1      23.141  16.175   4.000  0.00  0.00    -0.200 OA
HETATM   26  O   UNK N   1      22.879  17.580   5.856  0.00  0.00    -0.200 OA
BRANCH  24  27
HETATM   27  N   UNK N   1      21.027  15.793   5.449  0.00  0.00    -0.266 N 
HETATM   28  H   UNK N   1      20.194  15.510   5.004  0.00  0.00     0.180 HD
BRANCH  27  29
HETATM   29  C   UNK N   1      21.390  15.222   6.687  0.00  0.00     0.114 A 
HETATM   30  C   UNK N   1      20.503  15.277   7.765  0.00  0.00     0.051 A 
HETATM   31  C   UNK N   1      20.825  14.605   8.947  0.00  0.00     0.029 A 
HETATM   32  C   UNK N   1      22.028  13.903   9.037  0.00  0.00     0.049 A 
HETATM   33  C   UNK N   1      22.899  13.891   7.949  0.00  0.00     0.113 A 
HETATM   34 Cl   UNK N   1      22.436  13.021  10.491  0.00  0.00    -0.083 Cl
HETATM   35  N   UNK N   1      22.561  14.536   6.803  0.00  0.00    -0.350 N 
ATOM     36  HN  UNK N   1      23.201  14.507   6.010  1.00  0.00     0.166 HD
ENDBRANCH  27  29
ENDBRANCH  24  27
ENDBRANCH   3  24
TORSDOF 6
ENDMDL
MODEL 4
REMARK VINA RESULT:      -8.3      3.177      8.215
REMARK  6 active torsions:
REMARK  status: ('A' for Active; 'I' for Inactive)
REMARK    1  A    between atoms: C_3  and  S_19 
REMARK    2  A    between atoms: C_4  and  C_5 
REMARK       I    between atoms: C_4  and  N_21 
REMARK    3  A    between atoms: C_8  and  N_10 
REMARK    4  A    between atoms: C_16  and  N_21 
REMARK    5  A    between atoms: S_19  and  N_20 
REMARK    6  A    between atoms: N_20  and  C_26 
ROOT
HETATM    1  C   UNK N   1      37.089  12.303  14.344  0.00  0.00     0.002 A 
HETATM    2  C   UNK N   1      36.743  11.700  13.133  0.00  0.00     0.027 A 
HETATM    3  C   UNK N   1      36.142  12.456  12.124  0.00  0.00     0.106 A 
HETATM    4  C   UNK N   1      35.892  13.824  12.328  0.00  0.00     0.058 A 
HETATM    5  C   UNK N   1      36.242  14.431  13.540  0.00  0.00     0.031 A 
HETATM    6  C   UNK N   1      36.846  13.668  14.545  0.00  0.00     0.002 A 
ENDROOT
BRANCH   4   7
HETATM    7  N   UNK N   1      35.233  14.516  11.294  0.00  0.00    -0.322 N 
HETATM    8  C   UNK N   1      35.507  15.645  10.600  0.00  0.00     0.256 C 
HETATM    9  O   UNK N   1      36.553  16.258  10.752  0.00  0.00    -0.267 OA
HETATM   10  H   UNK N   1      34.393  14.086  11.017  0.00  0.00     0.169 HD
BRANCH   8  11
HETATM   11  C   UNK N   1      34.426  16.125   9.718  0.00  0.00     0.032 A 
HETATM   12  C   UNK N   1      33.305  15.299   9.617  0.00  0.00     0.019 A 
HETATM   13  C   UNK N   1      32.185  15.689   8.925  0.00  0.00     0.031 A 
HETATM   14  C   UNK N   1      32.125  16.928   8.293  0.00  0.00     0.042 A 
HETATM   15  C   UNK N   1      33.270  17.764   8.347  0.00  0.00     0.031 A 
HETATM   16  C   UNK N   1      34.419  17.367   9.066  0.00  0.00     0.019 A 
BRANCH  14  17
HETATM   17  N   UNK N   1      30.896  17.348   7.634  0.00  0.00    -0.290 N 
HETATM   18  C   UNK N   1      29.894  18.065   8.298  0.00  0.00     0.252 A 
HETATM   19  C   UNK N   1      28.744  18.463   7.621  0.00  0.00     0.075 A 
HETATM   20  O   UNK N   1      30.005  18.374   9.474  0.00  0.00    -0.268 OA
HETATM   21  C   UNK N   1      28.588  18.145   6.278  0.00  0.00     0.007 A 
HETATM   22  C   UNK N   1      29.585  17.436   5.619  0.00  0.00     0.018 A 
HETATM   23  C   UNK N   1      30.734  17.050   6.310  0.00  0.00     0.100 A 
ENDBRANCH  14  17
ENDBRANCH   8  11
ENDBRANCH   4   7
BRANCH   3  24
HETATM   24  S   UNK N   1      35.735  11.675  10.540  0.00  0.00     0.266 S 
HETATM   25  O   UNK N   1      35.871  10.146  10.571  0.00  0.00    -0.200 OA
HETATM   26  O   UNK N   1      34.233  11.788  10.241  0.00  0.00    -0.200 OA
BRANCH  24  27
HETATM   27  N   UNK N   1      36.517  12.130   9.034  0.00  0.00    -0.266 N 
HETATM   28  H   UNK N   1      37.438  11.832   8.850  0.00  0.00     0.180 HD
BRANCH  27  29
HETATM   29  C   UNK N   1      35.832  12.920   8.087  0.00  0.00     0.114 A 
HETATM   30  C   UNK N   1      36.433  14.077   7.581  0.00  0.00     0.051 A 
HETATM   31  C   UNK N   1      35.796  14.783   6.558  0.00  0.00     0.029 A 
HETATM   32  C   UNK N   1      34.569  14.333   6.068  0.00  0.00     0.049 A 
HETATM   33  C   UNK N   1      33.990  13.190   6.614  0.00  0.00     0.113 A 
HETATM   34 Cl   UNK N   1      33.771  15.177   4.760  0.00  0.00    -0.083 Cl
HETATM   35  N   UNK N   1      34.631  12.507   7.596  0.00  0.00    -0.350 N 
ATOM     36  HN  UNK N   1      34.202  11.663   7.977  1.00  0.00     0.166 HD
ENDBRANCH  27  29
ENDBRANCH  24  27
ENDBRANCH   3  24
TORSDOF 6
ENDMDL
MODEL 5
REMARK VINA RESULT:      -8.2      8.822     13.354
REMARK  6 active torsions:
REMARK  status: ('A' for Active; 'I' for Inactive)
REMARK    1  A    between atoms: C_3  and  S_19 
REMARK    2  A    between atoms: C_4  and  C_5 
REMARK       I    between atoms: C_4  and  N_21 
REMARK    3  A    between atoms: C_8  and  N_10 
REMARK    4  A    between atoms: C_16  and  N_21 
REMARK    5  A    between atoms: S_19  and  N_20 
REMARK    6  A    between atoms: N_20  and  C_26 
ROOT
HETATM    1  C   UNK N   1      20.373  16.014   6.350  0.00  0.00     0.002 A 
HETATM    2  C   UNK N   1      21.331  15.020   6.561  0.00  0.00     0.027 A 
HETATM    3  C   UNK N   1      22.683  15.298   6.350  0.00  0.00     0.106 A 
HETATM    4  C   UNK N   1      23.078  16.579   5.930  0.00  0.00     0.058 A 
HETATM    5  C   UNK N   1      22.120  17.578   5.722  0.00  0.00     0.031 A 
HETATM    6  C   UNK N   1      20.767  17.294   5.938  0.00  0.00     0.002 A 
ENDROOT
BRANCH   4   7
HETATM    7  N   UNK N   1      24.449  16.778   5.681  0.00  0.00    -0.322 N 
HETATM    8  C   UNK N   1      25.163  17.099   4.578  0.00  0.00     0.256 C 
HETATM    9  O   UNK N   1      24.624  17.371   3.516  0.00  0.00    -0.267 OA
HETATM   10  H   UNK N   1      25.008  16.658   6.482  0.00  0.00     0.169 HD
BRANCH   8  11
HETATM   11  C   UNK N   1      26.629  17.014   4.725  0.00  0.00     0.032 A 
HETATM   12  C   UNK N   1      27.323  18.224   4.665  0.00  0.00     0.019 A 
HETATM   13  C   UNK N   1      28.673  18.292   4.907  0.00  0.00     0.031 A 
HETATM   14  C   UNK N   1      29.405  17.151   5.222  0.00  0.00     0.042 A 
HETATM   15  C   UNK N   1      28.728  15.905   5.244  0.00  0.00     0.031 A 
HETATM   16  C   UNK N   1      27.338  15.836   5.004  0.00  0.00     0.019 A 
BRANCH  14  17
HETATM   17  N   UNK N   1      30.819  17.264   5.551  0.00  0.00    -0.290 N 
HETATM   18  C   UNK N   1      31.289  17.226   6.869  0.00  0.00     0.252 A 
HETATM   19  C   UNK N   1      32.653  17.318   7.135  0.00  0.00     0.075 A 
HETATM   20  O   UNK N   1      30.527  17.095   7.813  0.00  0.00    -0.268 OA
HETATM   21  C   UNK N   1      33.554  17.450   6.087  0.00  0.00     0.007 A 
HETATM   22  C   UNK N   1      33.087  17.485   4.778  0.00  0.00     0.018 A 
HETATM   23  C   UNK N   1      31.717  17.386   4.528  0.00  0.00     0.100 A 
ENDBRANCH  14  17
ENDBRANCH   8  11
ENDBRANCH   4   7
BRANCH   3  24
HETATM   24  S   UNK N   1      23.923  14.014   6.666  0.00  0.00     0.266 S 
HETATM   25  O   UNK N   1      24.674  13.578   5.400  0.00  0.00    -0.200 OA
HETATM   26  O   UNK N   1      25.101  14.575   7.476  0.00  0.00    -0.200 OA
BRANCH  24  27
HETATM   27  N   UNK N   1      23.529  12.496   7.457  0.00  0.00    -0.266 N 
HETATM   28  H   UNK N   1      23.380  11.685   6.917  0.00  0.00     0.180 HD
BRANCH  27  29
HETATM   29  C   UNK N   1      23.426  12.431   8.863  0.00  0.00     0.114 A 
HETATM   30  C   UNK N   1      22.168  12.359   9.466  0.00  0.00     0.051 A 
HETATM   31  C   UNK N   1      22.083  12.176  10.848  0.00  0.00     0.029 A 
HETATM   32  C   UNK N   1      23.253  12.082  11.605  0.00  0.00     0.049 A 
HETATM   33  C   UNK N   1      24.490  12.183  10.972  0.00  0.00     0.113 A 
HETATM   34 Cl   UNK N   1      23.176  11.813  13.331  0.00  0.00    -0.083 Cl
HETATM   35  N   UNK N   1      24.552  12.344   9.625  0.00  0.00    -0.350 N 
ATOM     36  HN  UNK N   1      25.464  12.403   9.173  1.00  0.00     0.166 HD
ENDBRANCH  27  29
ENDBRANCH  24  27
ENDBRANCH   3  24
TORSDOF 6
ENDMDL
MODEL 6
REMARK VINA RESULT:      -8.2     18.635     22.192
REMARK  6 active torsions:
REMARK  status: ('A' for Active; 'I' for Inactive)
REMARK    1  A    between atoms: C_3  and  S_19 
REMARK    2  A    between atoms: C_4  and  C_5 
REMARK       I    between atoms: C_4  and  N_21 
REMARK    3  A    between atoms: C_8  and  N_10 
REMARK    4  A    between atoms: C_16  and  N_21 
REMARK    5  A    between atoms: S_19  and  N_20 
REMARK    6  A    between atoms: N_20  and  C_26 
ROOT
HETATM    1  C   UNK N   1      24.893  27.940  -4.928  0.00  0.00     0.002 A 
HETATM    2  C   UNK N   1      24.991  26.849  -5.795  0.00  0.00     0.027 A 
HETATM    3  C   UNK N   1      25.926  25.842  -5.544  0.00  0.00     0.106 A 
HETATM    4  C   UNK N   1      26.762  25.927  -4.419  0.00  0.00     0.058 A 
HETATM    5  C   UNK N   1      26.662  27.018  -3.547  0.00  0.00     0.031 A 
HETATM    6  C   UNK N   1      25.722  28.022  -3.803  0.00  0.00     0.002 A 
ENDROOT
BRANCH   4   7
HETATM    7  N   UNK N   1      27.721  24.909  -4.254  0.00  0.00    -0.322 N 
HETATM    8  C   UNK N   1      27.919  23.951  -3.320  0.00  0.00     0.256 C 
HETATM    9  O   UNK N   1      27.132  23.772  -2.402  0.00  0.00    -0.267 OA
HETATM   10  H   UNK N   1      28.391  24.891  -4.975  0.00  0.00     0.169 HD
BRANCH   8  11
HETATM   11  C   UNK N   1      29.185  23.203  -3.437  0.00  0.00     0.032 A 
HETATM   12  C   UNK N   1      29.524  22.768  -4.720  0.00  0.00     0.019 A 
HETATM   13  C   UNK N   1      30.731  22.167  -4.981  0.00  0.00     0.031 A 
HETATM   14  C   UNK N   1      31.667  21.967  -3.970  0.00  0.00     0.042 A 
HETATM   15  C   UNK N   1      31.325  22.361  -2.652  0.00  0.00     0.031 A 
HETATM   16  C   UNK N   1      30.087  22.987  -2.385  0.00  0.00     0.019 A 
BRANCH  14  17
HETATM   17  N   UNK N   1      32.970  21.400  -4.290  0.00  0.00    -0.290 N 
HETATM   18  C   UNK N   1      34.011  22.165  -4.828  0.00  0.00     0.252 A 
HETATM   19  C   UNK N   1      35.247  21.583  -5.099  0.00  0.00     0.075 A 
HETATM   20  O   UNK N   1      33.874  23.356  -5.057  0.00  0.00    -0.268 OA
HETATM   21  C   UNK N   1      35.449  20.234  -4.837  0.00  0.00     0.007 A 
HETATM   22  C   UNK N   1      34.415  19.476  -4.300  0.00  0.00     0.018 A 
HETATM   23  C   UNK N   1      33.184  20.075  -4.028  0.00  0.00     0.100 A 
ENDBRANCH  14  17
ENDBRANCH   8  11
ENDBRANCH   4   7
BRANCH   3  24
HETATM   24  S   UNK N   1      26.018  24.409  -6.650  0.00  0.00     0.266 S 
HETATM   25  O   UNK N   1      27.460  23.998  -6.982  0.00  0.00    -0.200 OA
HETATM   26  O   UNK N   1      25.551  23.132  -5.936  0.00  0.00    -0.200 OA
BRANCH  24  27
HETATM   27  N   UNK N   1      25.206  24.363  -8.207  0.00  0.00    -0.266 N 
HETATM   28  H   UNK N   1      24.401  23.808  -8.324  0.00  0.00     0.180 HD
BRANCH  27  29
HETATM   29  C   UNK N   1      25.703  25.118  -9.290  0.00  0.00     0.114 A 
HETATM   30  C   UNK N   1      24.913  25.304 -10.428  0.00  0.00     0.051 A 
HETATM   31  C   UNK N   1      25.367  26.151 -11.442  0.00  0.00     0.029 A 
HETATM   32  C   UNK N   1      26.604  26.785 -11.310  0.00  0.00     0.049 A 
HETATM   33  C   UNK N   1      27.374  26.555 -10.172  0.00  0.00     0.113 A 
HETATM   34 Cl   UNK N   1      27.178  27.880 -12.547  0.00  0.00    -0.083 Cl
HETATM   35  N   UNK N   1      26.909  25.742  -9.190  0.00  0.00    -0.350 N 
ATOM     36  HN  UNK N   1      27.477  25.595  -8.356  1.00  0.00     0.166 HD
ENDBRANCH  27  29
ENDBRANCH  24  27
ENDBRANCH   3  24
TORSDOF 6
ENDMDL
MODEL 7
REMARK VINA RESULT:      -7.8      1.632      2.227
REMARK  6 active torsions:
REMARK  status: ('A' for Active; 'I' for Inactive)
REMARK    1  A    between atoms: C_3  and  S_19 
REMARK    2  A    between atoms: C_4  and  C_5 
REMARK       I    between atoms: C_4  and  N_21 
REMARK    3  A    between atoms: C_8  and  N_10 
REMARK    4  A    between atoms: C_16  and  N_21 
REMARK    5  A    between atoms: S_19  and  N_20 
REMARK    6  A    between atoms: N_20  and  C_26 
ROOT
HETATM    1  C   UNK N   1      35.833  14.363   5.573  0.00  0.00     0.002 A 
HETATM    2  C   UNK N   1      35.282  15.212   6.537  0.00  0.00     0.027 A 
HETATM    3  C   UNK N   1      35.395  14.895   7.891  0.00  0.00     0.106 A 
HETATM    4  C   UNK N   1      36.068  13.725   8.284  0.00  0.00     0.058 A 
HETATM    5  C   UNK N   1      36.624  12.876   7.320  0.00  0.00     0.031 A 
HETATM    6  C   UNK N   1      36.509  13.201   5.964  0.00  0.00     0.002 A 
ENDROOT
BRANCH   4   7
HETATM    7  N   UNK N   1      36.098  13.433   9.660  0.00  0.00    -0.322 N 
HETATM    8  C   UNK N   1      36.962  12.762  10.457  0.00  0.00     0.256 C 
HETATM    9  O   UNK N   1      38.020  12.321  10.034  0.00  0.00    -0.267 OA
HETATM   10  H   UNK N   1      35.325  13.797  10.149  0.00  0.00     0.169 HD
BRANCH   8  11
HETATM   11  C   UNK N   1      36.499  12.527  11.838  0.00  0.00     0.032 A 
HETATM   12  C   UNK N   1      37.491  12.234  12.776  0.00  0.00     0.019 A 
HETATM   13  C   UNK N   1      37.203  12.114  14.113  0.00  0.00     0.031 A 
HETATM   14  C   UNK N   1      35.905  12.280  14.588  0.00  0.00     0.042 A 
HETATM   15  C   UNK N   1      34.875  12.536  13.646  0.00  0.00     0.031 A 
HETATM   16  C   UNK N   1      35.172  12.668  12.272  0.00  0.00     0.019 A 
BRANCH  14  17
HETATM   17  N   UNK N   1      35.643  12.226  16.019  0.00  0.00    -0.290 N 
HETATM   18  C   UNK N   1      35.587  11.021  16.728  0.00  0.00     0.252 A 
HETATM   19  C   UNK N   1      35.352  11.020  18.100  0.00  0.00     0.075 A 
HETATM   20  O   UNK N   1      35.756   9.947  16.172  0.00  0.00    -0.268 OA
HETATM   21  C   UNK N   1      35.170  12.221  18.772  0.00  0.00     0.007 A 
HETATM   22  C   UNK N   1      35.230  13.419  18.067  0.00  0.00     0.018 A 
HETATM   23  C   UNK N   1      35.471  13.403  16.693  0.00  0.00     0.100 A 
ENDBRANCH  14  17
ENDBRANCH   8  11
ENDBRANCH   4   7
BRANCH   3  24
HETATM   24  S   UNK N   1      34.715  16.022   9.137  0.00  0.00     0.266 S 
HETATM   25  O   UNK N   1      33.753  15.329  10.114  0.00  0.00    -0.200 OA
HETATM   26  O   UNK N   1      35.800  16.468  10.127  0.00  0.00    -0.200 OA
BRANCH  24  27
HETATM   27  N   UNK N   1      33.874  17.504   8.710  0.00  0.00    -0.266 N 
HETATM   28  H   UNK N   1      34.343  18.368   8.766  0.00  0.00     0.180 HD
BRANCH  27  29
HETATM   29  C   UNK N   1      32.528  17.462   8.288  0.00  0.00     0.114 A 
HETATM   30  C   UNK N   1      32.228  17.237   6.942  0.00  0.00     0.051 A 
HETATM   31  C   UNK N   1      30.895  17.079   6.558  0.00  0.00     0.029 A 
HETATM   32  C   UNK N   1      29.885  17.162   7.519  0.00  0.00     0.049 A 
HETATM   33  C   UNK N   1      30.221  17.412   8.847  0.00  0.00     0.113 A 
HETATM   34 Cl   UNK N   1      28.210  16.929   7.070  0.00  0.00    -0.083 Cl
HETATM   35  N   UNK N   1      31.524  17.546   9.204  0.00  0.00    -0.350 N 
ATOM     36  HN  UNK N   1      31.756  17.714  10.183  1.00  0.00     0.166 HD
ENDBRANCH  27  29
ENDBRANCH  24  27
ENDBRANCH   3  24
TORSDOF 6
ENDMDL
MODEL 8
REMARK VINA RESULT:      -7.7      2.232      3.218
REMARK  6 active torsions:
REMARK  status: ('A' for Active; 'I' for Inactive)
REMARK    1  A    between atoms: C_3  and  S_19 
REMARK    2  A    between atoms: C_4  and  C_5 
REMARK       I    between atoms: C_4  and  N_21 
REMARK    3  A    between atoms: C_8  and  N_10 
REMARK    4  A    between atoms: C_16  and  N_21 
REMARK    5  A    between atoms: S_19  and  N_20 
REMARK    6  A    between atoms: N_20  and  C_26 
ROOT
HETATM    1  C   UNK N   1      34.475  15.029   4.512  0.00  0.00     0.002 A 
HETATM    2  C   UNK N   1      34.198  15.927   5.545  0.00  0.00     0.027 A 
HETATM    3  C   UNK N   1      34.608  15.640   6.848  0.00  0.00     0.106 A 
HETATM    4  C   UNK N   1      35.305  14.449   7.117  0.00  0.00     0.058 A 
HETATM    5  C   UNK N   1      35.588  13.550   6.083  0.00  0.00     0.031 A 
HETATM    6  C   UNK N   1      35.175  13.845   4.779  0.00  0.00     0.002 A 
ENDROOT
BRANCH   4   7
HETATM    7  N   UNK N   1      35.641  14.192   8.460  0.00  0.00    -0.322 N 
HETATM    8  C   UNK N   1      36.807  13.957   9.105  0.00  0.00     0.256 C 
HETATM    9  O   UNK N   1      37.885  14.021   8.534  0.00  0.00    -0.267 OA
HETATM   10  H   UNK N   1      34.859  14.181   9.058  0.00  0.00     0.169 HD
BRANCH   8  11
HETATM   11  C   UNK N   1      36.679  13.538  10.514  0.00  0.00     0.032 A 
HETATM   12  C   UNK N   1      35.517  13.946  11.173  0.00  0.00     0.019 A 
HETATM   13  C   UNK N   1      35.225  13.521  12.445  0.00  0.00     0.031 A 
HETATM   14  C   UNK N   1      36.079  12.662  13.131  0.00  0.00     0.042 A 
HETATM   15  C   UNK N   1      37.285  12.270  12.496  0.00  0.00     0.031 A 
HETATM   16  C   UNK N   1      37.583  12.700  11.184  0.00  0.00     0.019 A 
BRANCH  14  17
HETATM   17  N   UNK N   1      35.705  12.165  14.447  0.00  0.00    -0.290 N 
HETATM   18  C   UNK N   1      36.032  12.842  15.627  0.00  0.00     0.252 A 
HETATM   19  C   UNK N   1      35.635  12.337  16.863  0.00  0.00     0.075 A 
HETATM   20  O   UNK N   1      36.653  13.892  15.608  0.00  0.00    -0.268 OA
HETATM   21  C   UNK N   1      34.913  11.153  16.927  0.00  0.00     0.007 A 
HETATM   22  C   UNK N   1      34.586  10.483  15.753  0.00  0.00     0.018 A 
HETATM   23  C   UNK N   1      34.986  11.004  14.523  0.00  0.00     0.100 A 
ENDBRANCH  14  17
ENDBRANCH   8  11
ENDBRANCH   4   7
BRANCH   3  24
HETATM   24  S   UNK N   1      34.281  16.830   8.175  0.00  0.00     0.266 S 
HETATM   25  O   UNK N   1      35.380  16.852   9.248  0.00  0.00    -0.200 OA
HETATM   26  O   UNK N   1      34.403  18.272   7.663  0.00  0.00    -0.200 OA
BRANCH  24  27
HETATM   27  N   UNK N   1      32.793  16.819   9.108  0.00  0.00    -0.266 N 
HETATM   28  H   UNK N   1      32.793  16.468  10.028  0.00  0.00     0.180 HD
BRANCH  27  29
HETATM   29  C   UNK N   1      31.597  17.312   8.545  0.00  0.00     0.114 A 
HETATM   30  C   UNK N   1      31.136  16.797   7.330  0.00  0.00     0.051 A 
HETATM   31  C   UNK N   1      29.893  17.207   6.844  0.00  0.00     0.029 A 
HETATM   32  C   UNK N   1      29.138  18.131   7.569  0.00  0.00     0.049 A 
HETATM   33  C   UNK N   1      29.641  18.641   8.764  0.00  0.00     0.113 A 
HETATM   34 Cl   UNK N   1      27.560  18.631   7.002  0.00  0.00    -0.083 Cl
HETATM   35  N   UNK N   1      30.845  18.218   9.229  0.00  0.00    -0.350 N 
ATOM     36  HN  UNK N   1      31.194  18.589  10.112  1.00  0.00     0.166 HD
ENDBRANCH  27  29
ENDBRANCH  24  27
ENDBRANCH   3  24
TORSDOF 6
ENDMDL
MODEL 9
REMARK VINA RESULT:      -7.7      9.962     13.832
REMARK  6 active torsions:
REMARK  status: ('A' for Active; 'I' for Inactive)
REMARK    1  A    between atoms: C_3  and  S_19 
REMARK    2  A    between atoms: C_4  and  C_5 
REMARK       I    between atoms: C_4  and  N_21 
REMARK    3  A    between atoms: C_8  and  N_10 
REMARK    4  A    between atoms: C_16  and  N_21 
REMARK    5  A    between atoms: S_19  and  N_20 
REMARK    6  A    between atoms: N_20  and  C_26 
ROOT
HETATM    1  C   UNK N   1      33.337  15.422   4.173  0.00  0.00     0.002 A 
HETATM    2  C   UNK N   1      32.107  14.784   3.997  0.00  0.00     0.027 A 
HETATM    3  C   UNK N   1      30.926  15.529   4.015  0.00  0.00     0.106 A 
HETATM    4  C   UNK N   1      30.978  16.920   4.205  0.00  0.00     0.058 A 
HETATM    5  C   UNK N   1      32.210  17.561   4.378  0.00  0.00     0.031 A 
HETATM    6  C   UNK N   1      33.390  16.809   4.357  0.00  0.00     0.002 A 
ENDROOT
BRANCH   4   7
HETATM    7  N   UNK N   1      29.750  17.605   4.270  0.00  0.00    -0.322 N 
HETATM    8  C   UNK N   1      28.985  18.063   5.287  0.00  0.00     0.256 C 
HETATM    9  O   UNK N   1      29.352  17.997   6.450  0.00  0.00    -0.267 OA
HETATM   10  H   UNK N   1      29.365  17.791   3.383  0.00  0.00     0.169 HD
BRANCH   8  11
HETATM   11  C   UNK N   1      27.651  18.564   4.902  0.00  0.00     0.032 A 
HETATM   12  C   UNK N   1      27.001  17.860   3.887  0.00  0.00     0.019 A 
HETATM   13  C   UNK N   1      25.710  18.152   3.523  0.00  0.00     0.031 A 
HETATM   14  C   UNK N   1      24.996  19.167   4.154  0.00  0.00     0.042 A 
HETATM   15  C   UNK N   1      25.654  19.923   5.158  0.00  0.00     0.031 A 
HETATM   16  C   UNK N   1      26.979  19.617   5.539  0.00  0.00     0.019 A 
BRANCH  14  17
HETATM   17  N   UNK N   1      23.604  19.402   3.802  0.00  0.00    -0.290 N 
HETATM   18  C   UNK N   1      23.218  20.365   2.862  0.00  0.00     0.252 A 
HETATM   19  C   UNK N   1      21.874  20.541   2.543  0.00  0.00     0.075 A 
HETATM   20  O   UNK N   1      24.041  21.060   2.289  0.00  0.00    -0.268 OA
HETATM   21  C   UNK N   1      20.908  19.758   3.162  0.00  0.00     0.007 A 
HETATM   22  C   UNK N   1      21.292  18.800   4.092  0.00  0.00     0.018 A 
HETATM   23  C   UNK N   1      22.643  18.632   4.397  0.00  0.00     0.100 A 
ENDBRANCH  14  17
ENDBRANCH   8  11
ENDBRANCH   4   7
BRANCH   3  24
HETATM   24  S   UNK N   1      29.338  14.699   3.743  0.00  0.00     0.266 S 
HETATM   25  O   UNK N   1      29.449  13.168   3.760  0.00  0.00    -0.200 OA
HETATM   26  O   UNK N   1      28.402  14.896   4.944  0.00  0.00    -0.200 OA
BRANCH  24  27
HETATM   27  N   UNK N   1      28.329  15.026   2.343  0.00  0.00    -0.266 N 
HETATM   28  H   UNK N   1      28.573  15.749   1.720  0.00  0.00     0.180 HD
BRANCH  27  29
HETATM   29  C   UNK N   1      27.171  14.256   2.105  0.00  0.00     0.114 A 
HETATM   30  C   UNK N   1      25.946  14.893   1.883  0.00  0.00     0.051 A 
HETATM   31  C   UNK N   1      24.833  14.126   1.531  0.00  0.00     0.029 A 
HETATM   32  C   UNK N   1      24.957  12.739   1.421  0.00  0.00     0.049 A 
HETATM   33  C   UNK N   1      26.188  12.138   1.674  0.00  0.00     0.113 A 
HETATM   34 Cl   UNK N   1      23.589  11.760   0.944  0.00  0.00    -0.083 Cl
HETATM   35  N   UNK N   1      27.263  12.902   1.998  0.00  0.00    -0.350 N 
ATOM     36  HN  UNK N   1      28.161  12.449   2.167  1.00  0.00     0.166 HD
ENDBRANCH  27  29
ENDBRANCH  24  27
ENDBRANCH   3  24
TORSDOF 6
ENDMDL
