MODEL 1
REMARK VINA RESULT:      -7.0      0.000      0.000
REMARK  12 active torsions:
REMARK  status: ('A' for Active; 'I' for Inactive)
REMARK    1  A    between atoms: C_2  and  C_3 
REMARK       I    between atoms: N_21  and  C_2 
REMARK    2  A    between atoms: C_3  and  C_4 
REMARK    3  A    between atoms: C_5  and  C_4 
REMARK    4  A    between atoms: C_6  and  C_5 
REMARK    5  A    between atoms: C_7  and  C_6 
REMARK    6  A    between atoms: N_8  and  C_7 
REMARK    7  A    between atoms: C_9  and  N_8 
REMARK    8  A    between atoms: C_22  and  N_21 
REMARK    9  A    between atoms: C_28  and  C_26 
REMARK       I    between atoms: N_30  and  C_28 
REMARK   10  A    between atoms: C_31  and  N_30 
REMARK   11  A    between atoms: C_32  and  C_31 
REMARK   12  A    between atoms: C_32  and  C_33 
ROOT
HETATM    1  C   UNK N   1      23.744  15.869   3.499  0.00  0.00     0.103 C 
ENDROOT
BRANCH   1   2
HETATM    2  C   UNK N   1      22.565  15.939   4.409  0.00  0.00     0.222 C 
HETATM    3  O   UNK N   1      21.436  15.766   3.973  0.00  0.00    -0.273 OA
HETATM    4  N   UNK N   1      22.769  16.308   5.687  0.00  0.00    -0.327 N 
HETATM    5  H   UNK N   1      23.702  16.424   5.982  0.00  0.00     0.169 HD
BRANCH   4   6
HETATM    6  C   UNK N   1      21.754  16.542   6.638  0.00  0.00     0.035 A 
HETATM    7  C   UNK N   1      21.134  17.785   6.844  0.00  0.00     0.029 A 
HETATM    8  C   UNK N   1      20.185  17.917   7.876  0.00  0.00     0.003 A 
HETATM    9  C   UNK N   1      19.905  16.828   8.727  0.00  0.00     0.017 A 
HETATM   10  C   UNK N   1      20.559  15.605   8.512  0.00  0.00     0.034 A 
HETATM   11  C   UNK N   1      21.452  15.491   7.460  0.00  0.00     0.046 A 
BRANCH  10  12
HETATM   12  C   UNK N   1      20.460  14.430   9.395  0.00  0.00     0.251 C 
HETATM   13  O   UNK N   1      19.384  14.007   9.788  0.00  0.00    -0.268 OA
HETATM   14  N   UNK N   1      21.629  13.887   9.816  0.00  0.00    -0.357 N 
HETATM   15  H   UNK N   1      22.448  14.276   9.434  0.00  0.00     0.162 HD
BRANCH  14  16
HETATM   16  C   UNK N   1      21.817  12.818  10.748  0.00  0.00     0.123 C 
BRANCH  16  17
HETATM   17  C   UNK N   1      23.108  12.148  10.309  0.00  0.00     0.019 C 
BRANCH  17  18
HETATM   18  C   UNK N   1      24.089  11.950  11.438  0.00  0.00    -0.003 C 
HETATM   19  C   UNK N   1      23.308  11.905  12.738  0.00  0.00     0.005 C 
ENDBRANCH  17  18
ENDBRANCH  16  17
ENDBRANCH  14  16
ENDBRANCH  10  12
ENDBRANCH   4   6
ENDBRANCH   1   2
BRANCH   1  20
HETATM   20  C   UNK N   1      24.739  16.935   3.880  0.00  0.00     0.009 C 
BRANCH  20  21
HETATM   21  C   UNK N   1      25.954  16.716   3.019  0.00  0.00     0.002 C 
BRANCH  21  22
HETATM   22  C   UNK N   1      27.009  15.926   3.734  0.00  0.00     0.020 C 
BRANCH  22  23
HETATM   23  C   UNK N   1      28.299  16.552   3.279  0.00  0.00     0.121 C 
BRANCH  23  24
HETATM   24  N   UNK N   1      29.008  17.183   4.360  0.00  0.00    -0.374 N 
HETATM   25  H   UNK N   1      29.910  16.845   4.564  0.00  0.00     0.161 HD
BRANCH  24  26
HETATM   26  C   UNK N   1      28.519  18.256   5.159  0.00  0.00     0.133 A 
HETATM   27  N   UNK N   1      28.244  19.446   4.549  0.00  0.00    -0.337 N 
HETATM   28  C   UNK N   1      27.759  20.520   5.250  0.00  0.00     0.183 A 
ATOM     29  HN  UNK N   1      28.403  19.538   3.546  1.00  0.00     0.168 HD
HETATM   30  N   UNK N   1      27.551  20.432   6.597  0.00  0.00    -0.337 N 
HETATM   31  C   UNK N   1      27.831  19.260   7.210  0.00  0.00     0.138 A 
ATOM     32  HN  UNK N   1      27.194  21.228   7.126  1.00  0.00     0.168 HD
HETATM   33  C   UNK N   1      28.296  18.182   6.544  0.00  0.00     0.122 A 
HETATM   34  N   UNK N   1      27.708  18.991   8.514  0.00  0.00    -0.337 N 
HETATM   35  N   UNK N   1      28.481  17.181   7.418  0.00  0.00    -0.346 N 
HETATM   36  C   UNK N   1      28.116  17.700   8.620  0.00  0.00     0.182 A 
ATOM     37  HN  UNK N   1      28.821  16.239   7.223  1.00  0.00     0.167 HD
HETATM   38  H   UNK N   1      27.394  19.588   9.230  0.00  0.00     0.168 HD
ENDBRANCH  24  26
ENDBRANCH  23  24
ENDBRANCH  22  23
ENDBRANCH  21  22
ENDBRANCH  20  21
ENDBRANCH   1  20
TORSDOF 12
ENDMDL
MODEL 2
REMARK VINA RESULT:      -6.9      2.320      4.590
REMARK  12 active torsions:
REMARK  status: ('A' for Active; 'I' for Inactive)
REMARK    1  A    between atoms: C_2  and  C_3 
REMARK       I    between atoms: N_21  and  C_2 
REMARK    2  A    between atoms: C_3  and  C_4 
REMARK    3  A    between atoms: C_5  and  C_4 
REMARK    4  A    between atoms: C_6  and  C_5 
REMARK    5  A    between atoms: C_7  and  C_6 
REMARK    6  A    between atoms: N_8  and  C_7 
REMARK    7  A    between atoms: C_9  and  N_8 
REMARK    8  A    between atoms: C_22  and  N_21 
REMARK    9  A    between atoms: C_28  and  C_26 
REMARK       I    between atoms: N_30  and  C_28 
REMARK   10  A    between atoms: C_31  and  N_30 
REMARK   11  A    between atoms: C_32  and  C_31 
REMARK   12  A    between atoms: C_32  and  C_33 
ROOT
HETATM    1  C   UNK N   1      25.997  13.690   6.279  0.00  0.00     0.103 C 
ENDROOT
BRANCH   1   2
HETATM    2  C   UNK N   1      24.886  13.122   7.094  0.00  0.00     0.222 C 
HETATM    3  O   UNK N   1      24.056  12.386   6.581  0.00  0.00    -0.273 OA
HETATM    4  N   UNK N   1      24.760  13.531   8.370  0.00  0.00    -0.327 N 
HETATM    5  H   UNK N   1      25.465  14.116   8.731  0.00  0.00     0.169 HD
BRANCH   4   6
HETATM    6  C   UNK N   1      23.699  13.188   9.233  0.00  0.00     0.035 A 
HETATM    7  C   UNK N   1      23.706  12.079  10.095  0.00  0.00     0.029 A 
HETATM    8  C   UNK N   1      22.555  11.792  10.856  0.00  0.00     0.003 A 
HETATM    9  C   UNK N   1      21.393  12.577  10.710  0.00  0.00     0.017 A 
HETATM   10  C   UNK N   1      21.408  13.664   9.822  0.00  0.00     0.034 A 
HETATM   11  C   UNK N   1      22.568  13.951   9.122  0.00  0.00     0.046 A 
BRANCH  10  12
HETATM   12  C   UNK N   1      20.235  14.486   9.476  0.00  0.00     0.251 C 
HETATM   13  O   UNK N   1      19.115  14.212   9.878  0.00  0.00    -0.268 OA
HETATM   14  N   UNK N   1      20.448  15.518   8.624  0.00  0.00    -0.357 N 
HETATM   15  H   UNK N   1      21.383  15.681   8.366  0.00  0.00     0.162 HD
BRANCH  14  16
HETATM   16  C   UNK N   1      19.477  16.400   8.052  0.00  0.00     0.123 C 
BRANCH  16  17
HETATM   17  C   UNK N   1      19.493  17.625   8.952  0.00  0.00     0.019 C 
BRANCH  17  18
HETATM   18  C   UNK N   1      18.196  17.835   9.692  0.00  0.00    -0.003 C 
HETATM   19  C   UNK N   1      17.093  17.140   8.916  0.00  0.00     0.005 C 
ENDBRANCH  17  18
ENDBRANCH  16  17
ENDBRANCH  14  16
ENDBRANCH  10  12
ENDBRANCH   4   6
ENDBRANCH   1   2
BRANCH   1  20
HETATM   20  C   UNK N   1      26.153  15.157   6.590  0.00  0.00     0.009 C 
BRANCH  20  21
HETATM   21  C   UNK N   1      26.673  15.809   5.338  0.00  0.00     0.002 C 
BRANCH  21  22
HETATM   22  C   UNK N   1      26.120  17.191   5.159  0.00  0.00     0.020 C 
BRANCH  22  23
HETATM   23  C   UNK N   1      27.248  18.090   5.589  0.00  0.00     0.121 C 
BRANCH  23  24
HETATM   24  N   UNK N   1      27.306  18.242   7.018  0.00  0.00    -0.374 N 
HETATM   25  H   UNK N   1      26.468  18.472   7.480  0.00  0.00     0.161 HD
BRANCH  24  26
HETATM   26  C   UNK N   1      28.472  18.086   7.822  0.00  0.00     0.133 A 
HETATM   27  N   UNK N   1      28.531  18.750   9.014  0.00  0.00    -0.337 N 
HETATM   28  C   UNK N   1      29.614  18.640   9.847  0.00  0.00     0.183 A 
ATOM     29  HN  UNK N   1      27.749  19.342   9.292  1.00  0.00     0.168 HD
HETATM   30  N   UNK N   1      30.683  17.866   9.495  0.00  0.00    -0.337 N 
HETATM   31  C   UNK N   1      30.637  17.215   8.312  0.00  0.00     0.138 A 
ATOM     32  HN  UNK N   1      31.494  17.783  10.109  1.00  0.00     0.168 HD
HETATM   33  C   UNK N   1      29.579  17.293   7.478  0.00  0.00     0.122 A 
HETATM   34  N   UNK N   1      31.588  16.431   7.793  0.00  0.00    -0.337 N 
HETATM   35  N   UNK N   1      29.829  16.547   6.391  0.00  0.00    -0.346 N 
HETATM   36  C   UNK N   1      31.067  16.029   6.605  0.00  0.00     0.182 A 
ATOM     37  HN  UNK N   1      29.223  16.402   5.583  1.00  0.00     0.167 HD
HETATM   38  H   UNK N   1      32.461  16.197   8.182  0.00  0.00     0.168 HD
ENDBRANCH  24  26
ENDBRANCH  23  24
ENDBRANCH  22  23
ENDBRANCH  21  22
ENDBRANCH  20  21
ENDBRANCH   1  20
TORSDOF 12
ENDMDL
MODEL 3
REMARK VINA RESULT:      -6.8     10.261     13.279
REMARK  12 active torsions:
REMARK  status: ('A' for Active; 'I' for Inactive)
REMARK    1  A    between atoms: C_2  and  C_3 
REMARK       I    between atoms: N_21  and  C_2 
REMARK    2  A    between atoms: C_3  and  C_4 
REMARK    3  A    between atoms: C_5  and  C_4 
REMARK    4  A    between atoms: C_6  and  C_5 
REMARK    5  A    between atoms: C_7  and  C_6 
REMARK    6  A    between atoms: N_8  and  C_7 
REMARK    7  A    between atoms: C_9  and  N_8 
REMARK    8  A    between atoms: C_22  and  N_21 
REMARK    9  A    between atoms: C_28  and  C_26 
REMARK       I    between atoms: N_30  and  C_28 
REMARK   10  A    between atoms: C_31  and  N_30 
REMARK   11  A    between atoms: C_32  and  C_31 
REMARK   12  A    between atoms: C_32  and  C_33 
ROOT
HETATM    1  C   UNK N   1      36.531  13.481  12.333  0.00  0.00     0.103 C 
ENDROOT
BRANCH   1   2
HETATM    2  C   UNK N   1      35.795  13.226  13.604  0.00  0.00     0.222 C 
HETATM    3  O   UNK N   1      34.576  13.308  13.640  0.00  0.00    -0.273 OA
HETATM    4  N   UNK N   1      36.512  13.016  14.724  0.00  0.00    -0.327 N 
HETATM    5  H   UNK N   1      37.490  12.951  14.630  0.00  0.00     0.169 HD
BRANCH   4   6
HETATM    6  C   UNK N   1      35.975  12.884  16.021  0.00  0.00     0.035 A 
HETATM    7  C   UNK N   1      35.764  13.956  16.904  0.00  0.00     0.029 A 
HETATM    8  C   UNK N   1      35.292  13.693  18.205  0.00  0.00     0.003 A 
HETATM    9  C   UNK N   1      35.089  12.365  18.631  0.00  0.00     0.017 A 
HETATM   10  C   UNK N   1      35.332  11.312  17.734  0.00  0.00     0.034 A 
HETATM   11  C   UNK N   1      35.750  11.604  16.446  0.00  0.00     0.046 A 
BRANCH  10  12
HETATM   12  C   UNK N   1      35.285   9.882  18.081  0.00  0.00     0.251 C 
HETATM   13  O   UNK N   1      36.140   9.097  17.701  0.00  0.00    -0.268 OA
HETATM   14  N   UNK N   1      34.201   9.463  18.780  0.00  0.00    -0.357 N 
HETATM   15  H   UNK N   1      33.572  10.164  19.064  0.00  0.00     0.162 HD
BRANCH  14  16
HETATM   16  C   UNK N   1      33.859   8.124  19.153  0.00  0.00     0.123 C 
BRANCH  16  17
HETATM   17  C   UNK N   1      33.031   8.278  20.418  0.00  0.00     0.019 C 
BRANCH  17  18
HETATM   18  C   UNK N   1      31.648   8.821  20.160  0.00  0.00    -0.003 C 
HETATM   19  C   UNK N   1      30.706   7.646  19.974  0.00  0.00     0.005 C 
ENDBRANCH  17  18
ENDBRANCH  16  17
ENDBRANCH  14  16
ENDBRANCH  10  12
ENDBRANCH   4   6
ENDBRANCH   1   2
BRANCH   1  20
HETATM   20  C   UNK N   1      35.598  14.101  11.326  0.00  0.00     0.009 C 
BRANCH  20  21
HETATM   21  C   UNK N   1      36.289  15.330  10.799  0.00  0.00     0.002 C 
BRANCH  21  22
HETATM   22  C   UNK N   1      35.410  16.542  10.880  0.00  0.00     0.020 C 
BRANCH  22  23
HETATM   23  C   UNK N   1      34.766  16.612   9.521  0.00  0.00     0.121 C 
BRANCH  23  24
HETATM   24  N   UNK N   1      33.343  16.413   9.584  0.00  0.00    -0.374 N 
HETATM   25  H   UNK N   1      32.954  16.217  10.467  0.00  0.00     0.161 HD
BRANCH  24  26
HETATM   26  C   UNK N   1      32.446  16.476   8.479  0.00  0.00     0.133 A 
HETATM   27  N   UNK N   1      32.773  15.800   7.339  0.00  0.00    -0.337 N 
HETATM   28  C   UNK N   1      31.955  15.805   6.238  0.00  0.00     0.183 A 
ATOM     29  HN  UNK N   1      33.648  15.278   7.305  1.00  0.00     0.168 HD
HETATM   30  N   UNK N   1      30.785  16.508   6.248  0.00  0.00    -0.337 N 
HETATM   31  C   UNK N   1      30.459  17.189   7.369  0.00  0.00     0.138 A 
ATOM     32  HN  UNK N   1      30.173  16.518   5.432  1.00  0.00     0.168 HD
HETATM   33  C   UNK N   1      31.237  17.192   8.471  0.00  0.00     0.122 A 
HETATM   34  N   UNK N   1      29.371  17.942   7.559  0.00  0.00    -0.337 N 
HETATM   35  N   UNK N   1      30.656  17.954   9.410  0.00  0.00    -0.346 N 
HETATM   36  C   UNK N   1      29.513  18.406   8.828  0.00  0.00     0.182 A 
ATOM     37  HN  UNK N   1      30.996  18.152  10.351  1.00  0.00     0.167 HD
HETATM   38  H   UNK N   1      28.636  18.117   6.928  0.00  0.00     0.168 HD
ENDBRANCH  24  26
ENDBRANCH  23  24
ENDBRANCH  22  23
ENDBRANCH  21  22
ENDBRANCH  20  21
ENDBRANCH   1  20
TORSDOF 12
ENDMDL
MODEL 4
REMARK VINA RESULT:      -6.7      4.874      9.189
REMARK  12 active torsions:
REMARK  status: ('A' for Active; 'I' for Inactive)
REMARK    1  A    between atoms: C_2  and  C_3 
REMARK       I    between atoms: N_21  and  C_2 
REMARK    2  A    between atoms: C_3  and  C_4 
REMARK    3  A    between atoms: C_5  and  C_4 
REMARK    4  A    between atoms: C_6  and  C_5 
REMARK    5  A    between atoms: C_7  and  C_6 
REMARK    6  A    between atoms: N_8  and  C_7 
REMARK    7  A    between atoms: C_9  and  N_8 
REMARK    8  A    between atoms: C_22  and  N_21 
REMARK    9  A    between atoms: C_28  and  C_26 
REMARK       I    between atoms: N_30  and  C_28 
REMARK   10  A    between atoms: C_31  and  N_30 
REMARK   11  A    between atoms: C_32  and  C_31 
REMARK   12  A    between atoms: C_32  and  C_33 
ROOT
HETATM    1  C   UNK N   1      26.425  20.227   4.950  0.00  0.00     0.103 C 
ENDROOT
BRANCH   1   2
HETATM    2  C   UNK N   1      27.252  19.908   6.149  0.00  0.00     0.222 C 
HETATM    3  O   UNK N   1      27.849  20.794   6.742  0.00  0.00    -0.273 OA
HETATM    4  N   UNK N   1      27.410  18.614   6.486  0.00  0.00    -0.327 N 
HETATM    5  H   UNK N   1      26.896  17.947   5.977  0.00  0.00     0.169 HD
BRANCH   4   6
HETATM    6  C   UNK N   1      28.255  18.139   7.510  0.00  0.00     0.035 A 
HETATM    7  C   UNK N   1      27.890  18.060   8.865  0.00  0.00     0.029 A 
HETATM    8  C   UNK N   1      28.846  17.639   9.810  0.00  0.00     0.003 A 
HETATM    9  C   UNK N   1      30.167  17.356   9.407  0.00  0.00     0.017 A 
HETATM   10  C   UNK N   1      30.508  17.467   8.050  0.00  0.00     0.034 A 
HETATM   11  C   UNK N   1      29.536  17.837   7.136  0.00  0.00     0.046 A 
BRANCH  10  12
HETATM   12  C   UNK N   1      31.871  17.327   7.510  0.00  0.00     0.251 C 
HETATM   13  O   UNK N   1      32.854  17.314   8.235  0.00  0.00    -0.268 OA
HETATM   14  N   UNK N   1      31.988  17.293   6.160  0.00  0.00    -0.357 N 
HETATM   15  H   UNK N   1      31.145  17.287   5.653  0.00  0.00     0.162 HD
BRANCH  14  16
HETATM   16  C   UNK N   1      33.189  17.266   5.382  0.00  0.00     0.123 C 
BRANCH  16  17
HETATM   17  C   UNK N   1      32.752  17.683   3.987  0.00  0.00     0.019 C 
BRANCH  17  18
HETATM   18  C   UNK N   1      32.456  16.513   3.082  0.00  0.00    -0.003 C 
HETATM   19  C   UNK N   1      30.950  16.393   2.945  0.00  0.00     0.005 C 
ENDBRANCH  17  18
ENDBRANCH  16  17
ENDBRANCH  14  16
ENDBRANCH  10  12
ENDBRANCH   4   6
ENDBRANCH   1   2
BRANCH   1  20
HETATM   20  C   UNK N   1      26.839  19.343   3.802  0.00  0.00     0.009 C 
BRANCH  20  21
HETATM   21  C   UNK N   1      25.689  18.407   3.544  0.00  0.00     0.002 C 
BRANCH  21  22
HETATM   22  C   UNK N   1      24.369  19.048   3.855  0.00  0.00     0.020 C 
BRANCH  22  23
HETATM   23  C   UNK N   1      23.768  18.147   4.898  0.00  0.00     0.121 C 
BRANCH  23  24
HETATM   24  N   UNK N   1      22.588  17.476   4.422  0.00  0.00    -0.374 N 
HETATM   25  H   UNK N   1      22.495  16.520   4.640  0.00  0.00     0.161 HD
BRANCH  24  26
HETATM   26  C   UNK N   1      21.542  18.075   3.664  0.00  0.00     0.133 A 
HETATM   27  N   UNK N   1      21.167  19.351   3.971  0.00  0.00    -0.337 N 
HETATM   28  C   UNK N   1      20.176  19.998   3.278  0.00  0.00     0.183 A 
ATOM     29  HN  UNK N   1      21.636  19.836   4.735  1.00  0.00     0.168 HD
HETATM   30  N   UNK N   1      19.519  19.369   2.259  0.00  0.00    -0.337 N 
HETATM   31  C   UNK N   1      19.877  18.101   1.956  0.00  0.00     0.138 A 
ATOM     32  HN  UNK N   1      18.779  19.843   1.742  1.00  0.00     0.168 HD
HETATM   33  C   UNK N   1      20.857  17.444   2.611  0.00  0.00     0.122 A 
HETATM   34  N   UNK N   1      19.341  17.324   1.009  0.00  0.00    -0.337 N 
HETATM   35  N   UNK N   1      20.977  16.214   2.090  0.00  0.00    -0.346 N 
HETATM   36  C   UNK N   1      20.036  16.161   1.110  0.00  0.00     0.182 A 
ATOM     37  HN  UNK N   1      21.629  15.481   2.368  1.00  0.00     0.167 HD
HETATM   38  H   UNK N   1      18.614  17.543   0.384  0.00  0.00     0.168 HD
ENDBRANCH  24  26
ENDBRANCH  23  24
ENDBRANCH  22  23
ENDBRANCH  21  22
ENDBRANCH  20  21
ENDBRANCH   1  20
TORSDOF 12
ENDMDL
MODEL 5
REMARK VINA RESULT:      -6.7      4.539      7.135
REMARK  12 active torsions:
REMARK  status: ('A' for Active; 'I' for Inactive)
REMARK    1  A    between atoms: C_2  and  C_3 
REMARK       I    between atoms: N_21  and  C_2 
REMARK    2  A    between atoms: C_3  and  C_4 
REMARK    3  A    between atoms: C_5  and  C_4 
REMARK    4  A    between atoms: C_6  and  C_5 
REMARK    5  A    between atoms: C_7  and  C_6 
REMARK    6  A    between atoms: N_8  and  C_7 
REMARK    7  A    between atoms: C_9  and  N_8 
REMARK    8  A    between atoms: C_22  and  N_21 
REMARK    9  A    between atoms: C_28  and  C_26 
REMARK       I    between atoms: N_30  and  C_28 
REMARK   10  A    between atoms: C_31  and  N_30 
REMARK   11  A    between atoms: C_32  and  C_31 
REMARK   12  A    between atoms: C_32  and  C_33 
ROOT
HETATM    1  C   UNK N   1      29.506  15.631   3.339  0.00  0.00     0.103 C 
ENDROOT
BRANCH   1   2
HETATM    2  C   UNK N   1      28.690  16.606   4.117  0.00  0.00     0.222 C 
HETATM    3  O   UNK N   1      27.918  16.216   4.980  0.00  0.00    -0.273 OA
HETATM    4  N   UNK N   1      28.746  17.904   3.767  0.00  0.00    -0.327 N 
HETATM    5  H   UNK N   1      29.394  18.159   3.071  0.00  0.00     0.169 HD
BRANCH   4   6
HETATM    6  C   UNK N   1      27.948  18.929   4.316  0.00  0.00     0.035 A 
HETATM    7  C   UNK N   1      28.186  19.536   5.560  0.00  0.00     0.029 A 
HETATM    8  C   UNK N   1      27.275  20.498   6.041  0.00  0.00     0.003 A 
HETATM    9  C   UNK N   1      26.112  20.804   5.306  0.00  0.00     0.017 A 
HETATM   10  C   UNK N   1      25.889  20.163   4.077  0.00  0.00     0.034 A 
HETATM   11  C   UNK N   1      26.825  19.257   3.607  0.00  0.00     0.046 A 
BRANCH  10  12
HETATM   12  C   UNK N   1      24.663  20.290   3.271  0.00  0.00     0.251 C 
HETATM   13  O   UNK N   1      24.610  21.008   2.285  0.00  0.00    -0.268 OA
HETATM   14  N   UNK N   1      23.569  19.629   3.723  0.00  0.00    -0.357 N 
HETATM   15  H   UNK N   1      23.705  19.056   4.511  0.00  0.00     0.162 HD
BRANCH  14  16
HETATM   16  C   UNK N   1      22.240  19.663   3.194  0.00  0.00     0.123 C 
BRANCH  16  17
HETATM   17  C   UNK N   1      21.528  18.501   3.867  0.00  0.00     0.019 C 
BRANCH  17  18
HETATM   18  C   UNK N   1      22.272  17.960   5.061  0.00  0.00    -0.003 C 
HETATM   19  C   UNK N   1      21.395  18.142   6.286  0.00  0.00     0.005 C 
ENDBRANCH  17  18
ENDBRANCH  16  17
ENDBRANCH  14  16
ENDBRANCH  10  12
ENDBRANCH   4   6
ENDBRANCH   1   2
BRANCH   1  20
HETATM   20  C   UNK N   1      30.684  15.184   4.167  0.00  0.00     0.009 C 
BRANCH  20  21
HETATM   21  C   UNK N   1      31.860  15.104   3.232  0.00  0.00     0.002 C 
BRANCH  21  22
HETATM   22  C   UNK N   1      33.061  15.812   3.785  0.00  0.00     0.020 C 
BRANCH  22  23
HETATM   23  C   UNK N   1      32.546  17.185   4.122  0.00  0.00     0.121 C 
BRANCH  23  24
HETATM   24  N   UNK N   1      33.292  17.799   5.187  0.00  0.00    -0.374 N 
HETATM   25  H   UNK N   1      33.890  18.543   4.947  0.00  0.00     0.161 HD
BRANCH  24  26
HETATM   26  C   UNK N   1      33.239  17.424   6.561  0.00  0.00     0.133 A 
HETATM   27  N   UNK N   1      34.413  17.172   7.210  0.00  0.00    -0.337 N 
HETATM   28  C   UNK N   1      34.443  16.818   8.534  0.00  0.00     0.183 A 
ATOM     29  HN  UNK N   1      35.291  17.250   6.697  1.00  0.00     0.168 HD
HETATM   30  N   UNK N   1      33.283  16.691   9.244  0.00  0.00    -0.337 N 
HETATM   31  C   UNK N   1      32.116  16.928   8.605  0.00  0.00     0.138 A 
ATOM     32  HN  UNK N   1      33.298  16.424  10.228  1.00  0.00     0.168 HD
HETATM   33  C   UNK N   1      32.056  17.291   7.307  0.00  0.00     0.122 A 
HETATM   34  N   UNK N   1      30.887  16.838   9.125  0.00  0.00    -0.337 N 
HETATM   35  N   UNK N   1      30.770  17.449   6.960  0.00  0.00    -0.346 N 
HETATM   36  C   UNK N   1      30.070  17.164   8.091  0.00  0.00     0.182 A 
ATOM     37  HN  UNK N   1      30.399  17.722   6.050  1.00  0.00     0.167 HD
HETATM   38  H   UNK N   1      30.634  16.595  10.045  0.00  0.00     0.168 HD
ENDBRANCH  24  26
ENDBRANCH  23  24
ENDBRANCH  22  23
ENDBRANCH  21  22
ENDBRANCH  20  21
ENDBRANCH   1  20
TORSDOF 12
ENDMDL
MODEL 6
REMARK VINA RESULT:      -6.6      9.658     13.455
REMARK  12 active torsions:
REMARK  status: ('A' for Active; 'I' for Inactive)
REMARK    1  A    between atoms: C_2  and  C_3 
REMARK       I    between atoms: N_21  and  C_2 
REMARK    2  A    between atoms: C_3  and  C_4 
REMARK    3  A    between atoms: C_5  and  C_4 
REMARK    4  A    between atoms: C_6  and  C_5 
REMARK    5  A    between atoms: C_7  and  C_6 
REMARK    6  A    between atoms: N_8  and  C_7 
REMARK    7  A    between atoms: C_9  and  N_8 
REMARK    8  A    between atoms: C_22  and  N_21 
REMARK    9  A    between atoms: C_28  and  C_26 
REMARK       I    between atoms: N_30  and  C_28 
REMARK   10  A    between atoms: C_31  and  N_30 
REMARK   11  A    between atoms: C_32  and  C_31 
REMARK   12  A    between atoms: C_32  and  C_33 
ROOT
HETATM    1  C   UNK N   1      35.715  15.712  11.882  0.00  0.00     0.103 C 
ENDROOT
BRANCH   1   2
HETATM    2  C   UNK N   1      35.275  16.327  10.597  0.00  0.00     0.222 C 
HETATM    3  O   UNK N   1      35.575  17.481  10.329  0.00  0.00    -0.273 OA
HETATM    4  N   UNK N   1      34.452  15.619   9.802  0.00  0.00    -0.327 N 
HETATM    5  H   UNK N   1      34.254  14.691  10.066  0.00  0.00     0.169 HD
BRANCH   4   6
HETATM    6  C   UNK N   1      33.849  16.099   8.621  0.00  0.00     0.035 A 
HETATM    7  C   UNK N   1      34.511  16.227   7.389  0.00  0.00     0.029 A 
HETATM    8  C   UNK N   1      33.826  16.792   6.295  0.00  0.00     0.003 A 
HETATM    9  C   UNK N   1      32.511  17.276   6.454  0.00  0.00     0.017 A 
HETATM   10  C   UNK N   1      31.884  17.157   7.704  0.00  0.00     0.034 A 
HETATM   11  C   UNK N   1      32.565  16.554   8.749  0.00  0.00     0.046 A 
BRANCH  10  12
HETATM   12  C   UNK N   1      30.571  17.730   8.045  0.00  0.00     0.251 C 
HETATM   13  O   UNK N   1      30.336  18.193   9.151  0.00  0.00    -0.268 OA
HETATM   14  N   UNK N   1      29.608  17.648   7.094  0.00  0.00    -0.357 N 
HETATM   15  H   UNK N   1      29.889  17.281   6.226  0.00  0.00     0.162 HD
BRANCH  14  16
HETATM   16  C   UNK N   1      28.233  18.028   7.200  0.00  0.00     0.123 C 
BRANCH  16  17
HETATM   17  C   UNK N   1      28.180  19.440   6.637  0.00  0.00     0.019 C 
BRANCH  17  18
HETATM   18  C   UNK N   1      26.903  19.735   5.893  0.00  0.00    -0.003 C 
HETATM   19  C   UNK N   1      26.540  21.188   6.137  0.00  0.00     0.005 C 
ENDBRANCH  17  18
ENDBRANCH  16  17
ENDBRANCH  14  16
ENDBRANCH  10  12
ENDBRANCH   4   6
ENDBRANCH   1   2
BRANCH   1  20
HETATM   20  C   UNK N   1      35.137  14.325  12.001  0.00  0.00     0.009 C 
BRANCH  20  21
HETATM   21  C   UNK N   1      35.722  13.722  13.249  0.00  0.00     0.002 C 
BRANCH  21  22
HETATM   22  C   UNK N   1      35.496  12.241  13.311  0.00  0.00     0.020 C 
BRANCH  22  23
HETATM   23  C   UNK N   1      34.513  12.073  14.438  0.00  0.00     0.121 C 
BRANCH  23  24
HETATM   24  N   UNK N   1      35.131  11.541  15.623  0.00  0.00    -0.374 N 
HETATM   25  H   UNK N   1      35.534  10.645  15.556  0.00  0.00     0.161 HD
BRANCH  24  26
HETATM   26  C   UNK N   1      35.211  12.199  16.884  0.00  0.00     0.133 A 
HETATM   27  N   UNK N   1      35.305  13.561  16.900  0.00  0.00    -0.337 N 
HETATM   28  C   UNK N   1      35.374  14.265  18.074  0.00  0.00     0.183 A 
ATOM     29  HN  UNK N   1      35.323  14.068  16.015  1.00  0.00     0.168 HD
HETATM   30  N   UNK N   1      35.367  13.613  19.274  0.00  0.00    -0.337 N 
HETATM   31  C   UNK N   1      35.286  12.264  19.267  0.00  0.00     0.138 A 
ATOM     32  HN  UNK N   1      35.422  14.130  20.152  1.00  0.00     0.168 HD
HETATM   33  C   UNK N   1      35.203  11.546  18.127  0.00  0.00     0.122 A 
HETATM   34  N   UNK N   1      35.282  11.457  20.333  0.00  0.00    -0.337 N 
HETATM   35  N   UNK N   1      35.139  10.243  18.441  0.00  0.00    -0.346 N 
HETATM   36  C   UNK N   1      35.192  10.212  19.799  0.00  0.00     0.182 A 
ATOM     37  HN  UNK N   1      35.068   9.451  17.802  1.00  0.00     0.167 HD
HETATM   38  H   UNK N   1      35.332  11.707  21.284  0.00  0.00     0.168 HD
ENDBRANCH  24  26
ENDBRANCH  23  24
ENDBRANCH  22  23
ENDBRANCH  21  22
ENDBRANCH  20  21
ENDBRANCH   1  20
TORSDOF 12
ENDMDL
MODEL 7
REMARK VINA RESULT:      -6.6     10.428     13.472
REMARK  12 active torsions:
REMARK  status: ('A' for Active; 'I' for Inactive)
REMARK    1  A    between atoms: C_2  and  C_3 
REMARK       I    between atoms: N_21  and  C_2 
REMARK    2  A    between atoms: C_3  and  C_4 
REMARK    3  A    between atoms: C_5  and  C_4 
REMARK    4  A    between atoms: C_6  and  C_5 
REMARK    5  A    between atoms: C_7  and  C_6 
REMARK    6  A    between atoms: N_8  and  C_7 
REMARK    7  A    between atoms: C_9  and  N_8 
REMARK    8  A    between atoms: C_22  and  N_21 
REMARK    9  A    between atoms: C_28  and  C_26 
REMARK       I    between atoms: N_30  and  C_28 
REMARK   10  A    between atoms: C_31  and  N_30 
REMARK   11  A    between atoms: C_32  and  C_31 
REMARK   12  A    between atoms: C_32  and  C_33 
ROOT
HETATM    1  C   UNK N   1      36.695  13.322  12.172  0.00  0.00     0.103 C 
ENDROOT
BRANCH   1   2
HETATM    2  C   UNK N   1      35.930  13.260  13.451  0.00  0.00     0.222 C 
HETATM    3  O   UNK N   1      34.736  13.517  13.470  0.00  0.00    -0.273 OA
HETATM    4  N   UNK N   1      36.611  13.026  14.588  0.00  0.00    -0.327 N 
HETATM    5  H   UNK N   1      37.570  12.815  14.507  0.00  0.00     0.169 HD
BRANCH   4   6
HETATM    6  C   UNK N   1      36.062  13.058  15.886  0.00  0.00     0.035 A 
HETATM    7  C   UNK N   1      35.967  14.216  16.677  0.00  0.00     0.029 A 
HETATM    8  C   UNK N   1      35.468  14.112  17.990  0.00  0.00     0.003 A 
HETATM    9  C   UNK N   1      35.123  12.852  18.521  0.00  0.00     0.017 A 
HETATM   10  C   UNK N   1      35.252  11.710  17.715  0.00  0.00     0.034 A 
HETATM   11  C   UNK N   1      35.700  11.848  16.412  0.00  0.00     0.046 A 
BRANCH  10  12
HETATM   12  C   UNK N   1      35.051  10.326  18.177  0.00  0.00     0.251 C 
HETATM   13  O   UNK N   1      34.513  10.074  19.245  0.00  0.00    -0.268 OA
HETATM   14  N   UNK N   1      35.564   9.345  17.395  0.00  0.00    -0.357 N 
HETATM   15  H   UNK N   1      35.960   9.635  16.543  0.00  0.00     0.162 HD
BRANCH  14  16
HETATM   16  C   UNK N   1      35.598   7.939  17.658  0.00  0.00     0.123 C 
BRANCH  16  17
HETATM   17  C   UNK N   1      35.798   7.298  16.294  0.00  0.00     0.019 C 
BRANCH  17  18
HETATM   18  C   UNK N   1      36.546   8.180  15.327  0.00  0.00    -0.003 C 
HETATM   19  C   UNK N   1      35.835   8.123  13.988  0.00  0.00     0.005 C 
ENDBRANCH  17  18
ENDBRANCH  16  17
ENDBRANCH  14  16
ENDBRANCH  10  12
ENDBRANCH   4   6
ENDBRANCH   1   2
BRANCH   1  20
HETATM   20  C   UNK N   1      35.872  14.033  11.128  0.00  0.00     0.009 C 
BRANCH  20  21
HETATM   21  C   UNK N   1      36.459  15.411  10.984  0.00  0.00     0.002 C 
BRANCH  21  22
HETATM   22  C   UNK N   1      35.396  16.469  10.953  0.00  0.00     0.020 C 
BRANCH  22  23
HETATM   23  C   UNK N   1      34.866  16.405   9.546  0.00  0.00     0.121 C 
BRANCH  23  24
HETATM   24  N   UNK N   1      33.937  17.467   9.268  0.00  0.00    -0.374 N 
HETATM   25  H   UNK N   1      34.132  18.350   9.659  0.00  0.00     0.161 HD
BRANCH  24  26
HETATM   26  C   UNK N   1      32.760  17.353   8.474  0.00  0.00     0.133 A 
HETATM   27  N   UNK N   1      31.562  17.191   9.109  0.00  0.00    -0.337 N 
HETATM   28  C   UNK N   1      30.385  17.086   8.412  0.00  0.00     0.183 A 
ATOM     29  HN  UNK N   1      31.542  17.146  10.127  1.00  0.00     0.168 HD
HETATM   30  N   UNK N   1      30.382  17.126   7.047  0.00  0.00    -0.337 N 
HETATM   31  C   UNK N   1      31.565  17.276   6.411  0.00  0.00     0.138 A 
ATOM     32  HN  UNK N   1      29.511  17.045   6.523  1.00  0.00     0.168 HD
HETATM   33  C   UNK N   1      32.737  17.395   7.070  0.00  0.00     0.122 A 
HETATM   34  N   UNK N   1      31.762  17.320   5.089  0.00  0.00    -0.337 N 
HETATM   35  N   UNK N   1      33.726  17.525   6.173  0.00  0.00    -0.346 N 
HETATM   36  C   UNK N   1      33.105  17.475   4.964  0.00  0.00     0.182 A 
ATOM     37  HN  UNK N   1      34.723  17.637   6.357  1.00  0.00     0.167 HD
HETATM   38  H   UNK N   1      31.090  17.258   4.373  0.00  0.00     0.168 HD
ENDBRANCH  24  26
ENDBRANCH  23  24
ENDBRANCH  22  23
ENDBRANCH  21  22
ENDBRANCH  20  21
ENDBRANCH   1  20
TORSDOF 12
ENDMDL
MODEL 8
REMARK VINA RESULT:      -6.5     10.247     14.606
REMARK  12 active torsions:
REMARK  status: ('A' for Active; 'I' for Inactive)
REMARK    1  A    between atoms: C_2  and  C_3 
REMARK       I    between atoms: N_21  and  C_2 
REMARK    2  A    between atoms: C_3  and  C_4 
REMARK    3  A    between atoms: C_5  and  C_4 
REMARK    4  A    between atoms: C_6  and  C_5 
REMARK    5  A    between atoms: C_7  and  C_6 
REMARK    6  A    between atoms: N_8  and  C_7 
REMARK    7  A    between atoms: C_9  and  N_8 
REMARK    8  A    between atoms: C_22  and  N_21 
REMARK    9  A    between atoms: C_28  and  C_26 
REMARK       I    between atoms: N_30  and  C_28 
REMARK   10  A    between atoms: C_31  and  N_30 
REMARK   11  A    between atoms: C_32  and  C_31 
REMARK   12  A    between atoms: C_32  and  C_33 
ROOT
HETATM    1  C   UNK N   1      36.083  13.467  15.809  0.00  0.00     0.103 C 
ENDROOT
BRANCH   1   2
HETATM    2  C   UNK N   1      35.767  13.548  14.354  0.00  0.00     0.222 C 
HETATM    3  O   UNK N   1      34.722  13.084  13.921  0.00  0.00    -0.273 OA
HETATM    4  N   UNK N   1      36.707  14.040  13.526  0.00  0.00    -0.327 N 
HETATM    5  H   UNK N   1      37.524  14.407  13.934  0.00  0.00     0.169 HD
BRANCH   4   6
HETATM    6  C   UNK N   1      36.615  14.070  12.119  0.00  0.00     0.035 A 
HETATM    7  C   UNK N   1      37.270  13.168  11.263  0.00  0.00     0.029 A 
HETATM    8  C   UNK N   1      37.165  13.343   9.869  0.00  0.00     0.003 A 
HETATM    9  C   UNK N   1      36.459  14.444   9.343  0.00  0.00     0.017 A 
HETATM   10  C   UNK N   1      35.836  15.343  10.224  0.00  0.00     0.034 A 
HETATM   11  C   UNK N   1      35.916  15.119  11.588  0.00  0.00     0.046 A 
BRANCH  10  12
HETATM   12  C   UNK N   1      35.178  16.597   9.820  0.00  0.00     0.251 C 
HETATM   13  O   UNK N   1      35.489  17.674  10.306  0.00  0.00    -0.268 OA
HETATM   14  N   UNK N   1      34.154  16.489   8.939  0.00  0.00    -0.357 N 
HETATM   15  H   UNK N   1      33.984  15.588   8.582  0.00  0.00     0.162 HD
BRANCH  14  16
HETATM   16  C   UNK N   1      33.288  17.525   8.465  0.00  0.00     0.123 C 
BRANCH  16  17
HETATM   17  C   UNK N   1      31.902  16.901   8.474  0.00  0.00     0.019 C 
BRANCH  17  18
HETATM   18  C   UNK N   1      31.130  17.152   7.202  0.00  0.00    -0.003 C 
HETATM   19  C   UNK N   1      32.113  17.157   6.047  0.00  0.00     0.005 C 
ENDBRANCH  17  18
ENDBRANCH  16  17
ENDBRANCH  14  16
ENDBRANCH  10  12
ENDBRANCH   4   6
ENDBRANCH   1   2
BRANCH   1  20
HETATM   20  C   UNK N   1      34.978  12.732  16.524  0.00  0.00     0.009 C 
BRANCH  20  21
HETATM   21  C   UNK N   1      35.496  11.348  16.809  0.00  0.00     0.002 C 
BRANCH  21  22
HETATM   22  C   UNK N   1      34.629  10.292  16.191  0.00  0.00     0.020 C 
BRANCH  22  23
HETATM   23  C   UNK N   1      35.544   9.597  15.220  0.00  0.00     0.121 C 
BRANCH  23  24
HETATM   24  N   UNK N   1      35.476  10.171  13.903  0.00  0.00    -0.374 N 
HETATM   25  H   UNK N   1      35.755  11.110  13.807  0.00  0.00     0.161 HD
BRANCH  24  26
HETATM   26  C   UNK N   1      35.041   9.498  12.726  0.00  0.00     0.133 A 
HETATM   27  N   UNK N   1      35.129   8.136  12.687  0.00  0.00    -0.337 N 
HETATM   28  C   UNK N   1      34.719   7.418  11.593  0.00  0.00     0.183 A 
ATOM     29  HN  UNK N   1      35.509   7.640  13.493  1.00  0.00     0.168 HD
HETATM   30  N   UNK N   1      34.221   8.055  10.493  0.00  0.00    -0.337 N 
HETATM   31  C   UNK N   1      34.141   9.405  10.519  0.00  0.00     0.138 A 
ATOM     32  HN  UNK N   1      33.918   7.528   9.674  1.00  0.00     0.168 HD
HETATM   33  C   UNK N   1      34.524  10.136  11.586  0.00  0.00     0.122 A 
HETATM   34  N   UNK N   1      33.700  10.198   9.538  0.00  0.00    -0.337 N 
HETATM   35  N   UNK N   1      34.330  11.435  11.312  0.00  0.00    -0.346 N 
HETATM   36  C   UNK N   1      33.826  11.450  10.049  0.00  0.00     0.182 A 
ATOM     37  HN  UNK N   1      34.520  12.235  11.916  1.00  0.00     0.167 HD
HETATM   38  H   UNK N   1      33.361   9.937   8.651  0.00  0.00     0.168 HD
ENDBRANCH  24  26
ENDBRANCH  23  24
ENDBRANCH  22  23
ENDBRANCH  21  22
ENDBRANCH  20  21
ENDBRANCH   1  20
TORSDOF 12
ENDMDL
MODEL 9
REMARK VINA RESULT:      -6.5      5.431      8.609
REMARK  12 active torsions:
REMARK  status: ('A' for Active; 'I' for Inactive)
REMARK    1  A    between atoms: C_2  and  C_3 
REMARK       I    between atoms: N_21  and  C_2 
REMARK    2  A    between atoms: C_3  and  C_4 
REMARK    3  A    between atoms: C_5  and  C_4 
REMARK    4  A    between atoms: C_6  and  C_5 
REMARK    5  A    between atoms: C_7  and  C_6 
REMARK    6  A    between atoms: N_8  and  C_7 
REMARK    7  A    between atoms: C_9  and  N_8 
REMARK    8  A    between atoms: C_22  and  N_21 
REMARK    9  A    between atoms: C_28  and  C_26 
REMARK       I    between atoms: N_30  and  C_28 
REMARK   10  A    between atoms: C_31  and  N_30 
REMARK   11  A    between atoms: C_32  and  C_31 
REMARK   12  A    between atoms: C_32  and  C_33 
ROOT
HETATM    1  C   UNK N   1      30.726  16.791   6.146  0.00  0.00     0.103 C 
ENDROOT
BRANCH   1   2
HETATM    2  C   UNK N   1      29.631  17.239   5.239  0.00  0.00     0.222 C 
HETATM    3  O   UNK N   1      29.654  16.948   4.052  0.00  0.00    -0.273 OA
HETATM    4  N   UNK N   1      28.689  18.061   5.737  0.00  0.00    -0.327 N 
HETATM    5  H   UNK N   1      28.718  18.252   6.702  0.00  0.00     0.169 HD
BRANCH   4   6
HETATM    6  C   UNK N   1      27.663  18.671   4.986  0.00  0.00     0.035 A 
HETATM    7  C   UNK N   1      27.792  19.903   4.323  0.00  0.00     0.029 A 
HETATM    8  C   UNK N   1      26.673  20.451   3.667  0.00  0.00     0.003 A 
HETATM    9  C   UNK N   1      25.425  19.797   3.724  0.00  0.00     0.017 A 
HETATM   10  C   UNK N   1      25.321  18.580   4.415  0.00  0.00     0.034 A 
HETATM   11  C   UNK N   1      26.448  18.041   5.011  0.00  0.00     0.046 A 
BRANCH  10  12
HETATM   12  C   UNK N   1      24.061  17.857   4.663  0.00  0.00     0.251 C 
HETATM   13  O   UNK N   1      24.018  16.857   5.362  0.00  0.00    -0.268 OA
HETATM   14  N   UNK N   1      22.962  18.313   4.013  0.00  0.00    -0.357 N 
HETATM   15  H   UNK N   1      23.081  19.137   3.488  0.00  0.00     0.162 HD
BRANCH  14  16
HETATM   16  C   UNK N   1      21.651  17.742   3.995  0.00  0.00     0.123 C 
BRANCH  16  17
HETATM   17  C   UNK N   1      20.837  18.673   3.111  0.00  0.00     0.019 C 
BRANCH  17  18
HETATM   18  C   UNK N   1      21.555  19.959   2.785  0.00  0.00    -0.003 C 
HETATM   19  C   UNK N   1      20.748  20.695   1.732  0.00  0.00     0.005 C 
ENDBRANCH  17  18
ENDBRANCH  16  17
ENDBRANCH  14  16
ENDBRANCH  10  12
ENDBRANCH   4   6
ENDBRANCH   1   2
BRANCH   1  20
HETATM   20  C   UNK N   1      30.392  17.172   7.566  0.00  0.00     0.009 C 
BRANCH  20  21
HETATM   21  C   UNK N   1      31.633  17.794   8.147  0.00  0.00     0.002 C 
BRANCH  21  22
HETATM   22  C   UNK N   1      32.800  17.687   7.211  0.00  0.00     0.020 C 
BRANCH  22  23
HETATM   23  C   UNK N   1      33.984  18.040   8.070  0.00  0.00     0.121 C 
BRANCH  23  24
HETATM   24  N   UNK N   1      33.898  17.454   9.380  0.00  0.00    -0.374 N 
HETATM   25  H   UNK N   1      33.144  17.732   9.949  0.00  0.00     0.161 HD
BRANCH  24  26
HETATM   26  C   UNK N   1      34.809  16.505   9.926  0.00  0.00     0.133 A 
HETATM   27  N   UNK N   1      35.161  16.625  11.240  0.00  0.00    -0.337 N 
HETATM   28  C   UNK N   1      36.023  15.743  11.839  0.00  0.00     0.183 A 
ATOM     29  HN  UNK N   1      34.774  17.391  11.790  1.00  0.00     0.168 HD
HETATM   30  N   UNK N   1      36.572  14.717  11.124  0.00  0.00    -0.337 N 
HETATM   31  C   UNK N   1      36.236  14.597   9.820  0.00  0.00     0.138 A 
ATOM     32  HN  UNK N   1      37.216  14.059  11.562  1.00  0.00     0.168 HD
HETATM   33  C   UNK N   1      35.380  15.442   9.208  0.00  0.00     0.122 A 
HETATM   34  N   UNK N   1      36.681  13.673   8.962  0.00  0.00    -0.337 N 
HETATM   35  N   UNK N   1      35.251  15.072   7.925  0.00  0.00    -0.346 N 
HETATM   36  C   UNK N   1      36.059  13.986   7.795  0.00  0.00     0.182 A 
ATOM     37  HN  UNK N   1      34.674  15.509   7.205  1.00  0.00     0.167 HD
HETATM   38  H   UNK N   1      37.310  12.937   9.134  0.00  0.00     0.168 HD
ENDBRANCH  24  26
ENDBRANCH  23  24
ENDBRANCH  22  23
ENDBRANCH  21  22
ENDBRANCH  20  21
ENDBRANCH   1  20
TORSDOF 12
ENDMDL
