REMARK  1 active torsions:
REMARK  status: ('A' for Active; 'I' for Inactive)
REMARK    1  A    between atoms: C_14  and  O_15 
ROOT
HETATM    1 Br   UNK N   1      -4.031   1.943   0.003  0.00  0.00    -0.044 Br
HETATM    2  C   UNK N   1      -2.329   1.048   0.001  0.00  0.00     0.093 A 
HETATM    3  C   UNK N   1      -2.280  -0.354   0.001  0.00  0.00     0.306 A 
HETATM    4  O   UNK N   1      -3.312  -1.002   0.003  0.00  0.00    -0.258 OA
HETATM    5  O   UNK N   1      -1.113  -0.991  -0.000  0.00  0.00    -0.272 OA
HETATM    6  C   UNK N   1      -1.123   1.769   0.000  0.00  0.00    -0.025 A 
HETATM    7  C   UNK N   1      -1.132   3.267   0.000  0.00  0.00     0.050 C 
HETATM    8  C   UNK N   1       0.088   1.062   0.000  0.00  0.00     0.007 A 
HETATM    9  C   UNK N   1       0.053  -0.350  -0.001  0.00  0.00     0.110 A 
HETATM   10  C   UNK N   1       1.251  -1.079  -0.002  0.00  0.00     0.079 A 
HETATM   11 Br   UNK N   1       1.209  -2.996  -0.005  0.00  0.00    -0.045 Br
HETATM   12  C   UNK N   1       1.323   1.725   0.001  0.00  0.00     0.017 A 
HETATM   13  C   UNK N   1       2.512   0.994   0.001  0.00  0.00     0.039 A 
HETATM   14  C   UNK N   1       2.480  -0.402  -0.001  0.00  0.00     0.085 A 
ENDROOT
BRANCH  14  15
HETATM   15  O   UNK N   1       3.634  -1.089  -0.002  0.00  0.00    -0.359 OA
HETATM   16  H   UNK N   1       3.621  -2.026  -0.002  0.00  0.00     0.217 HD
ENDBRANCH  14  15
TORSDOF 1
