MODEL 1
REMARK VINA RESULT:      -5.8      0.000      0.000
REMARK  1 active torsions:
REMARK  status: ('A' for Active; 'I' for Inactive)
REMARK    1  A    between atoms: C_14  and  O_15 
ROOT
HETATM    1 Br   UNK N   1      34.015  15.864   5.309  0.00  0.00    -0.044 Br
HETATM    2  C   UNK N   1      32.333  16.319   6.122  0.00  0.00     0.093 A 
HETATM    3  C   UNK N   1      31.144  15.776   5.613  0.00  0.00     0.306 A 
HETATM    4  O   UNK N   1      31.177  15.021   4.657  0.00  0.00    -0.258 OA
HETATM    5  O   UNK N   1      29.972  16.079   6.161  0.00  0.00    -0.272 OA
HETATM    6  C   UNK N   1      32.265  17.188   7.224  0.00  0.00    -0.025 A 
HETATM    7  C   UNK N   1      33.511  17.789   7.798  0.00  0.00     0.050 C 
HETATM    8  C   UNK N   1      31.010  17.484   7.775  0.00  0.00     0.007 A 
HETATM    9  C   UNK N   1      29.859  16.897   7.205  0.00  0.00     0.110 A 
HETATM   10  C   UNK N   1      28.593  17.177   7.739  0.00  0.00     0.079 A 
HETATM   11 Br   UNK N   1      27.028  16.381   6.969  0.00  0.00    -0.045 Br
HETATM   12  C   UNK N   1      30.877  18.346   8.873  0.00  0.00     0.017 A 
HETATM   13  C   UNK N   1      29.614  18.622   9.400  0.00  0.00     0.039 A 
HETATM   14  C   UNK N   1      28.475  18.041   8.838  0.00  0.00     0.085 A 
ENDROOT
BRANCH  14  15
HETATM   15  O   UNK N   1      27.268  18.317   9.359  0.00  0.00    -0.359 OA
HETATM   16  H   UNK N   1      26.920  17.781  10.044  0.00  0.00     0.217 HD
ENDBRANCH  14  15
TORSDOF 1
ENDMDL
MODEL 2
REMARK VINA RESULT:      -5.5     16.257     17.122
REMARK  1 active torsions:
REMARK  status: ('A' for Active; 'I' for Inactive)
REMARK    1  A    between atoms: C_14  and  O_15 
ROOT
HETATM    1 Br   UNK N   1      26.527  26.956  -2.938  0.00  0.00    -0.044 Br
HETATM    2  C   UNK N   1      26.240  25.923  -4.534  0.00  0.00     0.093 A 
HETATM    3  C   UNK N   1      26.034  24.538  -4.439  0.00  0.00     0.306 A 
HETATM    4  O   UNK N   1      26.037  23.993  -3.350  0.00  0.00    -0.258 OA
HETATM    5  O   UNK N   1      25.834  23.807  -5.531  0.00  0.00    -0.272 OA
HETATM    6  C   UNK N   1      26.233  26.524  -5.804  0.00  0.00    -0.025 A 
HETATM    7  C   UNK N   1      26.449  27.999  -5.949  0.00  0.00     0.050 C 
HETATM    8  C   UNK N   1      26.020  25.720  -6.933  0.00  0.00     0.007 A 
HETATM    9  C   UNK N   1      25.819  24.333  -6.753  0.00  0.00     0.110 A 
HETATM   10  C   UNK N   1      25.603  23.508  -7.867  0.00  0.00     0.079 A 
HETATM   11 Br   UNK N   1      25.327  21.626  -7.628  0.00  0.00    -0.045 Br
HETATM   12  C   UNK N   1      26.003  26.261  -8.226  0.00  0.00     0.017 A 
HETATM   13  C   UNK N   1      25.789  25.435  -9.330  0.00  0.00     0.039 A 
HETATM   14  C   UNK N   1      25.589  24.064  -9.155  0.00  0.00     0.085 A 
ENDROOT
BRANCH  14  15
HETATM   15  O   UNK N   1      25.383  23.284 -10.229  0.00  0.00    -0.359 OA
HETATM   16  H   UNK N   1      24.758  23.539 -10.879  0.00  0.00     0.217 HD
ENDBRANCH  14  15
TORSDOF 1
ENDMDL
MODEL 3
REMARK VINA RESULT:      -5.5      8.153      9.612
REMARK  1 active torsions:
REMARK  status: ('A' for Active; 'I' for Inactive)
REMARK    1  A    between atoms: C_14  and  O_15 
ROOT
HETATM    1 Br   UNK N   1      26.651  19.358   4.146  0.00  0.00    -0.044 Br
HETATM    2  C   UNK N   1      24.796  19.420   3.642  0.00  0.00     0.093 A 
HETATM    3  C   UNK N   1      24.343  20.429   2.779  0.00  0.00     0.306 A 
HETATM    4  O   UNK N   1      25.121  21.263   2.351  0.00  0.00    -0.258 OA
HETATM    5  O   UNK N   1      23.064  20.489   2.420  0.00  0.00    -0.272 OA
HETATM    6  C   UNK N   1      23.876  18.472   4.120  0.00  0.00    -0.025 A 
HETATM    7  C   UNK N   1      24.319  17.379   5.044  0.00  0.00     0.050 C 
HETATM    8  C   UNK N   1      22.535  18.569   3.720  0.00  0.00     0.007 A 
HETATM    9  C   UNK N   1      22.158  19.614   2.848  0.00  0.00     0.110 A 
HETATM   10  C   UNK N   1      20.823  19.730   2.433  0.00  0.00     0.079 A 
HETATM   11 Br   UNK N   1      20.306  21.146   1.247  0.00  0.00    -0.045 Br
HETATM   12  C   UNK N   1      21.570  17.655   4.165  0.00  0.00     0.017 A 
HETATM   13  C   UNK N   1      20.244  17.777   3.749  0.00  0.00     0.039 A 
HETATM   14  C   UNK N   1      19.868  18.808   2.886  0.00  0.00     0.085 A 
ENDROOT
BRANCH  14  15
HETATM   15  O   UNK N   1      18.587  18.909   2.496  0.00  0.00    -0.359 OA
HETATM   16  H   UNK N   1      18.056  18.140   2.431  0.00  0.00     0.217 HD
ENDBRANCH  14  15
TORSDOF 1
ENDMDL
MODEL 4
REMARK VINA RESULT:      -5.5     12.955     13.846
REMARK  1 active torsions:
REMARK  status: ('A' for Active; 'I' for Inactive)
REMARK    1  A    between atoms: C_14  and  O_15 
ROOT
HETATM    1 Br   UNK N   1      32.511  21.255  -3.079  0.00  0.00    -0.044 Br
HETATM    2  C   UNK N   1      30.902  22.107  -3.698  0.00  0.00     0.093 A 
HETATM    3  C   UNK N   1      30.228  23.013  -2.865  0.00  0.00     0.306 A 
HETATM    4  O   UNK N   1      30.661  23.257  -1.752  0.00  0.00    -0.258 OA
HETATM    5  O   UNK N   1      29.114  23.611  -3.275  0.00  0.00    -0.272 OA
HETATM    6  C   UNK N   1      30.379  21.844  -4.976  0.00  0.00    -0.025 A 
HETATM    7  C   UNK N   1      31.068  20.884  -5.896  0.00  0.00     0.050 C 
HETATM    8  C   UNK N   1      29.202  22.494  -5.372  0.00  0.00     0.007 A 
HETATM    9  C   UNK N   1      28.584  23.392  -4.475  0.00  0.00     0.110 A 
HETATM   10  C   UNK N   1      27.406  24.055  -4.850  0.00  0.00     0.079 A 
HETATM   11 Br   UNK N   1      26.564  25.277  -3.636  0.00  0.00    -0.045 Br
HETATM   12  C   UNK N   1      28.631  22.270  -6.633  0.00  0.00     0.017 A 
HETATM   13  C   UNK N   1      27.458  22.932  -7.000  0.00  0.00     0.039 A 
HETATM   14  C   UNK N   1      26.846  23.822  -6.115  0.00  0.00     0.085 A 
ENDROOT
BRANCH  14  15
HETATM   15  O   UNK N   1      25.718  24.450  -6.485  0.00  0.00    -0.359 OA
HETATM   16  H   UNK N   1      25.720  25.011  -7.236  0.00  0.00     0.217 HD
ENDBRANCH  14  15
TORSDOF 1
ENDMDL
MODEL 5
REMARK VINA RESULT:      -5.4      9.929     11.329
REMARK  1 active torsions:
REMARK  status: ('A' for Active; 'I' for Inactive)
REMARK    1  A    between atoms: C_14  and  O_15 
ROOT
HETATM    1 Br   UNK N   1      20.881  15.802   8.004  0.00  0.00    -0.044 Br
HETATM    2  C   UNK N   1      20.793  16.611   6.261  0.00  0.00     0.093 A 
HETATM    3  C   UNK N   1      21.035  17.986   6.119  0.00  0.00     0.306 A 
HETATM    4  O   UNK N   1      21.298  18.665   7.096  0.00  0.00    -0.258 OA
HETATM    5  O   UNK N   1      20.979  18.563   4.923  0.00  0.00    -0.272 OA
HETATM    6  C   UNK N   1      20.491  15.854   5.117  0.00  0.00    -0.025 A 
HETATM    7  C   UNK N   1      20.226  14.383   5.226  0.00  0.00     0.050 C 
HETATM    8  C   UNK N   1      20.440  16.498   3.873  0.00  0.00     0.007 A 
HETATM    9  C   UNK N   1      20.696  17.886   3.813  0.00  0.00     0.110 A 
HETATM   10  C   UNK N   1      20.652  18.552   2.580  0.00  0.00     0.079 A 
HETATM   11 Br   UNK N   1      21.002  20.436   2.493  0.00  0.00    -0.045 Br
HETATM   12  C   UNK N   1      20.141  15.797   2.697  0.00  0.00     0.017 A 
HETATM   13  C   UNK N   1      20.098  16.466   1.472  0.00  0.00     0.039 A 
HETATM   14  C   UNK N   1      20.352  17.838   1.411  0.00  0.00     0.085 A 
ENDROOT
BRANCH  14  15
HETATM   15  O   UNK N   1      20.307  18.465   0.224  0.00  0.00    -0.359 OA
HETATM   16  H   UNK N   1      19.494  18.539  -0.236  0.00  0.00     0.217 HD
ENDBRANCH  14  15
TORSDOF 1
ENDMDL
MODEL 6
REMARK VINA RESULT:      -5.4     12.777     13.898
REMARK  1 active torsions:
REMARK  status: ('A' for Active; 'I' for Inactive)
REMARK    1  A    between atoms: C_14  and  O_15 
ROOT
HETATM    1 Br   UNK N   1      26.111  24.374  -6.968  0.00  0.00    -0.044 Br
HETATM    2  C   UNK N   1      27.565  23.538  -6.027  0.00  0.00     0.093 A 
HETATM    3  C   UNK N   1      28.272  22.488  -6.631  0.00  0.00     0.306 A 
HETATM    4  O   UNK N   1      27.965  22.106  -7.747  0.00  0.00    -0.258 OA
HETATM    5  O   UNK N   1      29.280  21.897  -5.996  0.00  0.00    -0.272 OA
HETATM    6  C   UNK N   1      27.940  23.957  -4.740  0.00  0.00    -0.025 A 
HETATM    7  C   UNK N   1      27.211  25.075  -4.060  0.00  0.00     0.050 C 
HETATM    8  C   UNK N   1      29.008  23.309  -4.102  0.00  0.00     0.007 A 
HETATM    9  C   UNK N   1      29.670  22.260  -4.777  0.00  0.00     0.110 A 
HETATM   10  C   UNK N   1      30.741  21.598  -4.160  0.00  0.00     0.079 A 
HETATM   11 Br   UNK N   1      31.645  20.175  -5.073  0.00  0.00    -0.045 Br
HETATM   12  C   UNK N   1      29.427  23.681  -2.817  0.00  0.00     0.017 A 
HETATM   13  C   UNK N   1      30.493  23.017  -2.207  0.00  0.00     0.039 A 
HETATM   14  C   UNK N   1      31.150  21.980  -2.873  0.00  0.00     0.085 A 
ENDROOT
BRANCH  14  15
HETATM   15  O   UNK N   1      32.175  21.354  -2.272  0.00  0.00    -0.359 OA
HETATM   16  H   UNK N   1      32.179  21.252  -1.341  0.00  0.00     0.217 HD
ENDBRANCH  14  15
TORSDOF 1
ENDMDL
MODEL 7
REMARK VINA RESULT:      -5.2     12.419     13.840
REMARK  1 active torsions:
REMARK  status: ('A' for Active; 'I' for Inactive)
REMARK    1  A    between atoms: C_14  and  O_15 
ROOT
HETATM    1 Br   UNK N   1      28.760  20.760  -9.080  0.00  0.00    -0.044 Br
HETATM    2  C   UNK N   1      29.854  20.733  -7.499  0.00  0.00     0.093 A 
HETATM    3  C   UNK N   1      30.987  19.908  -7.451  0.00  0.00     0.306 A 
HETATM    4  O   UNK N   1      31.277  19.209  -8.406  0.00  0.00    -0.258 OA
HETATM    5  O   UNK N   1      31.756  19.875  -6.366  0.00  0.00    -0.272 OA
HETATM    6  C   UNK N   1      29.545  21.527  -6.382  0.00  0.00    -0.025 A 
HETATM    7  C   UNK N   1      28.344  22.422  -6.393  0.00  0.00     0.050 C 
HETATM    8  C   UNK N   1      30.379  21.465  -5.256  0.00  0.00     0.007 A 
HETATM    9  C   UNK N   1      31.502  20.609  -5.286  0.00  0.00     0.110 A 
HETATM   10  C   UNK N   1      32.351  20.531  -4.173  0.00  0.00     0.079 A 
HETATM   11 Br   UNK N   1      33.878  19.371  -4.208  0.00  0.00    -0.045 Br
HETATM   12  C   UNK N   1      30.121  22.231  -4.111  0.00  0.00     0.017 A 
HETATM   13  C   UNK N   1      30.969  22.148  -3.005  0.00  0.00     0.039 A 
HETATM   14  C   UNK N   1      32.081  21.303  -3.033  0.00  0.00     0.085 A 
ENDROOT
BRANCH  14  15
HETATM   15  O   UNK N   1      32.887  21.237  -1.961  0.00  0.00    -0.359 OA
HETATM   16  H   UNK N   1      33.387  20.462  -1.798  0.00  0.00     0.217 HD
ENDBRANCH  14  15
TORSDOF 1
ENDMDL
MODEL 8
REMARK VINA RESULT:      -5.2     12.857     14.152
REMARK  1 active torsions:
REMARK  status: ('A' for Active; 'I' for Inactive)
REMARK    1  A    between atoms: C_14  and  O_15 
ROOT
HETATM    1 Br   UNK N   1      27.771  21.244  -9.090  0.00  0.00    -0.044 Br
HETATM    2  C   UNK N   1      28.724  21.446  -7.432  0.00  0.00     0.093 A 
HETATM    3  C   UNK N   1      28.362  22.467  -6.541  0.00  0.00     0.306 A 
HETATM    4  O   UNK N   1      27.447  23.223  -6.816  0.00  0.00    -0.258 OA
HETATM    5  O   UNK N   1      29.009  22.623  -5.390  0.00  0.00    -0.272 OA
HETATM    6  C   UNK N   1      29.784  20.590  -7.089  0.00  0.00    -0.025 A 
HETATM    7  C   UNK N   1      30.202  19.488  -8.013  0.00  0.00     0.050 C 
HETATM    8  C   UNK N   1      30.444  20.787  -5.867  0.00  0.00     0.007 A 
HETATM    9  C   UNK N   1      30.018  21.837  -5.024  0.00  0.00     0.110 A 
HETATM   10  C   UNK N   1      30.662  22.052  -3.796  0.00  0.00     0.079 A 
HETATM   11 Br   UNK N   1      30.087  23.475  -2.647  0.00  0.00    -0.045 Br
HETATM   12  C   UNK N   1      31.509  19.967  -5.470  0.00  0.00     0.017 A 
HETATM   13  C   UNK N   1      32.147  20.187  -4.248  0.00  0.00     0.039 A 
HETATM   14  C   UNK N   1      31.727  21.224  -3.412  0.00  0.00     0.085 A 
ENDROOT
BRANCH  14  15
HETATM   15  O   UNK N   1      32.351  21.420  -2.239  0.00  0.00    -0.359 OA
HETATM   16  H   UNK N   1      32.618  20.685  -1.722  0.00  0.00     0.217 HD
ENDBRANCH  14  15
TORSDOF 1
ENDMDL
MODEL 9
REMARK VINA RESULT:      -5.2     13.576     15.475
REMARK  1 active torsions:
REMARK  status: ('A' for Active; 'I' for Inactive)
REMARK    1  A    between atoms: C_14  and  O_15 
ROOT
HETATM    1 Br   UNK N   1      39.471  23.591  -0.956  0.00  0.00    -0.044 Br
HETATM    2  C   UNK N   1      41.019  23.476   0.179  0.00  0.00     0.093 A 
HETATM    3  C   UNK N   1      42.023  24.451   0.087  0.00  0.00     0.306 A 
HETATM    4  O   UNK N   1      41.915  25.367  -0.710  0.00  0.00    -0.258 OA
HETATM    5  O   UNK N   1      43.101  24.389   0.862  0.00  0.00    -0.272 OA
HETATM    6  C   UNK N   1      41.171  22.431   1.105  0.00  0.00    -0.025 A 
HETATM    7  C   UNK N   1      40.122  21.370   1.235  0.00  0.00     0.050 C 
HETATM    8  C   UNK N   1      42.323  22.398   1.905  0.00  0.00     0.007 A 
HETATM    9  C   UNK N   1      43.288  23.418   1.753  0.00  0.00     0.110 A 
HETATM   10  C   UNK N   1      44.447  23.407   2.542  0.00  0.00     0.079 A 
HETATM   11 Br   UNK N   1      45.760  24.790   2.340  0.00  0.00    -0.045 Br
HETATM   12  C   UNK N   1      42.532  21.380   2.846  0.00  0.00     0.017 A 
HETATM   13  C   UNK N   1      43.688  21.374   3.628  0.00  0.00     0.039 A 
HETATM   14  C   UNK N   1      44.644  22.382   3.480  0.00  0.00     0.085 A 
ENDROOT
BRANCH  14  15
HETATM   15  O   UNK N   1      45.749  22.361   4.241  0.00  0.00    -0.359 OA
HETATM   16  H   UNK N   1      46.128  21.542   4.495  0.00  0.00     0.217 HD
ENDBRANCH  14  15
TORSDOF 1
ENDMDL
