MODEL 1
REMARK VINA RESULT:      -5.7      0.000      0.000
REMARK  3 active torsions:
REMARK  status: ('A' for Active; 'I' for Inactive)
REMARK    1  A    between atoms: O_1  and  C_2 
REMARK    2  A    between atoms: C_2  and  C_4 
REMARK    3  A    between atoms: C_7  and  C_10 
ROOT
HETATM    1  C   UNK N   1      25.752  22.623  -7.069  0.00  0.00     0.123 A 
HETATM    2  C   UNK N   1      27.114  22.616  -6.851  0.00  0.00     0.126 A 
HETATM    3  N   UNK N   1      27.414  23.692  -6.091  0.00  0.00    -0.349 N 
HETATM    4  C   UNK N   1      26.235  24.312  -5.873  0.00  0.00     0.116 A 
HETATM    5  N   UNK N   1      25.203  23.682  -6.459  0.00  0.00    -0.335 N 
ATOM      6  HN  UNK N   1      24.218  23.949  -6.443  1.00  0.00     0.168 HD
HETATM    7  H   UNK N   1      28.302  23.965  -5.765  0.00  0.00     0.167 HD
ENDROOT
BRANCH   4   8
HETATM    8  C   UNK N   1      26.064  25.543  -5.087  0.00  0.00     0.008 A 
HETATM    9  C   UNK N   1      26.574  25.653  -3.787  0.00  0.00     0.015 A 
HETATM   10  C   UNK N   1      26.395  26.838  -3.065  0.00  0.00     0.001 A 
HETATM   11  C   UNK N   1      25.708  27.913  -3.638  0.00  0.00     0.000 A 
HETATM   12  C   UNK N   1      25.199  27.806  -4.934  0.00  0.00     0.001 A 
HETATM   13  C   UNK N   1      25.377  26.625  -5.655  0.00  0.00     0.015 A 
ENDBRANCH   4   8
BRANCH   1  14
HETATM   14  C   UNK N   1      24.971  21.648  -7.842  0.00  0.00     0.195 C 
HETATM   15  O   UNK N   1      25.486  20.602  -8.197  0.00  0.00    -0.645 OA
BRANCH  14  16
HETATM   16  O   UNK N   1      23.688  21.904  -8.159  0.00  0.00    -0.772 OA
HETATM   17  H   UNK N   1      23.276  22.687  -7.852  0.00  0.00     0.167 HD
ENDBRANCH  14  16
ENDBRANCH   1  14
TORSDOF 3
ENDMDL
MODEL 2
REMARK VINA RESULT:      -5.7     24.805     25.920
REMARK  3 active torsions:
REMARK  status: ('A' for Active; 'I' for Inactive)
REMARK    1  A    between atoms: O_1  and  C_2 
REMARK    2  A    between atoms: C_2  and  C_4 
REMARK    3  A    between atoms: C_7  and  C_10 
ROOT
HETATM    1  C   UNK N   1      35.420  13.748  13.042  0.00  0.00     0.123 A 
HETATM    2  C   UNK N   1      36.459  14.557  13.455  0.00  0.00     0.126 A 
HETATM    3  N   UNK N   1      36.681  14.307  14.763  0.00  0.00    -0.349 N 
HETATM    4  C   UNK N   1      35.778  13.362  15.101  0.00  0.00     0.116 A 
HETATM    5  N   UNK N   1      34.995  13.001  14.070  0.00  0.00    -0.335 N 
ATOM      6  HN  UNK N   1      34.243  12.312  14.070  1.00  0.00     0.168 HD
HETATM    7  H   UNK N   1      37.356  14.724  15.346  0.00  0.00     0.167 HD
ENDROOT
BRANCH   4   8
HETATM    8  C   UNK N   1      35.640  12.771  16.441  0.00  0.00     0.008 A 
HETATM    9  C   UNK N   1      35.275  13.550  17.546  0.00  0.00     0.015 A 
HETATM   10  C   UNK N   1      35.152  12.958  18.808  0.00  0.00     0.001 A 
HETATM   11  C   UNK N   1      35.393  11.589  18.968  0.00  0.00     0.000 A 
HETATM   12  C   UNK N   1      35.758  10.811  17.868  0.00  0.00     0.001 A 
HETATM   13  C   UNK N   1      35.880  11.400  16.610  0.00  0.00     0.015 A 
ENDBRANCH   4   8
BRANCH   1  14
HETATM   14  C   UNK N   1      34.831  13.673  11.699  0.00  0.00     0.195 C 
HETATM   15  O   UNK N   1      35.260  12.867  10.891  0.00  0.00    -0.645 OA
BRANCH  14  16
HETATM   16  O   UNK N   1      33.817  14.490  11.355  0.00  0.00    -0.772 OA
HETATM   17  H   UNK N   1      33.836  14.940  10.533  0.00  0.00     0.167 HD
ENDBRANCH  14  16
ENDBRANCH   1  14
TORSDOF 3
ENDMDL
MODEL 3
REMARK VINA RESULT:      -5.7     24.388     25.511
REMARK  3 active torsions:
REMARK  status: ('A' for Active; 'I' for Inactive)
REMARK    1  A    between atoms: O_1  and  C_2 
REMARK    2  A    between atoms: C_2  and  C_4 
REMARK    3  A    between atoms: C_7  and  C_10 
ROOT
HETATM    1  C   UNK N   1      36.281  14.222  12.391  0.00  0.00     0.123 A 
HETATM    2  C   UNK N   1      37.134  13.169  12.134  0.00  0.00     0.126 A 
HETATM    3  N   UNK N   1      37.156  12.381  13.231  0.00  0.00    -0.349 N 
HETATM    4  C   UNK N   1      36.323  12.976  14.111  0.00  0.00     0.116 A 
HETATM    5  N   UNK N   1      35.774  14.102  13.626  0.00  0.00    -0.335 N 
ATOM      6  HN  UNK N   1      35.118  14.728  14.093  1.00  0.00     0.168 HD
HETATM    7  H   UNK N   1      37.669  11.551  13.361  0.00  0.00     0.167 HD
ENDROOT
BRANCH   4   8
HETATM    8  C   UNK N   1      36.028  12.473  15.461  0.00  0.00     0.008 A 
HETATM    9  C   UNK N   1      36.363  11.167  15.841  0.00  0.00     0.015 A 
HETATM   10  C   UNK N   1      36.068  10.718  17.133  0.00  0.00     0.001 A 
HETATM   11  C   UNK N   1      35.439  11.570  18.047  0.00  0.00     0.000 A 
HETATM   12  C   UNK N   1      35.104  12.872  17.670  0.00  0.00     0.001 A 
HETATM   13  C   UNK N   1      35.397  13.321  16.382  0.00  0.00     0.015 A 
ENDBRANCH   4   8
BRANCH   1  14
HETATM   14  C   UNK N   1      35.941  15.332  11.490  0.00  0.00     0.195 C 
HETATM   15  O   UNK N   1      34.772  15.588  11.256  0.00  0.00    -0.645 OA
BRANCH  14  16
HETATM   16  O   UNK N   1      36.915  16.068  10.922  0.00  0.00    -0.772 OA
HETATM   17  H   UNK N   1      36.709  16.655  10.221  0.00  0.00     0.167 HD
ENDBRANCH  14  16
ENDBRANCH   1  14
TORSDOF 3
ENDMDL
MODEL 4
REMARK VINA RESULT:      -5.6     19.919     21.131
REMARK  3 active torsions:
REMARK  status: ('A' for Active; 'I' for Inactive)
REMARK    1  A    between atoms: O_1  and  C_2 
REMARK    2  A    between atoms: C_2  and  C_4 
REMARK    3  A    between atoms: C_7  and  C_10 
ROOT
HETATM    1  C   UNK N   1      34.328  17.074   8.954  0.00  0.00     0.123 A 
HETATM    2  C   UNK N   1      33.127  16.397   9.004  0.00  0.00     0.126 A 
HETATM    3  N   UNK N   1      33.246  15.418   9.927  0.00  0.00    -0.349 N 
HETATM    4  C   UNK N   1      34.504  15.530  10.403  0.00  0.00     0.116 A 
HETATM    5  N   UNK N   1      35.188  16.533   9.827  0.00  0.00    -0.335 N 
ATOM      6  HN  UNK N   1      36.149  16.819  10.014  1.00  0.00     0.168 HD
HETATM    7  H   UNK N   1      32.562  14.763  10.194  0.00  0.00     0.167 HD
ENDROOT
BRANCH   4   8
HETATM    8  C   UNK N   1      35.091  14.666  11.438  0.00  0.00     0.008 A 
HETATM    9  C   UNK N   1      35.807  15.204  12.515  0.00  0.00     0.015 A 
HETATM   10  C   UNK N   1      36.354  14.355  13.484  0.00  0.00     0.001 A 
HETATM   11  C   UNK N   1      36.188  12.970  13.379  0.00  0.00     0.000 A 
HETATM   12  C   UNK N   1      35.474  12.432  12.306  0.00  0.00     0.001 A 
HETATM   13  C   UNK N   1      34.929  13.277  11.340  0.00  0.00     0.015 A 
ENDBRANCH   4   8
BRANCH   1  14
HETATM   14  C   UNK N   1      34.670  18.217   8.097  0.00  0.00     0.195 C 
HETATM   15  O   UNK N   1      34.368  18.202   6.915  0.00  0.00    -0.645 OA
BRANCH  14  16
HETATM   16  O   UNK N   1      35.315  19.282   8.609  0.00  0.00    -0.772 OA
HETATM   17  H   UNK N   1      35.096  20.146   8.320  0.00  0.00     0.167 HD
ENDBRANCH  14  16
ENDBRANCH   1  14
TORSDOF 3
ENDMDL
MODEL 5
REMARK VINA RESULT:      -5.6     16.909     18.080
REMARK  3 active torsions:
REMARK  status: ('A' for Active; 'I' for Inactive)
REMARK    1  A    between atoms: O_1  and  C_2 
REMARK    2  A    between atoms: C_2  and  C_4 
REMARK    3  A    between atoms: C_7  and  C_10 
ROOT
HETATM    1  C   UNK N   1      34.354  16.933   9.277  0.00  0.00     0.123 A 
HETATM    2  C   UNK N   1      34.604  17.957   8.387  0.00  0.00     0.126 A 
HETATM    3  N   UNK N   1      33.416  18.380   7.903  0.00  0.00    -0.349 N 
HETATM    4  C   UNK N   1      32.491  17.607   8.509  0.00  0.00     0.116 A 
HETATM    5  N   UNK N   1      33.034  16.714   9.354  0.00  0.00    -0.335 N 
ATOM      6  HN  UNK N   1      32.549  16.023   9.927  1.00  0.00     0.168 HD
HETATM    7  H   UNK N   1      33.259  19.098   7.248  0.00  0.00     0.167 HD
ENDROOT
BRANCH   4   8
HETATM    8  C   UNK N   1      31.040  17.705   8.291  0.00  0.00     0.008 A 
HETATM    9  C   UNK N   1      30.422  17.072   7.204  0.00  0.00     0.015 A 
HETATM   10  C   UNK N   1      29.039  17.184   7.024  0.00  0.00     0.001 A 
HETATM   11  C   UNK N   1      28.271  17.928   7.927  0.00  0.00     0.000 A 
HETATM   12  C   UNK N   1      28.885  18.559   9.010  0.00  0.00     0.001 A 
HETATM   13  C   UNK N   1      30.263  18.448   9.191  0.00  0.00     0.015 A 
ENDBRANCH   4   8
BRANCH   1  14
HETATM   14  C   UNK N   1      35.339  16.166  10.050  0.00  0.00     0.195 C 
HETATM   15  O   UNK N   1      36.260  16.743  10.603  0.00  0.00    -0.645 OA
BRANCH  14  16
HETATM   16  O   UNK N   1      35.231  14.828  10.152  0.00  0.00    -0.772 OA
HETATM   17  H   UNK N   1      35.050  14.313   9.390  0.00  0.00     0.167 HD
ENDBRANCH  14  16
ENDBRANCH   1  14
TORSDOF 3
ENDMDL
MODEL 6
REMARK VINA RESULT:      -5.6     18.433     19.248
REMARK  3 active torsions:
REMARK  status: ('A' for Active; 'I' for Inactive)
REMARK    1  A    between atoms: O_1  and  C_2 
REMARK    2  A    between atoms: C_2  and  C_4 
REMARK    3  A    between atoms: C_7  and  C_10 
ROOT
HETATM    1  C   UNK N   1      19.316  16.393   8.621  0.00  0.00     0.123 A 
HETATM    2  C   UNK N   1      20.328  16.676   7.726  0.00  0.00     0.126 A 
HETATM    3  N   UNK N   1      21.313  15.773   7.922  0.00  0.00    -0.349 N 
HETATM    4  C   UNK N   1      20.873  14.978   8.920  0.00  0.00     0.116 A 
HETATM    5  N   UNK N   1      19.657  15.333   9.367  0.00  0.00    -0.335 N 
ATOM      6  HN  UNK N   1      19.112  14.894  10.109  1.00  0.00     0.168 HD
HETATM    7  H   UNK N   1      22.169  15.709   7.440  0.00  0.00     0.167 HD
ENDROOT
BRANCH   4   8
HETATM    8  C   UNK N   1      21.618  13.841   9.480  0.00  0.00     0.008 A 
HETATM    9  C   UNK N   1      22.899  13.512   9.019  0.00  0.00     0.015 A 
HETATM   10  C   UNK N   1      23.583  12.423   9.573  0.00  0.00     0.001 A 
HETATM   11  C   UNK N   1      22.989  11.663  10.586  0.00  0.00     0.000 A 
HETATM   12  C   UNK N   1      21.712  11.989  11.047  0.00  0.00     0.001 A 
HETATM   13  C   UNK N   1      21.030  13.074  10.496  0.00  0.00     0.015 A 
ENDBRANCH   4   8
BRANCH   1  14
HETATM   14  C   UNK N   1      18.043  17.108   8.778  0.00  0.00     0.195 C 
HETATM   15  O   UNK N   1      17.060  16.741   8.156  0.00  0.00    -0.645 OA
BRANCH  14  16
HETATM   16  O   UNK N   1      17.954  18.166   9.606  0.00  0.00    -0.772 OA
HETATM   17  H   UNK N   1      18.624  18.820   9.604  0.00  0.00     0.167 HD
ENDBRANCH  14  16
ENDBRANCH   1  14
TORSDOF 3
ENDMDL
MODEL 7
REMARK VINA RESULT:      -5.5     10.724     11.455
REMARK  3 active torsions:
REMARK  status: ('A' for Active; 'I' for Inactive)
REMARK    1  A    between atoms: O_1  and  C_2 
REMARK    2  A    between atoms: C_2  and  C_4 
REMARK    3  A    between atoms: C_7  and  C_10 
ROOT
HETATM    1  C   UNK N   1      20.655  19.104   2.950  0.00  0.00     0.123 A 
HETATM    2  C   UNK N   1      20.730  20.396   2.473  0.00  0.00     0.126 A 
HETATM    3  N   UNK N   1      22.007  20.814   2.617  0.00  0.00    -0.349 N 
HETATM    4  C   UNK N   1      22.660  19.772   3.172  0.00  0.00     0.116 A 
HETATM    5  N   UNK N   1      21.860  18.714   3.386  0.00  0.00    -0.335 N 
ATOM      6  HN  UNK N   1      22.114  17.812   3.792  1.00  0.00     0.168 HD
HETATM    7  H   UNK N   1      22.380  21.691   2.370  0.00  0.00     0.167 HD
ENDROOT
BRANCH   4   8
HETATM    8  C   UNK N   1      24.090  19.762   3.516  0.00  0.00     0.008 A 
HETATM    9  C   UNK N   1      24.580  18.978   4.567  0.00  0.00     0.015 A 
HETATM   10  C   UNK N   1      25.947  18.991   4.869  0.00  0.00     0.001 A 
HETATM   11  C   UNK N   1      26.824  19.786   4.124  0.00  0.00     0.000 A 
HETATM   12  C   UNK N   1      26.337  20.569   3.076  0.00  0.00     0.001 A 
HETATM   13  C   UNK N   1      24.975  20.556   2.773  0.00  0.00     0.015 A 
ENDBRANCH   4   8
BRANCH   1  14
HETATM   14  C   UNK N   1      19.468  18.241   2.998  0.00  0.00     0.195 C 
HETATM   15  O   UNK N   1      19.511  17.180   3.598  0.00  0.00    -0.645 OA
BRANCH  14  16
HETATM   16  O   UNK N   1      18.330  18.615   2.382  0.00  0.00    -0.772 OA
HETATM   17  H   UNK N   1      17.617  18.012   2.309  0.00  0.00     0.167 HD
ENDBRANCH  14  16
ENDBRANCH   1  14
TORSDOF 3
ENDMDL
MODEL 8
REMARK VINA RESULT:      -5.5      1.751      2.138
REMARK  3 active torsions:
REMARK  status: ('A' for Active; 'I' for Inactive)
REMARK    1  A    between atoms: O_1  and  C_2 
REMARK    2  A    between atoms: C_2  and  C_4 
REMARK    3  A    between atoms: C_7  and  C_10 
ROOT
HETATM    1  C   UNK N   1      25.382  23.709  -8.109  0.00  0.00     0.123 A 
HETATM    2  C   UNK N   1      25.786  24.460  -9.193  0.00  0.00     0.126 A 
HETATM    3  N   UNK N   1      26.116  25.689  -8.742  0.00  0.00    -0.349 N 
HETATM    4  C   UNK N   1      25.904  25.646  -7.409  0.00  0.00     0.116 A 
HETATM    5  N   UNK N   1      25.456  24.450  -6.994  0.00  0.00    -0.335 N 
ATOM      6  HN  UNK N   1      25.222  24.167  -6.042  1.00  0.00     0.168 HD
HETATM    7  H   UNK N   1      26.442  26.453  -9.271  0.00  0.00     0.167 HD
ENDROOT
BRANCH   4   8
HETATM    8  C   UNK N   1      26.130  26.768  -6.485  0.00  0.00     0.008 A 
HETATM    9  C   UNK N   1      27.153  27.698  -6.706  0.00  0.00     0.015 A 
HETATM   10  C   UNK N   1      27.342  28.755  -5.808  0.00  0.00     0.001 A 
HETATM   11  C   UNK N   1      26.511  28.884  -4.690  0.00  0.00     0.000 A 
HETATM   12  C   UNK N   1      25.491  27.957  -4.468  0.00  0.00     0.001 A 
HETATM   13  C   UNK N   1      25.302  26.904  -5.362  0.00  0.00     0.015 A 
ENDBRANCH   4   8
BRANCH   1  14
HETATM   14  C   UNK N   1      24.930  22.311  -8.113  0.00  0.00     0.195 C 
HETATM   15  O   UNK N   1      25.750  21.408  -8.135  0.00  0.00    -0.645 OA
BRANCH  14  16
HETATM   16  O   UNK N   1      23.615  22.021  -8.094  0.00  0.00    -0.772 OA
HETATM   17  H   UNK N   1      23.321  21.206  -7.738  0.00  0.00     0.167 HD
ENDBRANCH  14  16
ENDBRANCH   1  14
TORSDOF 3
ENDMDL
MODEL 9
REMARK VINA RESULT:      -5.3     18.910     19.566
REMARK  3 active torsions:
REMARK  status: ('A' for Active; 'I' for Inactive)
REMARK    1  A    between atoms: O_1  and  C_2 
REMARK    2  A    between atoms: C_2  and  C_4 
REMARK    3  A    between atoms: C_7  and  C_10 
ROOT
HETATM    1  C   UNK N   1      22.319  12.551  11.195  0.00  0.00     0.123 A 
HETATM    2  C   UNK N   1      20.954  12.362  11.140  0.00  0.00     0.126 A 
HETATM    3  N   UNK N   1      20.464  13.170  10.175  0.00  0.00    -0.349 N 
HETATM    4  C   UNK N   1      21.538  13.819   9.678  0.00  0.00     0.116 A 
HETATM    5  N   UNK N   1      22.685  13.462  10.282  0.00  0.00    -0.335 N 
ATOM      6  HN  UNK N   1      23.625  13.806  10.088  1.00  0.00     0.168 HD
HETATM    7  H   UNK N   1      19.526  13.265   9.894  0.00  0.00     0.167 HD
ENDROOT
BRANCH   4   8
HETATM    8  C   UNK N   1      21.494  14.813   8.596  0.00  0.00     0.008 A 
HETATM    9  C   UNK N   1      22.328  14.708   7.476  0.00  0.00     0.015 A 
HETATM   10  C   UNK N   1      22.261  15.671   6.462  0.00  0.00     0.001 A 
HETATM   11  C   UNK N   1      21.363  16.739   6.566  0.00  0.00     0.000 A 
HETATM   12  C   UNK N   1      20.531  16.846   7.682  0.00  0.00     0.001 A 
HETATM   13  C   UNK N   1      20.597  15.886   8.692  0.00  0.00     0.015 A 
ENDBRANCH   4   8
BRANCH   1  14
HETATM   14  C   UNK N   1      23.274  11.888  12.092  0.00  0.00     0.195 C 
HETATM   15  O   UNK N   1      24.467  11.917  11.839  0.00  0.00    -0.645 OA
BRANCH  14  16
HETATM   16  O   UNK N   1      22.840  11.248  13.195  0.00  0.00    -0.772 OA
HETATM   17  H   UNK N   1      22.226  11.665  13.767  0.00  0.00     0.167 HD
ENDBRANCH  14  16
ENDBRANCH   1  14
TORSDOF 3
ENDMDL
