MODEL 1
REMARK VINA RESULT:      -6.0      0.000      0.000
REMARK  4 active torsions:
REMARK  status: ('A' for Active; 'I' for Inactive)
REMARK    1  A    between atoms: C_2  and  C_5 
REMARK    2  A    between atoms: C_10  and  N_11 
REMARK       I    between atoms: N_11  and  C_12 
REMARK    3  A    between atoms: C_12  and  C_14 
REMARK    4  A    between atoms: C_14  and  C_17 
ROOT
HETATM    1  C   UNK N   1      35.160  15.834   8.825  0.00  0.00     0.048 A 
HETATM    2  C   UNK N   1      35.850  14.635   9.053  0.00  0.00     0.018 A 
HETATM    3  C   UNK N   1      36.289  14.309  10.341  0.00  0.00     0.030 A 
HETATM    4  C   UNK N   1      34.944  16.716   9.889  0.00  0.00     0.018 A 
HETATM    5  C   UNK N   1      35.372  16.384  11.174  0.00  0.00     0.030 A 
HETATM    6  C   UNK N   1      36.037  15.170  11.414  0.00  0.00     0.034 A 
ENDROOT
BRANCH   6   7
HETATM    7  N   UNK N   1      36.386  14.750  12.732  0.00  0.00    -0.327 N 
HETATM    8  C   UNK N   1      35.662  13.892  13.505  0.00  0.00     0.231 C 
HETATM    9  O   UNK N   1      34.605  13.426  13.093  0.00  0.00    -0.272 OA
HETATM   10  H   UNK N   1      37.219  15.110  13.116  0.00  0.00     0.169 HD
BRANCH   8  11
HETATM   11  C   UNK N   1      36.200  13.453  14.849  0.00  0.00     0.046 C 
HETATM   12  C   UNK N   1      36.999  14.599  15.452  0.00  0.00     0.026 C 
HETATM   13  C   UNK N   1      37.130  12.252  14.700  0.00  0.00     0.026 C 
BRANCH  11  14
HETATM   14  C   UNK N   1      35.037  13.085  15.772  0.00  0.00     0.133 C 
HETATM   15 Cl   UNK N   1      35.456  13.222  17.509  0.00  0.00    -0.129 Cl
ENDBRANCH  11  14
ENDBRANCH   8  11
ENDBRANCH   6   7
BRANCH   1  16
HETATM   16  C   UNK N   1      34.614  16.167   7.466  0.00  0.00     0.417 C 
HETATM   17  F   UNK N   1      34.621  17.537   7.280  0.00  0.00    -0.166 F 
HETATM   18  F   UNK N   1      35.363  15.572   6.466  0.00  0.00    -0.166 F 
HETATM   19  F   UNK N   1      33.312  15.706   7.377  0.00  0.00    -0.166 F 
ENDBRANCH   1  16
TORSDOF 4
ENDMDL
MODEL 2
REMARK VINA RESULT:      -5.9      1.982      2.487
REMARK  4 active torsions:
REMARK  status: ('A' for Active; 'I' for Inactive)
REMARK    1  A    between atoms: C_2  and  C_5 
REMARK    2  A    between atoms: C_10  and  N_11 
REMARK       I    between atoms: N_11  and  C_12 
REMARK    3  A    between atoms: C_12  and  C_14 
REMARK    4  A    between atoms: C_14  and  C_17 
ROOT
HETATM    1  C   UNK N   1      34.336  16.954   9.077  0.00  0.00     0.048 A 
HETATM    2  C   UNK N   1      33.652  15.742   8.904  0.00  0.00     0.018 A 
HETATM    3  C   UNK N   1      33.780  14.719   9.850  0.00  0.00     0.030 A 
HETATM    4  C   UNK N   1      35.172  17.120  10.186  0.00  0.00     0.018 A 
HETATM    5  C   UNK N   1      35.289  16.104  11.134  0.00  0.00     0.030 A 
HETATM    6  C   UNK N   1      34.583  14.899  10.982  0.00  0.00     0.034 A 
ENDROOT
BRANCH   6   7
HETATM    7  N   UNK N   1      34.593  13.888  11.989  0.00  0.00    -0.327 N 
HETATM    8  C   UNK N   1      35.663  13.109  12.314  0.00  0.00     0.231 C 
HETATM    9  O   UNK N   1      36.725  13.229  11.713  0.00  0.00    -0.272 OA
HETATM   10  H   UNK N   1      33.758  13.740  12.489  0.00  0.00     0.169 HD
BRANCH   8  11
HETATM   11  C   UNK N   1      35.564  12.141  13.472  0.00  0.00     0.046 C 
HETATM   12  C   UNK N   1      35.206  12.919  14.730  0.00  0.00     0.026 C 
HETATM   13  C   UNK N   1      36.897  11.437  13.713  0.00  0.00     0.026 C 
BRANCH  11  14
HETATM   14  C   UNK N   1      34.484  11.098  13.179  0.00  0.00     0.133 C 
HETATM   15 Cl   UNK N   1      33.461  10.735  14.604  0.00  0.00    -0.129 Cl
ENDBRANCH  11  14
ENDBRANCH   8  11
ENDBRANCH   6   7
BRANCH   1  16
HETATM   16  C   UNK N   1      34.152  18.091   8.113  0.00  0.00     0.417 C 
HETATM   17  F   UNK N   1      34.303  17.637   6.816  0.00  0.00    -0.166 F 
HETATM   18  F   UNK N   1      32.899  18.664   8.248  0.00  0.00    -0.166 F 
HETATM   19  F   UNK N   1      35.109  19.058   8.367  0.00  0.00    -0.166 F 
ENDBRANCH   1  16
TORSDOF 4
ENDMDL
MODEL 3
REMARK VINA RESULT:      -5.7     18.274     20.786
REMARK  4 active torsions:
REMARK  status: ('A' for Active; 'I' for Inactive)
REMARK    1  A    between atoms: C_2  and  C_5 
REMARK    2  A    between atoms: C_10  and  N_11 
REMARK       I    between atoms: N_11  and  C_12 
REMARK    3  A    between atoms: C_12  and  C_14 
REMARK    4  A    between atoms: C_14  and  C_17 
ROOT
HETATM    1  C   UNK N   1      30.562  22.560  -3.961  0.00  0.00     0.048 A 
HETATM    2  C   UNK N   1      29.599  22.417  -4.970  0.00  0.00     0.018 A 
HETATM    3  C   UNK N   1      28.730  23.471  -5.269  0.00  0.00     0.030 A 
HETATM    4  C   UNK N   1      30.624  23.754  -3.234  0.00  0.00     0.018 A 
HETATM    5  C   UNK N   1      29.765  24.808  -3.542  0.00  0.00     0.030 A 
HETATM    6  C   UNK N   1      28.818  24.681  -4.572  0.00  0.00     0.034 A 
ENDROOT
BRANCH   6   7
HETATM    7  N   UNK N   1      28.004  25.777  -4.986  0.00  0.00    -0.327 N 
HETATM    8  C   UNK N   1      26.794  26.108  -4.450  0.00  0.00     0.231 C 
HETATM    9  O   UNK N   1      26.308  25.433  -3.549  0.00  0.00    -0.272 OA
HETATM   10  H   UNK N   1      28.342  26.341  -5.719  0.00  0.00     0.169 HD
BRANCH   8  11
HETATM   11  C   UNK N   1      26.080  27.357  -4.918  0.00  0.00     0.046 C 
HETATM   12  C   UNK N   1      25.762  28.220  -3.706  0.00  0.00     0.026 C 
HETATM   13  C   UNK N   1      24.766  27.008  -5.611  0.00  0.00     0.026 C 
BRANCH  11  14
HETATM   14  C   UNK N   1      26.978  28.128  -5.887  0.00  0.00     0.133 C 
HETATM   15 Cl   UNK N   1      27.456  29.738  -5.263  0.00  0.00    -0.129 Cl
ENDBRANCH  11  14
ENDBRANCH   8  11
ENDBRANCH   6   7
BRANCH   1  16
HETATM   16  C   UNK N   1      31.554  21.469  -3.675  0.00  0.00     0.417 C 
HETATM   17  F   UNK N   1      32.519  21.441  -4.664  0.00  0.00    -0.166 F 
HETATM   18  F   UNK N   1      32.169  21.661  -2.450  0.00  0.00    -0.166 F 
HETATM   19  F   UNK N   1      30.894  20.253  -3.653  0.00  0.00    -0.166 F 
ENDBRANCH   1  16
TORSDOF 4
ENDMDL
MODEL 4
REMARK VINA RESULT:      -5.6      6.282      8.406
REMARK  4 active torsions:
REMARK  status: ('A' for Active; 'I' for Inactive)
REMARK    1  A    between atoms: C_2  and  C_5 
REMARK    2  A    between atoms: C_10  and  N_11 
REMARK       I    between atoms: N_11  and  C_12 
REMARK    3  A    between atoms: C_12  and  C_14 
REMARK    4  A    between atoms: C_14  and  C_17 
ROOT
HETATM    1  C   UNK N   1      35.447  11.644  18.155  0.00  0.00     0.048 A 
HETATM    2  C   UNK N   1      36.048  10.822  17.190  0.00  0.00     0.018 A 
HETATM    3  C   UNK N   1      36.273  11.302  15.896  0.00  0.00     0.030 A 
HETATM    4  C   UNK N   1      35.045  12.936  17.802  0.00  0.00     0.018 A 
HETATM    5  C   UNK N   1      35.281  13.418  16.514  0.00  0.00     0.030 A 
HETATM    6  C   UNK N   1      35.910  12.609  15.553  0.00  0.00     0.034 A 
ENDROOT
BRANCH   6   7
HETATM    7  N   UNK N   1      36.267  13.109  14.265  0.00  0.00    -0.327 N 
HETATM    8  C   UNK N   1      35.482  13.050  13.151  0.00  0.00     0.231 C 
HETATM    9  O   UNK N   1      34.379  12.518  13.195  0.00  0.00    -0.272 OA
HETATM   10  H   UNK N   1      37.152  13.530  14.173  0.00  0.00     0.169 HD
BRANCH   8  11
HETATM   11  C   UNK N   1      35.946  13.708  11.870  0.00  0.00     0.046 C 
HETATM   12  C   UNK N   1      36.025  15.211  12.096  0.00  0.00     0.026 C 
HETATM   13  C   UNK N   1      34.959  13.450  10.735  0.00  0.00     0.026 C 
BRANCH  11  14
HETATM   14  C   UNK N   1      37.322  13.166  11.482  0.00  0.00     0.133 C 
HETATM   15 Cl   UNK N   1      38.000  13.962  10.027  0.00  0.00    -0.129 Cl
ENDBRANCH  11  14
ENDBRANCH   8  11
ENDBRANCH   6   7
BRANCH   1  16
HETATM   16  C   UNK N   1      35.266  11.175  19.570  0.00  0.00     0.417 C 
HETATM   17  F   UNK N   1      36.483  10.779  20.093  0.00  0.00    -0.166 F 
HETATM   18  F   UNK N   1      34.738  12.177  20.365  0.00  0.00    -0.166 F 
HETATM   19  F   UNK N   1      34.398  10.098  19.581  0.00  0.00    -0.166 F 
ENDBRANCH   1  16
TORSDOF 4
ENDMDL
MODEL 5
REMARK VINA RESULT:      -5.5      6.206      8.335
REMARK  4 active torsions:
REMARK  status: ('A' for Active; 'I' for Inactive)
REMARK    1  A    between atoms: C_2  and  C_5 
REMARK    2  A    between atoms: C_10  and  N_11 
REMARK       I    between atoms: N_11  and  C_12 
REMARK    3  A    between atoms: C_12  and  C_14 
REMARK    4  A    between atoms: C_14  and  C_17 
ROOT
HETATM    1  C   UNK N   1      35.533  11.597  18.029  0.00  0.00     0.048 A 
HETATM    2  C   UNK N   1      36.149  10.805  17.049  0.00  0.00     0.018 A 
HETATM    3  C   UNK N   1      36.349  11.308  15.760  0.00  0.00     0.030 A 
HETATM    4  C   UNK N   1      35.091  12.881  17.697  0.00  0.00     0.018 A 
HETATM    5  C   UNK N   1      35.302  13.386  16.414  0.00  0.00     0.030 A 
HETATM    6  C   UNK N   1      35.946  12.609  15.437  0.00  0.00     0.034 A 
ENDROOT
BRANCH   6   7
HETATM    7  N   UNK N   1      36.278  13.135  14.153  0.00  0.00    -0.327 N 
HETATM    8  C   UNK N   1      35.456  13.137  13.065  0.00  0.00     0.231 C 
HETATM    9  O   UNK N   1      34.336  12.642  13.131  0.00  0.00    -0.272 OA
HETATM   10  H   UNK N   1      37.173  13.530  14.044  0.00  0.00     0.169 HD
BRANCH   8  11
HETATM   11  C   UNK N   1      35.899  13.819  11.789  0.00  0.00     0.046 C 
HETATM   12  C   UNK N   1      37.263  13.273  11.393  0.00  0.00     0.026 C 
HETATM   13  C   UNK N   1      36.032  15.326  11.992  0.00  0.00     0.026 C 
BRANCH  11  14
HETATM   14  C   UNK N   1      34.884  13.543  10.680  0.00  0.00     0.133 C 
HETATM   15 Cl   UNK N   1      33.746  14.903  10.422  0.00  0.00    -0.129 Cl
ENDBRANCH  11  14
ENDBRANCH   8  11
ENDBRANCH   6   7
BRANCH   1  16
HETATM   16  C   UNK N   1      35.377  11.103  19.439  0.00  0.00     0.417 C 
HETATM   17  F   UNK N   1      35.019  12.151  20.266  0.00  0.00    -0.166 F 
HETATM   18  F   UNK N   1      34.411  10.115  19.519  0.00  0.00    -0.166 F 
HETATM   19  F   UNK N   1      36.582  10.578  19.870  0.00  0.00    -0.166 F 
ENDBRANCH   1  16
TORSDOF 4
ENDMDL
MODEL 6
REMARK VINA RESULT:      -5.5      5.507      7.713
REMARK  4 active torsions:
REMARK  status: ('A' for Active; 'I' for Inactive)
REMARK    1  A    between atoms: C_2  and  C_5 
REMARK    2  A    between atoms: C_10  and  N_11 
REMARK       I    between atoms: N_11  and  C_12 
REMARK    3  A    between atoms: C_12  and  C_14 
REMARK    4  A    between atoms: C_14  and  C_17 
ROOT
HETATM    1  C   UNK N   1      35.976  11.766  16.522  0.00  0.00     0.048 A 
HETATM    2  C   UNK N   1      35.640  13.114  16.329  0.00  0.00     0.018 A 
HETATM    3  C   UNK N   1      35.971  13.758  15.132  0.00  0.00     0.030 A 
HETATM    4  C   UNK N   1      36.673  11.081  15.521  0.00  0.00     0.018 A 
HETATM    5  C   UNK N   1      36.992  11.722  14.324  0.00  0.00     0.030 A 
HETATM    6  C   UNK N   1      36.632  13.063  14.113  0.00  0.00     0.034 A 
ENDROOT
BRANCH   6   7
HETATM    7  N   UNK N   1      36.842  13.712  12.860  0.00  0.00    -0.327 N 
HETATM    8  C   UNK N   1      35.981  13.684  11.803  0.00  0.00     0.231 C 
HETATM    9  O   UNK N   1      34.934  13.048  11.870  0.00  0.00    -0.272 OA
HETATM   10  H   UNK N   1      37.676  14.222  12.749  0.00  0.00     0.169 HD
BRANCH   8  11
HETATM   11  C   UNK N   1      36.283  14.500  10.565  0.00  0.00     0.046 C 
HETATM   12  C   UNK N   1      35.279  14.132   9.482  0.00  0.00     0.026 C 
HETATM   13  C   UNK N   1      37.682  14.197  10.038  0.00  0.00     0.026 C 
BRANCH  11  14
HETATM   14  C   UNK N   1      36.174  15.990  10.893  0.00  0.00     0.133 C 
HETATM   15 Cl   UNK N   1      35.057  16.865   9.800  0.00  0.00    -0.129 Cl
ENDBRANCH  11  14
ENDBRANCH   8  11
ENDBRANCH   6   7
BRANCH   1  16
HETATM   16  C   UNK N   1      35.563  11.035  17.767  0.00  0.00     0.417 C 
HETATM   17  F   UNK N   1      35.092  11.934  18.705  0.00  0.00    -0.166 F 
HETATM   18  F   UNK N   1      34.574  10.105  17.496  0.00  0.00    -0.166 F 
HETATM   19  F   UNK N   1      36.661  10.372  18.287  0.00  0.00    -0.166 F 
ENDBRANCH   1  16
TORSDOF 4
ENDMDL
MODEL 7
REMARK VINA RESULT:      -5.5     14.364     16.129
REMARK  4 active torsions:
REMARK  status: ('A' for Active; 'I' for Inactive)
REMARK    1  A    between atoms: C_2  and  C_5 
REMARK    2  A    between atoms: C_10  and  N_11 
REMARK       I    between atoms: N_11  and  C_12 
REMARK    3  A    between atoms: C_12  and  C_14 
REMARK    4  A    between atoms: C_14  and  C_17 
ROOT
HETATM    1  C   UNK N   1      22.043  13.070   9.851  0.00  0.00     0.048 A 
HETATM    2  C   UNK N   1      23.002  13.148   8.831  0.00  0.00     0.018 A 
HETATM    3  C   UNK N   1      22.862  14.086   7.803  0.00  0.00     0.030 A 
HETATM    4  C   UNK N   1      20.929  13.914   9.814  0.00  0.00     0.018 A 
HETATM    5  C   UNK N   1      20.796  14.856   8.794  0.00  0.00     0.030 A 
HETATM    6  C   UNK N   1      21.770  14.960   7.786  0.00  0.00     0.034 A 
ENDROOT
BRANCH   6   7
HETATM    7  N   UNK N   1      21.722  15.986   6.795  0.00  0.00    -0.327 N 
HETATM    8  C   UNK N   1      21.191  15.852   5.546  0.00  0.00     0.231 C 
HETATM    9  O   UNK N   1      20.719  14.781   5.183  0.00  0.00    -0.272 OA
HETATM   10  H   UNK N   1      22.104  16.861   7.032  0.00  0.00     0.169 HD
BRANCH   8  11
HETATM   11  C   UNK N   1      21.117  17.053   4.629  0.00  0.00     0.046 C 
HETATM   12  C   UNK N   1      22.229  16.946   3.595  0.00  0.00     0.026 C 
HETATM   13  C   UNK N   1      21.317  18.350   5.408  0.00  0.00     0.026 C 
BRANCH  11  14
HETATM   14  C   UNK N   1      19.756  17.083   3.931  0.00  0.00     0.133 C 
HETATM   15 Cl   UNK N   1      19.584  18.460   2.798  0.00  0.00    -0.129 Cl
ENDBRANCH  11  14
ENDBRANCH   8  11
ENDBRANCH   6   7
BRANCH   1  16
HETATM   16  C   UNK N   1      22.214  12.123  11.005  0.00  0.00     0.417 C 
HETATM   17  F   UNK N   1      23.116  12.646  11.912  0.00  0.00    -0.166 F 
HETATM   18  F   UNK N   1      21.009  11.895  11.647  0.00  0.00    -0.166 F 
HETATM   19  F   UNK N   1      22.698  10.916  10.531  0.00  0.00    -0.166 F 
ENDBRANCH   1  16
TORSDOF 4
ENDMDL
MODEL 8
REMARK VINA RESULT:      -5.4     17.678     19.979
REMARK  4 active torsions:
REMARK  status: ('A' for Active; 'I' for Inactive)
REMARK    1  A    between atoms: C_2  and  C_5 
REMARK    2  A    between atoms: C_10  and  N_11 
REMARK       I    between atoms: N_11  and  C_12 
REMARK    3  A    between atoms: C_12  and  C_14 
REMARK    4  A    between atoms: C_14  and  C_17 
ROOT
HETATM    1  C   UNK N   1      31.792  21.996  -3.721  0.00  0.00     0.048 A 
HETATM    2  C   UNK N   1      31.184  22.670  -2.651  0.00  0.00     0.018 A 
HETATM    3  C   UNK N   1      30.005  23.394  -2.854  0.00  0.00     0.030 A 
HETATM    4  C   UNK N   1      31.227  22.082  -4.997  0.00  0.00     0.018 A 
HETATM    5  C   UNK N   1      30.045  22.794  -5.195  0.00  0.00     0.030 A 
HETATM    6  C   UNK N   1      29.415  23.446  -4.122  0.00  0.00     0.034 A 
ENDROOT
BRANCH   6   7
HETATM    7  N   UNK N   1      28.148  24.086  -4.267  0.00  0.00    -0.327 N 
HETATM    8  C   UNK N   1      27.959  25.398  -4.587  0.00  0.00     0.231 C 
HETATM    9  O   UNK N   1      28.920  26.141  -4.756  0.00  0.00    -0.272 OA
HETATM   10  H   UNK N   1      27.344  23.535  -4.125  0.00  0.00     0.169 HD
BRANCH   8  11
HETATM   11  C   UNK N   1      26.558  25.924  -4.807  0.00  0.00     0.046 C 
HETATM   12  C   UNK N   1      25.620  24.743  -5.012  0.00  0.00     0.026 C 
HETATM   13  C   UNK N   1      26.493  26.803  -6.053  0.00  0.00     0.026 C 
BRANCH  11  14
HETATM   14  C   UNK N   1      26.117  26.735  -3.588  0.00  0.00     0.133 C 
HETATM   15 Cl   UNK N   1      25.641  28.412  -4.002  0.00  0.00    -0.129 Cl
ENDBRANCH  11  14
ENDBRANCH   8  11
ENDBRANCH   6   7
BRANCH   1  16
HETATM   16  C   UNK N   1      33.016  21.152  -3.509  0.00  0.00     0.417 C 
HETATM   17  F   UNK N   1      33.287  21.047  -2.158  0.00  0.00    -0.166 F 
HETATM   18  F   UNK N   1      32.845  19.882  -4.035  0.00  0.00    -0.166 F 
HETATM   19  F   UNK N   1      34.092  21.749  -4.141  0.00  0.00    -0.166 F 
ENDBRANCH   1  16
TORSDOF 4
ENDMDL
MODEL 9
REMARK VINA RESULT:      -5.3      7.352      9.617
REMARK  4 active torsions:
REMARK  status: ('A' for Active; 'I' for Inactive)
REMARK    1  A    between atoms: C_2  and  C_5 
REMARK    2  A    between atoms: C_10  and  N_11 
REMARK       I    between atoms: N_11  and  C_12 
REMARK    3  A    between atoms: C_12  and  C_14 
REMARK    4  A    between atoms: C_14  and  C_17 
ROOT
HETATM    1  C   UNK N   1      35.371  12.318  17.571  0.00  0.00     0.048 A 
HETATM    2  C   UNK N   1      35.220  13.118  18.713  0.00  0.00     0.018 A 
HETATM    3  C   UNK N   1      35.012  12.529  19.964  0.00  0.00     0.030 A 
HETATM    4  C   UNK N   1      35.279  10.927  17.689  0.00  0.00     0.018 A 
HETATM    5  C   UNK N   1      35.083  10.341  18.940  0.00  0.00     0.030 A 
HETATM    6  C   UNK N   1      34.961  11.136  20.091  0.00  0.00     0.034 A 
ENDROOT
BRANCH   6   7
HETATM    7  N   UNK N   1      34.874  10.566  21.396  0.00  0.00    -0.327 N 
HETATM    8  C   UNK N   1      33.718  10.216  22.028  0.00  0.00     0.231 C 
HETATM    9  O   UNK N   1      32.633  10.402  21.488  0.00  0.00    -0.272 OA
HETATM   10  H   UNK N   1      35.718  10.412  21.879  0.00  0.00     0.169 HD
BRANCH   8  11
HETATM   11  C   UNK N   1      33.776   9.527  23.374  0.00  0.00     0.046 C 
HETATM   12  C   UNK N   1      33.171  10.451  24.421  0.00  0.00     0.026 C 
HETATM   13  C   UNK N   1      35.219   9.234  23.777  0.00  0.00     0.026 C 
BRANCH  11  14
HETATM   14  C   UNK N   1      32.988   8.218  23.315  0.00  0.00     0.133 C 
HETATM   15 Cl   UNK N   1      31.609   8.183  24.458  0.00  0.00    -0.129 Cl
ENDBRANCH  11  14
ENDBRANCH   8  11
ENDBRANCH   6   7
BRANCH   1  16
HETATM   16  C   UNK N   1      35.671  12.927  16.231  0.00  0.00     0.417 C 
HETATM   17  F   UNK N   1      36.268  14.161  16.400  0.00  0.00    -0.166 F 
HETATM   18  F   UNK N   1      36.513  12.115  15.490  0.00  0.00    -0.166 F 
HETATM   19  F   UNK N   1      34.487  13.089  15.533  0.00  0.00    -0.166 F 
ENDBRANCH   1  16
TORSDOF 4
ENDMDL
