MODEL 1
REMARK VINA RESULT:      -8.1      0.000      0.000
REMARK  9 active torsions:
REMARK  status: ('A' for Active; 'I' for Inactive)
REMARK    1  A    between atoms: C_1  and  C_7 
REMARK    2  A    between atoms: C_2  and  C_3 
REMARK    3  A    between atoms: C_3  and  C_4 
REMARK    4  A    between atoms: C_3  and  N_25 
REMARK       I    between atoms: C_4  and  N_26 
REMARK    5  A    between atoms: C_7  and  O_30 
REMARK    6  A    between atoms: C_9  and  C_22 
REMARK    7  A    between atoms: C_9  and  N_26 
REMARK    8  A    between atoms: C_10  and  C_11 
REMARK       I    between atoms: C_10  and  N_25 
REMARK    9  A    between atoms: C_11  and  C_13 
ROOT
HETATM    1  C   UNK N   1      35.024  15.088  10.812  0.00  0.00     0.209 C 
ENDROOT
BRANCH   1   2
HETATM    2  C   UNK N   1      35.402  13.853   9.922  0.00  0.00     0.172 C 
HETATM    3  N   UNK N   1      34.330  12.860  10.082  0.00  0.00    -0.392 N 
HETATM    4  C   UNK N   1      34.369  11.982   8.929  0.00  0.00     0.194 C 
HETATM    5  H   UNK N   1      33.677  12.799  10.863  0.00  0.00     0.155 HD
HETATM    6  C   UNK N   1      34.361  12.894   7.708  0.00  0.00     0.033 C 
HETATM    7  C   UNK N   1      34.759  12.142   6.451  0.00  0.00     0.029 C 
HETATM    8  C   UNK N   1      33.033  13.611   7.494  0.00  0.00     0.029 C 
HETATM    9  S   UNK N   1      35.595  14.137   8.113  0.00  0.00    -0.130 SA
BRANCH   4  10
HETATM   10  C   UNK N   1      33.250  10.972   9.003  0.00  0.00     0.164 C 
HETATM   11  O   UNK N   1      33.376   9.894   8.444  0.00  0.00    -0.648 OA
BRANCH  10  12
HETATM   12  O   UNK N   1      32.109  11.242   9.667  0.00  0.00    -0.775 OA
HETATM   13  H   UNK N   1      31.383  11.754   9.371  0.00  0.00     0.167 HD
ENDBRANCH  10  12
ENDBRANCH   4  10
ENDBRANCH   1   2
BRANCH   1  14
HETATM   14  C   UNK N   1      35.118  16.541  10.275  0.00  0.00     0.243 C 
HETATM   15  N   UNK N   1      34.133  17.198   9.599  0.00  0.00    -0.355 N 
HETATM   16  H   UNK N   1      34.232  18.172   9.492  0.00  0.00     0.162 HD
HETATM   17  O   UNK N   1      36.125  17.184  10.551  0.00  0.00    -0.271 OA
BRANCH  15  18
HETATM   18  C   UNK N   1      32.961  16.590   9.029  0.00  0.00     0.161 C 
BRANCH  18  19
HETATM   19  C   UNK N   1      32.642  16.976   7.622  0.00  0.00    -0.041 A 
HETATM   20  C   UNK N   1      33.656  17.268   6.701  0.00  0.00     0.009 A 
HETATM   21  C   UNK N   1      33.332  17.492   5.356  0.00  0.00     0.001 A 
HETATM   22  C   UNK N   1      32.001  17.407   4.930  0.00  0.00     0.000 A 
HETATM   23  C   UNK N   1      30.991  17.109   5.847  0.00  0.00     0.001 A 
HETATM   24  C   UNK N   1      31.315  16.887   7.188  0.00  0.00     0.009 A 
ENDBRANCH  18  19
ENDBRANCH  15  18
ENDBRANCH   1  14
BRANCH   1  25
HETATM   25  N   UNK N   1      35.805  14.985  12.051  0.00  0.00    -0.345 N 
HETATM   26  C   UNK N   1      35.534  14.141  13.095  0.00  0.00     0.222 C 
HETATM   27  O   UNK N   1      34.596  13.359  13.046  0.00  0.00    -0.273 OA
HETATM   28  H   UNK N   1      36.591  15.572  12.139  0.00  0.00     0.163 HD
BRANCH  26  29
HETATM   29  C   UNK N   1      36.404  14.186  14.319  0.00  0.00     0.141 C 
BRANCH  29  30
HETATM   30  C   UNK N   1      36.167  13.064  15.294  0.00  0.00    -0.050 A 
HETATM   31  C   UNK N   1      35.383  13.259  16.441  0.00  0.00     0.007 A 
HETATM   32  C   UNK N   1      35.223  12.222  17.369  0.00  0.00     0.001 A 
HETATM   33  C   UNK N   1      35.857  10.993  17.163  0.00  0.00     0.000 A 
HETATM   34  C   UNK N   1      36.645  10.796  16.025  0.00  0.00     0.001 A 
HETATM   35  C   UNK N   1      36.798  11.829  15.093  0.00  0.00     0.007 A 
ENDBRANCH  29  30
ENDBRANCH  26  29
ENDBRANCH   1  25
TORSDOF 9
ENDMDL
MODEL 2
REMARK VINA RESULT:      -7.8     16.812     21.015
REMARK  9 active torsions:
REMARK  status: ('A' for Active; 'I' for Inactive)
REMARK    1  A    between atoms: C_1  and  C_7 
REMARK    2  A    between atoms: C_2  and  C_3 
REMARK    3  A    between atoms: C_3  and  C_4 
REMARK    4  A    between atoms: C_3  and  N_25 
REMARK       I    between atoms: C_4  and  N_26 
REMARK    5  A    between atoms: C_7  and  O_30 
REMARK    6  A    between atoms: C_9  and  C_22 
REMARK    7  A    between atoms: C_9  and  N_26 
REMARK    8  A    between atoms: C_10  and  C_11 
REMARK       I    between atoms: C_10  and  N_25 
REMARK    9  A    between atoms: C_11  and  C_13 
ROOT
HETATM    1  C   UNK N   1      27.514  24.564  -5.454  0.00  0.00     0.209 C 
ENDROOT
BRANCH   1   2
HETATM    2  C   UNK N   1      29.057  24.580  -5.173  0.00  0.00     0.172 C 
HETATM    3  N   UNK N   1      29.262  23.978  -3.847  0.00  0.00    -0.392 N 
HETATM    4  C   UNK N   1      30.633  23.511  -3.785  0.00  0.00     0.194 C 
HETATM    5  H   UNK N   1      28.566  23.903  -3.106  0.00  0.00     0.155 HD
HETATM    6  C   UNK N   1      30.841  22.657  -5.030  0.00  0.00     0.033 C 
HETATM    7  C   UNK N   1      32.315  22.398  -5.286  0.00  0.00     0.029 C 
HETATM    8  C   UNK N   1      30.075  21.340  -4.998  0.00  0.00     0.029 C 
HETATM    9  S   UNK N   1      30.144  23.665  -6.344  0.00  0.00    -0.130 SA
BRANCH   4  10
HETATM   10  C   UNK N   1      30.892  22.825  -2.466  0.00  0.00     0.164 C 
HETATM   11  O   UNK N   1      30.159  23.051  -1.517  0.00  0.00    -0.648 OA
BRANCH  10  12
HETATM   12  O   UNK N   1      31.926  21.974  -2.314  0.00  0.00    -0.775 OA
HETATM   13  H   UNK N   1      32.250  21.352  -2.935  0.00  0.00     0.167 HD
ENDBRANCH  10  12
ENDBRANCH   4  10
ENDBRANCH   1   2
BRANCH   1  14
HETATM   14  C   UNK N   1      26.477  24.854  -4.335  0.00  0.00     0.243 C 
HETATM   15  N   UNK N   1      25.482  25.782  -4.403  0.00  0.00    -0.355 N 
HETATM   16  H   UNK N   1      24.770  25.731  -3.724  0.00  0.00     0.162 HD
HETATM   17  O   UNK N   1      26.500  24.135  -3.341  0.00  0.00    -0.271 OA
BRANCH  15  18
HETATM   18  C   UNK N   1      25.380  26.829  -5.383  0.00  0.00     0.161 C 
BRANCH  18  19
HETATM   19  C   UNK N   1      26.264  28.014  -5.169  0.00  0.00    -0.041 A 
HETATM   20  C   UNK N   1      27.242  28.370  -6.106  0.00  0.00     0.009 A 
HETATM   21  C   UNK N   1      27.960  29.562  -5.945  0.00  0.00     0.001 A 
HETATM   22  C   UNK N   1      27.691  30.405  -4.860  0.00  0.00     0.000 A 
HETATM   23  C   UNK N   1      26.711  30.054  -3.930  0.00  0.00     0.001 A 
HETATM   24  C   UNK N   1      25.995  28.864  -4.090  0.00  0.00     0.009 A 
ENDBRANCH  18  19
ENDBRANCH  15  18
ENDBRANCH   1  14
BRANCH   1  25
HETATM   25  N   UNK N   1      27.200  23.272  -6.073  0.00  0.00    -0.345 N 
HETATM   26  C   UNK N   1      26.225  23.053  -7.010  0.00  0.00     0.222 C 
HETATM   27  O   UNK N   1      25.541  23.974  -7.433  0.00  0.00    -0.273 OA
HETATM   28  H   UNK N   1      27.735  22.494  -5.792  0.00  0.00     0.163 HD
BRANCH  26  29
HETATM   29  C   UNK N   1      25.993  21.658  -7.517  0.00  0.00     0.141 C 
BRANCH  29  30
HETATM   30  C   UNK N   1      27.017  21.177  -8.509  0.00  0.00    -0.050 A 
HETATM   31  C   UNK N   1      28.172  20.505  -8.085  0.00  0.00     0.007 A 
HETATM   32  C   UNK N   1      29.144  20.118  -9.017  0.00  0.00     0.001 A 
HETATM   33  C   UNK N   1      28.974  20.415 -10.372  0.00  0.00     0.000 A 
HETATM   34  C   UNK N   1      27.827  21.092 -10.799  0.00  0.00     0.001 A 
HETATM   35  C   UNK N   1      26.852  21.471  -9.870  0.00  0.00     0.007 A 
ENDBRANCH  29  30
ENDBRANCH  26  29
ENDBRANCH   1  25
TORSDOF 9
ENDMDL
MODEL 3
REMARK VINA RESULT:      -7.8      2.084      2.851
REMARK  9 active torsions:
REMARK  status: ('A' for Active; 'I' for Inactive)
REMARK    1  A    between atoms: C_1  and  C_7 
REMARK    2  A    between atoms: C_2  and  C_3 
REMARK    3  A    between atoms: C_3  and  C_4 
REMARK    4  A    between atoms: C_3  and  N_25 
REMARK       I    between atoms: C_4  and  N_26 
REMARK    5  A    between atoms: C_7  and  O_30 
REMARK    6  A    between atoms: C_9  and  C_22 
REMARK    7  A    between atoms: C_9  and  N_26 
REMARK    8  A    between atoms: C_10  and  C_11 
REMARK       I    between atoms: C_10  and  N_25 
REMARK    9  A    between atoms: C_11  and  C_13 
ROOT
HETATM    1  C   UNK N   1      35.099  15.302  10.238  0.00  0.00     0.209 C 
ENDROOT
BRANCH   1   2
HETATM    2  C   UNK N   1      35.814  14.374   9.195  0.00  0.00     0.172 C 
HETATM    3  N   UNK N   1      37.204  14.210   9.643  0.00  0.00    -0.392 N 
HETATM    4  C   UNK N   1      37.720  12.999   9.038  0.00  0.00     0.194 C 
HETATM    5  H   UNK N   1      37.714  14.836  10.267  0.00  0.00     0.155 HD
HETATM    6  C   UNK N   1      36.705  11.907   9.354  0.00  0.00     0.033 C 
HETATM    7  C   UNK N   1      36.923  10.678   8.490  0.00  0.00     0.029 C 
HETATM    8  C   UNK N   1      36.671  11.515  10.826  0.00  0.00     0.029 C 
HETATM    9  S   UNK N   1      35.131  12.681   8.957  0.00  0.00    -0.130 SA
BRANCH   4  10
HETATM   10  C   UNK N   1      39.131  12.739   9.507  0.00  0.00     0.164 C 
HETATM   11  O   UNK N   1      39.881  12.070   8.816  0.00  0.00    -0.648 OA
BRANCH  10  12
HETATM   12  O   UNK N   1      39.575  13.226  10.683  0.00  0.00    -0.775 OA
HETATM   13  H   UNK N   1      39.065  13.573  11.387  0.00  0.00     0.167 HD
ENDBRANCH  10  12
ENDBRANCH   4  10
ENDBRANCH   1   2
BRANCH   1  14
HETATM   14  C   UNK N   1      34.797  16.794   9.932  0.00  0.00     0.243 C 
HETATM   15  N   UNK N   1      33.655  17.266   9.358  0.00  0.00    -0.355 N 
HETATM   16  H   UNK N   1      33.495  18.237   9.402  0.00  0.00     0.162 HD
HETATM   17  O   UNK N   1      35.614  17.627  10.311  0.00  0.00    -0.271 OA
BRANCH  15  18
HETATM   18  C   UNK N   1      32.661  16.467   8.693  0.00  0.00     0.161 C 
BRANCH  18  19
HETATM   19  C   UNK N   1      32.465  16.745   7.238  0.00  0.00    -0.041 A 
HETATM   20  C   UNK N   1      31.185  16.777   6.670  0.00  0.00     0.009 A 
HETATM   21  C   UNK N   1      31.024  17.176   5.337  0.00  0.00     0.001 A 
HETATM   22  C   UNK N   1      32.137  17.557   4.578  0.00  0.00     0.000 A 
HETATM   23  C   UNK N   1      33.412  17.532   5.146  0.00  0.00     0.001 A 
HETATM   24  C   UNK N   1      33.572  17.134   6.476  0.00  0.00     0.009 A 
ENDBRANCH  18  19
ENDBRANCH  15  18
ENDBRANCH   1  14
BRANCH   1  25
HETATM   25  N   UNK N   1      35.862  15.216  11.489  0.00  0.00    -0.345 N 
HETATM   26  C   UNK N   1      35.521  14.460  12.579  0.00  0.00     0.222 C 
HETATM   27  O   UNK N   1      34.528  13.748  12.566  0.00  0.00    -0.273 OA
HETATM   28  H   UNK N   1      36.688  15.748  11.551  0.00  0.00     0.163 HD
BRANCH  26  29
HETATM   29  C   UNK N   1      36.384  14.514  13.808  0.00  0.00     0.141 C 
BRANCH  29  30
HETATM   30  C   UNK N   1      36.257  13.317  14.711  0.00  0.00    -0.050 A 
HETATM   31  C   UNK N   1      35.414  13.344  15.831  0.00  0.00     0.007 A 
HETATM   32  C   UNK N   1      35.354  12.243  16.695  0.00  0.00     0.001 A 
HETATM   33  C   UNK N   1      36.148  11.118  16.453  0.00  0.00     0.000 A 
HETATM   34  C   UNK N   1      36.996  11.089  15.342  0.00  0.00     0.001 A 
HETATM   35  C   UNK N   1      37.050  12.185  14.474  0.00  0.00     0.007 A 
ENDBRANCH  29  30
ENDBRANCH  26  29
ENDBRANCH   1  25
TORSDOF 9
ENDMDL
MODEL 4
REMARK VINA RESULT:      -7.6      2.445      6.880
REMARK  9 active torsions:
REMARK  status: ('A' for Active; 'I' for Inactive)
REMARK    1  A    between atoms: C_1  and  C_7 
REMARK    2  A    between atoms: C_2  and  C_3 
REMARK    3  A    between atoms: C_3  and  C_4 
REMARK    4  A    between atoms: C_3  and  N_25 
REMARK       I    between atoms: C_4  and  N_26 
REMARK    5  A    between atoms: C_7  and  O_30 
REMARK    6  A    between atoms: C_9  and  C_22 
REMARK    7  A    between atoms: C_9  and  N_26 
REMARK    8  A    between atoms: C_10  and  C_11 
REMARK       I    between atoms: C_10  and  N_25 
REMARK    9  A    between atoms: C_11  and  C_13 
ROOT
HETATM    1  C   UNK N   1      35.408  15.016   9.075  0.00  0.00     0.209 C 
ENDROOT
BRANCH   1   2
HETATM    2  C   UNK N   1      36.536  14.348   9.937  0.00  0.00     0.172 C 
HETATM    3  N   UNK N   1      36.144  14.489  11.346  0.00  0.00    -0.392 N 
HETATM    4  C   UNK N   1      36.850  13.472  12.101  0.00  0.00     0.194 C 
HETATM    5  H   UNK N   1      35.493  15.177  11.725  0.00  0.00     0.155 HD
HETATM    6  C   UNK N   1      36.581  12.155  11.383  0.00  0.00     0.033 C 
HETATM    7  C   UNK N   1      37.536  11.068  11.841  0.00  0.00     0.029 C 
HETATM    8  C   UNK N   1      35.139  11.676  11.510  0.00  0.00     0.029 C 
HETATM    9  S   UNK N   1      36.872  12.560   9.656  0.00  0.00    -0.130 SA
BRANCH   4  10
HETATM   10  C   UNK N   1      36.443  13.523  13.554  0.00  0.00     0.164 C 
HETATM   11  O   UNK N   1      35.301  13.837  13.848  0.00  0.00    -0.648 OA
BRANCH  10  12
HETATM   12  O   UNK N   1      37.323  13.238  14.534  0.00  0.00    -0.775 OA
HETATM   13  H   UNK N   1      37.141  13.095  15.442  0.00  0.00     0.167 HD
ENDBRANCH  10  12
ENDBRANCH   4  10
ENDBRANCH   1   2
BRANCH   1  14
HETATM   14  C   UNK N   1      34.080  15.510   9.710  0.00  0.00     0.243 C 
HETATM   15  N   UNK N   1      33.280  16.491   9.204  0.00  0.00    -0.355 N 
HETATM   16  H   UNK N   1      32.373  16.572   9.579  0.00  0.00     0.162 HD
HETATM   17  O   UNK N   1      33.671  14.916  10.702  0.00  0.00    -0.271 OA
BRANCH  15  18
HETATM   18  C   UNK N   1      33.647  17.418   8.167  0.00  0.00     0.161 C 
BRANCH  18  19
HETATM   19  C   UNK N   1      32.874  17.315   6.894  0.00  0.00    -0.041 A 
HETATM   20  C   UNK N   1      31.483  17.150   6.899  0.00  0.00     0.009 A 
HETATM   21  C   UNK N   1      30.771  17.196   5.693  0.00  0.00     0.001 A 
HETATM   22  C   UNK N   1      31.445  17.423   4.487  0.00  0.00     0.000 A 
HETATM   23  C   UNK N   1      32.830  17.594   4.482  0.00  0.00     0.001 A 
HETATM   24  C   UNK N   1      33.540  17.547   5.686  0.00  0.00     0.009 A 
ENDBRANCH  18  19
ENDBRANCH  15  18
ENDBRANCH   1  14
BRANCH   1  25
HETATM   25  N   UNK N   1      35.099  14.095   7.976  0.00  0.00    -0.345 N 
HETATM   26  C   UNK N   1      35.340  14.329   6.648  0.00  0.00     0.222 C 
HETATM   27  O   UNK N   1      35.884  15.360   6.280  0.00  0.00    -0.273 OA
HETATM   28  H   UNK N   1      34.682  13.234   8.212  0.00  0.00     0.163 HD
BRANCH  26  29
HETATM   29  C   UNK N   1      34.922  13.302   5.634  0.00  0.00     0.141 C 
BRANCH  29  30
HETATM   30  C   UNK N   1      33.617  13.600   4.946  0.00  0.00    -0.050 A 
HETATM   31  C   UNK N   1      32.396  13.439   5.617  0.00  0.00     0.007 A 
HETATM   32  C   UNK N   1      31.188  13.663   4.943  0.00  0.00     0.001 A 
HETATM   33  C   UNK N   1      31.195  14.031   3.594  0.00  0.00     0.000 A 
HETATM   34  C   UNK N   1      32.410  14.186   2.920  0.00  0.00     0.001 A 
HETATM   35  C   UNK N   1      33.617  13.971   3.595  0.00  0.00     0.007 A 
ENDBRANCH  29  30
ENDBRANCH  26  29
ENDBRANCH   1  25
TORSDOF 9
ENDMDL
MODEL 5
REMARK VINA RESULT:      -7.6     17.576     20.832
REMARK  9 active torsions:
REMARK  status: ('A' for Active; 'I' for Inactive)
REMARK    1  A    between atoms: C_1  and  C_7 
REMARK    2  A    between atoms: C_2  and  C_3 
REMARK    3  A    between atoms: C_3  and  C_4 
REMARK    4  A    between atoms: C_3  and  N_25 
REMARK       I    between atoms: C_4  and  N_26 
REMARK    5  A    between atoms: C_7  and  O_30 
REMARK    6  A    between atoms: C_9  and  C_22 
REMARK    7  A    between atoms: C_9  and  N_26 
REMARK    8  A    between atoms: C_10  and  C_11 
REMARK       I    between atoms: C_10  and  N_25 
REMARK    9  A    between atoms: C_11  and  C_13 
ROOT
HETATM    1  C   UNK N   1      27.318  25.388  -6.188  0.00  0.00     0.209 C 
ENDROOT
BRANCH   1   2
HETATM    2  C   UNK N   1      26.946  26.904  -6.334  0.00  0.00     0.172 C 
HETATM    3  N   UNK N   1      26.576  27.390  -4.997  0.00  0.00    -0.392 N 
HETATM    4  C   UNK N   1      26.735  28.831  -4.995  0.00  0.00     0.194 C 
HETATM    5  H   UNK N   1      26.263  26.817  -4.214  0.00  0.00     0.155 HD
HETATM    6  C   UNK N   1      28.141  29.098  -5.519  0.00  0.00     0.033 C 
HETATM    7  C   UNK N   1      28.321  30.553  -5.909  0.00  0.00     0.029 C 
HETATM    8  C   UNK N   1      29.241  28.673  -4.553  0.00  0.00     0.029 C 
HETATM    9  S   UNK N   1      28.248  28.041  -6.969  0.00  0.00    -0.130 SA
BRANCH   4  10
HETATM   10  C   UNK N   1      26.427  29.388  -3.626  0.00  0.00     0.164 C 
HETATM   11  O   UNK N   1      26.517  28.664  -2.648  0.00  0.00    -0.648 OA
BRANCH  10  12
HETATM   12  O   UNK N   1      26.046  30.671  -3.465  0.00  0.00    -0.775 OA
HETATM   13  H   UNK N   1      25.742  31.083  -2.681  0.00  0.00     0.167 HD
ENDBRANCH  10  12
ENDBRANCH   4  10
ENDBRANCH   1   2
BRANCH   1  14
HETATM   14  C   UNK N   1      26.230  24.284  -6.109  0.00  0.00     0.243 C 
HETATM   15  N   UNK N   1      26.290  23.070  -6.726  0.00  0.00    -0.355 N 
HETATM   16  H   UNK N   1      25.644  22.385  -6.438  0.00  0.00     0.162 HD
HETATM   17  O   UNK N   1      25.275  24.481  -5.364  0.00  0.00    -0.271 OA
BRANCH  15  18
HETATM   18  C   UNK N   1      27.217  22.705  -7.763  0.00  0.00     0.161 C 
BRANCH  18  19
HETATM   19  C   UNK N   1      28.174  21.609  -7.428  0.00  0.00    -0.041 A 
HETATM   20  C   UNK N   1      28.204  20.418  -8.164  0.00  0.00     0.009 A 
HETATM   21  C   UNK N   1      29.204  19.469  -7.915  0.00  0.00     0.001 A 
HETATM   22  C   UNK N   1      30.182  19.716  -6.944  0.00  0.00     0.000 A 
HETATM   23  C   UNK N   1      30.157  20.906  -6.215  0.00  0.00     0.001 A 
HETATM   24  C   UNK N   1      29.159  21.852  -6.463  0.00  0.00     0.009 A 
ENDBRANCH  18  19
ENDBRANCH  15  18
ENDBRANCH   1  14
BRANCH   1  25
HETATM   25  N   UNK N   1      28.205  25.270  -5.024  0.00  0.00    -0.345 N 
HETATM   26  C   UNK N   1      29.569  25.162  -5.070  0.00  0.00     0.222 C 
HETATM   27  O   UNK N   1      30.167  25.191  -6.136  0.00  0.00    -0.273 OA
HETATM   28  H   UNK N   1      27.783  25.267  -4.134  0.00  0.00     0.163 HD
BRANCH  26  29
HETATM   29  C   UNK N   1      30.337  25.001  -3.788  0.00  0.00     0.141 C 
BRANCH  29  30
HETATM   30  C   UNK N   1      31.225  23.787  -3.742  0.00  0.00    -0.050 A 
HETATM   31  C   UNK N   1      32.345  23.681  -4.579  0.00  0.00     0.007 A 
HETATM   32  C   UNK N   1      33.126  22.518  -4.565  0.00  0.00     0.001 A 
HETATM   33  C   UNK N   1      32.783  21.452  -3.729  0.00  0.00     0.000 A 
HETATM   34  C   UNK N   1      31.663  21.550  -2.897  0.00  0.00     0.001 A 
HETATM   35  C   UNK N   1      30.887  22.715  -2.904  0.00  0.00     0.007 A 
ENDBRANCH  29  30
ENDBRANCH  26  29
ENDBRANCH   1  25
TORSDOF 9
ENDMDL
MODEL 6
REMARK VINA RESULT:      -7.5      2.649      5.977
REMARK  9 active torsions:
REMARK  status: ('A' for Active; 'I' for Inactive)
REMARK    1  A    between atoms: C_1  and  C_7 
REMARK    2  A    between atoms: C_2  and  C_3 
REMARK    3  A    between atoms: C_3  and  C_4 
REMARK    4  A    between atoms: C_3  and  N_25 
REMARK       I    between atoms: C_4  and  N_26 
REMARK    5  A    between atoms: C_7  and  O_30 
REMARK    6  A    between atoms: C_9  and  C_22 
REMARK    7  A    between atoms: C_9  and  N_26 
REMARK    8  A    between atoms: C_10  and  C_11 
REMARK       I    between atoms: C_10  and  N_25 
REMARK    9  A    between atoms: C_11  and  C_13 
ROOT
HETATM    1  C   UNK N   1      35.973  15.018  11.420  0.00  0.00     0.209 C 
ENDROOT
BRANCH   1   2
HETATM    2  C   UNK N   1      34.727  15.798  10.873  0.00  0.00     0.172 C 
HETATM    3  N   UNK N   1      35.235  16.873  10.009  0.00  0.00    -0.392 N 
HETATM    4  C   UNK N   1      34.164  17.256   9.111  0.00  0.00     0.194 C 
HETATM    5  H   UNK N   1      36.171  17.276  10.036  0.00  0.00     0.155 HD
HETATM    6  C   UNK N   1      33.667  15.963   8.475  0.00  0.00     0.033 C 
HETATM    7  C   UNK N   1      32.325  16.159   7.794  0.00  0.00     0.029 C 
HETATM    8  C   UNK N   1      34.664  15.341   7.504  0.00  0.00     0.029 C 
HETATM    9  S   UNK N   1      33.502  14.850   9.877  0.00  0.00    -0.130 SA
BRANCH   4  10
HETATM   10  C   UNK N   1      34.641  18.319   8.151  0.00  0.00     0.164 C 
HETATM   11  O   UNK N   1      35.322  19.243   8.568  0.00  0.00    -0.648 OA
BRANCH  10  12
HETATM   12  O   UNK N   1      34.320  18.272   6.843  0.00  0.00    -0.775 OA
HETATM   13  H   UNK N   1      34.562  17.618   6.218  0.00  0.00     0.167 HD
ENDBRANCH  10  12
ENDBRANCH   4  10
ENDBRANCH   1   2
BRANCH   1  14
HETATM   14  C   UNK N   1      36.939  14.254  10.474  0.00  0.00     0.243 C 
HETATM   15  N   UNK N   1      36.779  12.967  10.054  0.00  0.00    -0.355 N 
HETATM   16  H   UNK N   1      37.338  12.665   9.303  0.00  0.00     0.162 HD
HETATM   17  O   UNK N   1      37.877  14.882   9.995  0.00  0.00    -0.271 OA
BRANCH  15  18
HETATM   18  C   UNK N   1      35.862  12.012  10.616  0.00  0.00     0.161 C 
BRANCH  18  19
HETATM   19  C   UNK N   1      36.438  10.680  10.965  0.00  0.00    -0.041 A 
HETATM   20  C   UNK N   1      37.768  10.360  10.663  0.00  0.00     0.009 A 
HETATM   21  C   UNK N   1      38.319   9.158  11.126  0.00  0.00     0.001 A 
HETATM   22  C   UNK N   1      37.549   8.285  11.904  0.00  0.00     0.000 A 
HETATM   23  C   UNK N   1      36.225   8.607  12.212  0.00  0.00     0.001 A 
HETATM   24  C   UNK N   1      35.676   9.806  11.749  0.00  0.00     0.009 A 
ENDBRANCH  18  19
ENDBRANCH  15  18
ENDBRANCH   1  14
BRANCH   1  25
HETATM   25  N   UNK N   1      35.489  14.096  12.454  0.00  0.00    -0.345 N 
HETATM   26  C   UNK N   1      35.895  14.080  13.761  0.00  0.00     0.222 C 
HETATM   27  O   UNK N   1      36.705  14.895  14.179  0.00  0.00    -0.273 OA
HETATM   28  H   UNK N   1      34.814  13.430  12.184  0.00  0.00     0.163 HD
BRANCH  26  29
HETATM   29  C   UNK N   1      35.337  13.040  14.692  0.00  0.00     0.141 C 
BRANCH  29  30
HETATM   30  C   UNK N   1      36.252  11.873  14.942  0.00  0.00    -0.050 A 
HETATM   31  C   UNK N   1      37.526  11.816  14.357  0.00  0.00     0.007 A 
HETATM   32  C   UNK N   1      38.341  10.693  14.553  0.00  0.00     0.001 A 
HETATM   33  C   UNK N   1      37.882   9.618  15.318  0.00  0.00     0.000 A 
HETATM   34  C   UNK N   1      36.610   9.667  15.898  0.00  0.00     0.001 A 
HETATM   35  C   UNK N   1      35.799  10.791  15.710  0.00  0.00     0.007 A 
ENDBRANCH  29  30
ENDBRANCH  26  29
ENDBRANCH   1  25
TORSDOF 9
ENDMDL
MODEL 7
REMARK VINA RESULT:      -7.4     18.062     21.453
REMARK  9 active torsions:
REMARK  status: ('A' for Active; 'I' for Inactive)
REMARK    1  A    between atoms: C_1  and  C_7 
REMARK    2  A    between atoms: C_2  and  C_3 
REMARK    3  A    between atoms: C_3  and  C_4 
REMARK    4  A    between atoms: C_3  and  N_25 
REMARK       I    between atoms: C_4  and  N_26 
REMARK    5  A    between atoms: C_7  and  O_30 
REMARK    6  A    between atoms: C_9  and  C_22 
REMARK    7  A    between atoms: C_9  and  N_26 
REMARK    8  A    between atoms: C_10  and  C_11 
REMARK       I    between atoms: C_10  and  N_25 
REMARK    9  A    between atoms: C_11  and  C_13 
ROOT
HETATM    1  C   UNK N   1      25.879  24.616  -5.525  0.00  0.00     0.209 C 
ENDROOT
BRANCH   1   2
HETATM    2  C   UNK N   1      25.817  26.143  -5.875  0.00  0.00     0.172 C 
HETATM    3  N   UNK N   1      25.778  26.878  -4.602  0.00  0.00    -0.392 N 
HETATM    4  C   UNK N   1      26.236  28.228  -4.861  0.00  0.00     0.194 C 
HETATM    5  H   UNK N   1      25.481  26.505  -3.700  0.00  0.00     0.155 HD
HETATM    6  C   UNK N   1      27.564  28.086  -5.596  0.00  0.00     0.033 C 
HETATM    7  C   UNK N   1      27.982  29.393  -6.245  0.00  0.00     0.029 C 
HETATM    8  C   UNK N   1      28.690  27.550  -4.720  0.00  0.00     0.029 C 
HETATM    9  S   UNK N   1      27.210  26.848  -6.851  0.00  0.00    -0.130 SA
BRANCH   4  10
HETATM   10  C   UNK N   1      26.278  29.022  -3.577  0.00  0.00     0.164 C 
HETATM   11  O   UNK N   1      26.524  28.452  -2.527  0.00  0.00    -0.648 OA
BRANCH  10  12
HETATM   12  O   UNK N   1      26.038  30.348  -3.569  0.00  0.00    -0.775 OA
HETATM   13  H   UNK N   1      25.381  30.807  -3.083  0.00  0.00     0.167 HD
ENDBRANCH  10  12
ENDBRANCH   4  10
ENDBRANCH   1   2
BRANCH   1  14
HETATM   14  C   UNK N   1      26.719  24.085  -4.331  0.00  0.00     0.243 C 
HETATM   15  N   UNK N   1      28.068  23.893  -4.339  0.00  0.00    -0.355 N 
HETATM   16  H   UNK N   1      28.509  23.751  -3.470  0.00  0.00     0.162 HD
HETATM   17  O   UNK N   1      26.138  23.902  -3.267  0.00  0.00    -0.271 OA
BRANCH  15  18
HETATM   18  C   UNK N   1      28.904  23.881  -5.509  0.00  0.00     0.161 C 
BRANCH  18  19
HETATM   19  C   UNK N   1      30.123  23.023  -5.432  0.00  0.00    -0.041 A 
HETATM   20  C   UNK N   1      31.366  23.482  -5.889  0.00  0.00     0.009 A 
HETATM   21  C   UNK N   1      32.515  22.709  -5.678  0.00  0.00     0.001 A 
HETATM   22  C   UNK N   1      32.427  21.489  -4.997  0.00  0.00     0.000 A 
HETATM   23  C   UNK N   1      31.190  21.035  -4.535  0.00  0.00     0.001 A 
HETATM   24  C   UNK N   1      30.044  21.806  -4.747  0.00  0.00     0.009 A 
ENDBRANCH  18  19
ENDBRANCH  15  18
ENDBRANCH   1  14
BRANCH   1  25
HETATM   25  N   UNK N   1      26.281  23.907  -6.745  0.00  0.00    -0.345 N 
HETATM   26  C   UNK N   1      25.766  22.716  -7.181  0.00  0.00     0.222 C 
HETATM   27  O   UNK N   1      24.870  22.155  -6.566  0.00  0.00    -0.273 OA
HETATM   28  H   UNK N   1      26.983  24.323  -7.298  0.00  0.00     0.163 HD
BRANCH  26  29
HETATM   29  C   UNK N   1      26.317  22.090  -8.431  0.00  0.00     0.141 C 
BRANCH  29  30
HETATM   30  C   UNK N   1      27.710  21.539  -8.291  0.00  0.00    -0.050 A 
HETATM   31  C   UNK N   1      28.814  22.230  -8.812  0.00  0.00     0.007 A 
HETATM   32  C   UNK N   1      30.097  21.673  -8.726  0.00  0.00     0.001 A 
HETATM   33  C   UNK N   1      30.279  20.419  -8.136  0.00  0.00     0.000 A 
HETATM   34  C   UNK N   1      29.180  19.724  -7.623  0.00  0.00     0.001 A 
HETATM   35  C   UNK N   1      27.900  20.283  -7.700  0.00  0.00     0.007 A 
ENDBRANCH  29  30
ENDBRANCH  26  29
ENDBRANCH   1  25
TORSDOF 9
ENDMDL
MODEL 8
REMARK VINA RESULT:      -7.4      2.023      2.727
REMARK  9 active torsions:
REMARK  status: ('A' for Active; 'I' for Inactive)
REMARK    1  A    between atoms: C_1  and  C_7 
REMARK    2  A    between atoms: C_2  and  C_3 
REMARK    3  A    between atoms: C_3  and  C_4 
REMARK    4  A    between atoms: C_3  and  N_25 
REMARK       I    between atoms: C_4  and  N_26 
REMARK    5  A    between atoms: C_7  and  O_30 
REMARK    6  A    between atoms: C_9  and  C_22 
REMARK    7  A    between atoms: C_9  and  N_26 
REMARK    8  A    between atoms: C_10  and  C_11 
REMARK       I    between atoms: C_10  and  N_25 
REMARK    9  A    between atoms: C_11  and  C_13 
ROOT
HETATM    1  C   UNK N   1      35.160  14.839  10.792  0.00  0.00     0.209 C 
ENDROOT
BRANCH   1   2
HETATM    2  C   UNK N   1      35.472  13.652   9.816  0.00  0.00     0.172 C 
HETATM    3  N   UNK N   1      35.742  14.238   8.495  0.00  0.00    -0.392 N 
HETATM    4  C   UNK N   1      36.516  13.275   7.737  0.00  0.00     0.194 C 
HETATM    5  H   UNK N   1      35.439  15.156   8.170  0.00  0.00     0.155 HD
HETATM    6  C   UNK N   1      37.688  12.884   8.630  0.00  0.00     0.033 C 
HETATM    7  C   UNK N   1      38.377  11.630   8.124  0.00  0.00     0.029 C 
HETATM    8  C   UNK N   1      38.706  14.002   8.821  0.00  0.00     0.029 C 
HETATM    9  S   UNK N   1      36.910  12.574  10.221  0.00  0.00    -0.130 SA
BRANCH   4  10
HETATM   10  C   UNK N   1      36.880  13.842   6.387  0.00  0.00     0.164 C 
HETATM   11  O   UNK N   1      36.544  14.981   6.103  0.00  0.00    -0.648 OA
BRANCH  10  12
HETATM   12  O   UNK N   1      37.561  13.110   5.483  0.00  0.00    -0.775 OA
HETATM   13  H   UNK N   1      37.265  12.818   4.644  0.00  0.00     0.167 HD
ENDBRANCH  10  12
ENDBRANCH   4  10
ENDBRANCH   1   2
BRANCH   1  14
HETATM   14  C   UNK N   1      35.244  16.319  10.332  0.00  0.00     0.243 C 
HETATM   15  N   UNK N   1      34.231  17.024   9.752  0.00  0.00    -0.355 N 
HETATM   16  H   UNK N   1      34.337  18.001   9.694  0.00  0.00     0.162 HD
HETATM   17  O   UNK N   1      36.275  16.933  10.584  0.00  0.00    -0.271 OA
BRANCH  15  18
HETATM   18  C   UNK N   1      33.020  16.462   9.219  0.00  0.00     0.161 C 
BRANCH  18  19
HETATM   19  C   UNK N   1      32.790  16.669   7.758  0.00  0.00    -0.041 A 
HETATM   20  C   UNK N   1      31.508  16.572   7.203  0.00  0.00     0.009 A 
HETATM   21  C   UNK N   1      31.304  16.908   5.858  0.00  0.00     0.001 A 
HETATM   22  C   UNK N   1      32.374  17.355   5.074  0.00  0.00     0.000 A 
HETATM   23  C   UNK N   1      33.651  17.460   5.630  0.00  0.00     0.001 A 
HETATM   24  C   UNK N   1      33.854  17.124   6.971  0.00  0.00     0.009 A 
ENDBRANCH  18  19
ENDBRANCH  15  18
ENDBRANCH   1  14
BRANCH   1  25
HETATM   25  N   UNK N   1      36.005  14.658  11.978  0.00  0.00    -0.345 N 
HETATM   26  C   UNK N   1      35.650  13.983  13.115  0.00  0.00     0.222 C 
HETATM   27  O   UNK N   1      34.562  13.432  13.205  0.00  0.00    -0.273 OA
HETATM   28  H   UNK N   1      36.906  15.058  11.955  0.00  0.00     0.163 HD
BRANCH  26  29
HETATM   29  C   UNK N   1      36.613  13.925  14.267  0.00  0.00     0.141 C 
BRANCH  29  30
HETATM   30  C   UNK N   1      36.239  12.942  15.343  0.00  0.00    -0.050 A 
HETATM   31  C   UNK N   1      35.488  13.344  16.457  0.00  0.00     0.007 A 
HETATM   32  C   UNK N   1      35.200  12.429  17.479  0.00  0.00     0.001 A 
HETATM   33  C   UNK N   1      35.676  11.118  17.401  0.00  0.00     0.000 A 
HETATM   34  C   UNK N   1      36.432  10.714  16.296  0.00  0.00     0.001 A 
HETATM   35  C   UNK N   1      36.712  11.624  15.270  0.00  0.00     0.007 A 
ENDBRANCH  29  30
ENDBRANCH  26  29
ENDBRANCH   1  25
TORSDOF 9
ENDMDL
MODEL 9
REMARK VINA RESULT:      -7.4      2.819      7.580
REMARK  9 active torsions:
REMARK  status: ('A' for Active; 'I' for Inactive)
REMARK    1  A    between atoms: C_1  and  C_7 
REMARK    2  A    between atoms: C_2  and  C_3 
REMARK    3  A    between atoms: C_3  and  C_4 
REMARK    4  A    between atoms: C_3  and  N_25 
REMARK       I    between atoms: C_4  and  N_26 
REMARK    5  A    between atoms: C_7  and  O_30 
REMARK    6  A    between atoms: C_9  and  C_22 
REMARK    7  A    between atoms: C_9  and  N_26 
REMARK    8  A    between atoms: C_10  and  C_11 
REMARK       I    between atoms: C_10  and  N_25 
REMARK    9  A    between atoms: C_11  and  C_13 
ROOT
HETATM    1  C   UNK N   1      33.841  16.028   8.530  0.00  0.00     0.209 C 
ENDROOT
BRANCH   1   2
HETATM    2  C   UNK N   1      35.238  15.642   9.130  0.00  0.00     0.172 C 
HETATM    3  N   UNK N   1      35.027  15.322  10.549  0.00  0.00    -0.392 N 
HETATM    4  C   UNK N   1      36.133  14.491  10.981  0.00  0.00     0.194 C 
HETATM    5  H   UNK N   1      34.243  15.630  11.126  0.00  0.00     0.155 HD
HETATM    6  C   UNK N   1      36.223  13.356   9.969  0.00  0.00     0.033 C 
HETATM    7  C   UNK N   1      37.543  12.615  10.082  0.00  0.00     0.029 C 
HETATM    8  C   UNK N   1      35.061  12.373  10.051  0.00  0.00     0.029 C 
HETATM    9  S   UNK N   1      36.113  14.203   8.387  0.00  0.00    -0.130 SA
BRANCH   4  10
HETATM   10  C   UNK N   1      35.944  14.076  12.420  0.00  0.00     0.164 C 
HETATM   11  O   UNK N   1      34.816  13.899  12.851  0.00  0.00    -0.648 OA
BRANCH  10  12
HETATM   12  O   UNK N   1      36.999  13.906  13.241  0.00  0.00    -0.775 OA
HETATM   13  H   UNK N   1      37.047  13.370  14.007  0.00  0.00     0.167 HD
ENDBRANCH  10  12
ENDBRANCH   4  10
ENDBRANCH   1   2
BRANCH   1  14
HETATM   14  C   UNK N   1      32.516  15.486   9.132  0.00  0.00     0.243 C 
HETATM   15  N   UNK N   1      31.325  16.147   9.140  0.00  0.00    -0.355 N 
HETATM   16  H   UNK N   1      30.520  15.624   9.362  0.00  0.00     0.162 HD
HETATM   17  O   UNK N   1      32.518  14.337   9.561  0.00  0.00    -0.271 OA
BRANCH  15  18
HETATM   18  C   UNK N   1      31.141  17.543   8.851  0.00  0.00     0.161 C 
BRANCH  18  19
HETATM   19  C   UNK N   1      29.996  17.880   7.953  0.00  0.00    -0.041 A 
HETATM   20  C   UNK N   1      29.002  18.784   8.350  0.00  0.00     0.009 A 
HETATM   21  C   UNK N   1      28.019  19.185   7.436  0.00  0.00     0.001 A 
HETATM   22  C   UNK N   1      28.039  18.698   6.123  0.00  0.00     0.000 A 
HETATM   23  C   UNK N   1      29.034  17.803   5.725  0.00  0.00     0.001 A 
HETATM   24  C   UNK N   1      30.014  17.403   6.638  0.00  0.00     0.009 A 
ENDBRANCH  18  19
ENDBRANCH  15  18
ENDBRANCH   1  14
BRANCH   1  25
HETATM   25  N   UNK N   1      33.881  15.710   7.098  0.00  0.00    -0.345 N 
HETATM   26  C   UNK N   1      33.809  16.621   6.078  0.00  0.00     0.222 C 
HETATM   27  O   UNK N   1      33.734  17.819   6.308  0.00  0.00    -0.273 OA
HETATM   28  H   UNK N   1      33.967  14.761   6.849  0.00  0.00     0.163 HD
BRANCH  26  29
HETATM   29  C   UNK N   1      33.817  16.134   4.657  0.00  0.00     0.141 C 
BRANCH  29  30
HETATM   30  C   UNK N   1      32.451  15.877   4.078  0.00  0.00    -0.050 A 
HETATM   31  C   UNK N   1      31.861  16.789   3.192  0.00  0.00     0.007 A 
HETATM   32  C   UNK N   1      30.565  16.564   2.710  0.00  0.00     0.001 A 
HETATM   33  C   UNK N   1      29.848  15.438   3.124  0.00  0.00     0.000 A 
HETATM   34  C   UNK N   1      30.430  14.529   4.013  0.00  0.00     0.001 A 
HETATM   35  C   UNK N   1      31.728  14.749   4.488  0.00  0.00     0.007 A 
ENDBRANCH  29  30
ENDBRANCH  26  29
ENDBRANCH   1  25
TORSDOF 9
ENDMDL
