MODEL 1
REMARK VINA RESULT:      -6.3      0.000      0.000
REMARK  8 active torsions:
REMARK  status: ('A' for Active; 'I' for Inactive)
REMARK    1  A    between atoms: C_6  and  C_7 
REMARK    2  A    between atoms: C_7  and  C_8 
REMARK    3  A    between atoms: C_8  and  C_9 
REMARK    4  A    between atoms: C_9  and  N_10 
REMARK    5  A    between atoms: C_13  and  O_14 
REMARK    6  A    between atoms: C_15  and  O_16 
REMARK    7  A    between atoms: C_17  and  C_18 
REMARK    8  A    between atoms: C_18  and  O_19 
ROOT
HETATM    1  N   UNK N   1      22.741  19.462   3.705  0.00  0.00     0.091 N 
HETATM    2  C   UNK N   1      22.276  20.136   2.489  0.00  0.00     0.281 C 
HETATM    3  C   UNK N   1      22.135  18.131   3.898  0.00  0.00     0.306 C 
HETATM    4  C   UNK N   1      20.980  17.817   2.937  0.00  0.00     0.175 C 
HETATM    5  C   UNK N   1      20.014  19.012   2.882  0.00  0.00     0.156 C 
HETATM    6  C   UNK N   1      20.757  20.342   2.532  0.00  0.00     0.069 C 
ENDROOT
BRANCH   1   7
HETATM    7  C   UNK N   1      24.176  19.269   3.582  0.00  0.00     0.273 C 
BRANCH   7   8
HETATM    8  C   UNK N   1      24.839  20.568   3.163  0.00  0.00     0.035 C 
BRANCH   8   9
HETATM    9  C   UNK N   1      26.346  20.385   3.154  0.00  0.00     0.040 C 
BRANCH   9  10
HETATM   10  C   UNK N   1      26.855  20.124   4.531  0.00  0.00    -0.058 A 
HETATM   11  C   UNK N   1      27.616  18.977   4.787  0.00  0.00     0.007 A 
HETATM   12  C   UNK N   1      28.109  18.735   6.072  0.00  0.00     0.001 A 
HETATM   13  C   UNK N   1      27.841  19.637   7.107  0.00  0.00     0.000 A 
HETATM   14  C   UNK N   1      27.084  20.785   6.855  0.00  0.00     0.001 A 
HETATM   15  C   UNK N   1      26.595  21.030   5.570  0.00  0.00     0.007 A 
ENDBRANCH   9  10
ENDBRANCH   8   9
ENDBRANCH   7   8
ENDBRANCH   1   7
BRANCH   6  16
HETATM   16  C   UNK N   1      20.325  20.973   1.210  0.00  0.00     0.173 C 
BRANCH  16  17
HETATM   17  O   UNK N   1      20.711  20.167   0.137  0.00  0.00    -0.400 OA
HETATM   18  H   UNK N   1      21.136  19.298   0.216  0.00  0.00     0.209 HD
ENDBRANCH  16  17
ENDBRANCH   6  16
BRANCH   4  19
HETATM   19  O   UNK N   1      20.312  16.673   3.376  0.00  0.00    -0.391 OA
HETATM   20  H   UNK N   1      20.690  15.788   3.254  0.00  0.00     0.210 HD
ENDBRANCH   4  19
BRANCH   5  21
HETATM   21  O   UNK N   1      18.978  18.735   1.985  0.00  0.00    -0.392 OA
HETATM   22  H   UNK N   1      18.025  18.773   2.163  0.00  0.00     0.210 HD
ENDBRANCH   5  21
TORSDOF 8
ENDMDL
MODEL 2
REMARK VINA RESULT:      -6.1     10.254     12.366
REMARK  8 active torsions:
REMARK  status: ('A' for Active; 'I' for Inactive)
REMARK    1  A    between atoms: C_6  and  C_7 
REMARK    2  A    between atoms: C_7  and  C_8 
REMARK    3  A    between atoms: C_8  and  C_9 
REMARK    4  A    between atoms: C_9  and  N_10 
REMARK    5  A    between atoms: C_13  and  O_14 
REMARK    6  A    between atoms: C_15  and  O_16 
REMARK    7  A    between atoms: C_17  and  C_18 
REMARK    8  A    between atoms: C_18  and  O_19 
ROOT
HETATM    1  N   UNK N   1      29.373  22.899  -4.779  0.00  0.00     0.091 N 
HETATM    2  C   UNK N   1      30.724  22.590  -5.259  0.00  0.00     0.281 C 
HETATM    3  C   UNK N   1      29.332  23.240  -3.345  0.00  0.00     0.306 C 
HETATM    4  C   UNK N   1      30.646  22.978  -2.595  0.00  0.00     0.175 C 
HETATM    5  C   UNK N   1      31.176  21.582  -2.954  0.00  0.00     0.156 C 
HETATM    6  C   UNK N   1      31.306  21.391  -4.501  0.00  0.00     0.069 C 
ENDROOT
BRANCH   1   7
HETATM    7  C   UNK N   1      28.898  24.059  -5.513  0.00  0.00     0.273 C 
BRANCH   7   8
HETATM    8  C   UNK N   1      27.549  23.760  -6.138  0.00  0.00     0.035 C 
BRANCH   8   9
HETATM    9  C   UNK N   1      26.470  23.842  -5.073  0.00  0.00     0.040 C 
BRANCH   9  10
HETATM   10  C   UNK N   1      26.065  25.258  -4.839  0.00  0.00    -0.058 A 
HETATM   11  C   UNK N   1      26.443  25.903  -3.655  0.00  0.00     0.007 A 
HETATM   12  C   UNK N   1      26.080  27.234  -3.436  0.00  0.00     0.001 A 
HETATM   13  C   UNK N   1      25.336  27.926  -4.399  0.00  0.00     0.000 A 
HETATM   14  C   UNK N   1      24.960  27.285  -5.583  0.00  0.00     0.001 A 
HETATM   15  C   UNK N   1      25.326  25.956  -5.804  0.00  0.00     0.007 A 
ENDBRANCH   9  10
ENDBRANCH   8   9
ENDBRANCH   7   8
ENDBRANCH   1   7
BRANCH   6  16
HETATM   16  C   UNK N   1      32.737  21.170  -4.988  0.00  0.00     0.173 C 
BRANCH  16  17
HETATM   17  O   UNK N   1      33.498  22.328  -4.806  0.00  0.00    -0.400 OA
HETATM   18  H   UNK N   1      34.333  22.375  -4.316  0.00  0.00     0.209 HD
ENDBRANCH  16  17
ENDBRANCH   6  16
BRANCH   4  19
HETATM   19  O   UNK N   1      30.420  23.072  -1.221  0.00  0.00    -0.391 OA
HETATM   20  H   UNK N   1      29.551  23.321  -0.866  0.00  0.00     0.210 HD
ENDBRANCH   4  19
BRANCH   5  21
HETATM   21  O   UNK N   1      32.387  21.356  -2.292  0.00  0.00    -0.392 OA
HETATM   22  H   UNK N   1      32.513  20.923  -1.433  0.00  0.00     0.210 HD
ENDBRANCH   5  21
TORSDOF 8
ENDMDL
MODEL 3
REMARK VINA RESULT:      -6.0     14.374     17.447
REMARK  8 active torsions:
REMARK  status: ('A' for Active; 'I' for Inactive)
REMARK    1  A    between atoms: C_6  and  C_7 
REMARK    2  A    between atoms: C_7  and  C_8 
REMARK    3  A    between atoms: C_8  and  C_9 
REMARK    4  A    between atoms: C_9  and  N_10 
REMARK    5  A    between atoms: C_13  and  O_14 
REMARK    6  A    between atoms: C_15  and  O_16 
REMARK    7  A    between atoms: C_17  and  C_18 
REMARK    8  A    between atoms: C_18  and  O_19 
ROOT
HETATM    1  N   UNK N   1      35.507  13.315  13.155  0.00  0.00     0.091 N 
HETATM    2  C   UNK N   1      36.031  14.554  12.571  0.00  0.00     0.281 C 
HETATM    3  C   UNK N   1      35.114  12.319  12.141  0.00  0.00     0.306 C 
HETATM    4  C   UNK N   1      35.104  12.852  10.701  0.00  0.00     0.175 C 
HETATM    5  C   UNK N   1      34.376  14.204  10.656  0.00  0.00     0.156 C 
HETATM    6  C   UNK N   1      34.977  15.221  11.681  0.00  0.00     0.069 C 
ENDROOT
BRANCH   1   7
HETATM    7  C   UNK N   1      36.565  12.721  13.955  0.00  0.00     0.273 C 
BRANCH   7   8
HETATM    8  C   UNK N   1      36.545  13.306  15.355  0.00  0.00     0.035 C 
BRANCH   8   9
HETATM    9  C   UNK N   1      35.164  13.122  15.959  0.00  0.00     0.040 C 
BRANCH   9  10
HETATM   10  C   UNK N   1      35.259  12.515  17.317  0.00  0.00    -0.058 A 
HETATM   11  C   UNK N   1      35.129  13.324  18.452  0.00  0.00     0.007 A 
HETATM   12  C   UNK N   1      35.201  12.759  19.728  0.00  0.00     0.001 A 
HETATM   13  C   UNK N   1      35.405  11.383  19.875  0.00  0.00     0.000 A 
HETATM   14  C   UNK N   1      35.533  10.571  18.744  0.00  0.00     0.001 A 
HETATM   15  C   UNK N   1      35.456  11.135  17.468  0.00  0.00     0.007 A 
ENDBRANCH   9  10
ENDBRANCH   8   9
ENDBRANCH   7   8
ENDBRANCH   1   7
BRANCH   6  16
HETATM   16  C   UNK N   1      35.606  16.457  11.043  0.00  0.00     0.173 C 
BRANCH  16  17
HETATM   17  O   UNK N   1      36.943  16.213  10.722  0.00  0.00    -0.400 OA
HETATM   18  H   UNK N   1      37.258  15.494  10.151  0.00  0.00     0.209 HD
ENDBRANCH  16  17
ENDBRANCH   6  16
BRANCH   4  19
HETATM   19  O   UNK N   1      34.466  11.929   9.871  0.00  0.00    -0.391 OA
HETATM   20  H   UNK N   1      34.743  10.999   9.839  0.00  0.00     0.210 HD
ENDBRANCH   4  19
BRANCH   5  21
HETATM   21  O   UNK N   1      34.393  14.702   9.349  0.00  0.00    -0.392 OA
HETATM   22  H   UNK N   1      34.564  14.203   8.535  0.00  0.00     0.210 HD
ENDBRANCH   5  21
TORSDOF 8
ENDMDL
MODEL 4
REMARK VINA RESULT:      -6.0     12.341     15.725
REMARK  8 active torsions:
REMARK  status: ('A' for Active; 'I' for Inactive)
REMARK    1  A    between atoms: C_6  and  C_7 
REMARK    2  A    between atoms: C_7  and  C_8 
REMARK    3  A    between atoms: C_8  and  C_9 
REMARK    4  A    between atoms: C_9  and  N_10 
REMARK    5  A    between atoms: C_13  and  O_14 
REMARK    6  A    between atoms: C_15  and  O_16 
REMARK    7  A    between atoms: C_17  and  C_18 
REMARK    8  A    between atoms: C_18  and  O_19 
ROOT
HETATM    1  N   UNK N   1      35.807  14.002  10.398  0.00  0.00     0.091 N 
HETATM    2  C   UNK N   1      34.351  13.912  10.249  0.00  0.00     0.281 C 
HETATM    3  C   UNK N   1      36.273  15.364  10.720  0.00  0.00     0.306 C 
HETATM    4  C   UNK N   1      35.192  16.447  10.602  0.00  0.00     0.175 C 
HETATM    5  C   UNK N   1      34.431  16.275   9.278  0.00  0.00     0.156 C 
HETATM    6  C   UNK N   1      33.866  14.826   9.118  0.00  0.00     0.069 C 
ENDROOT
BRANCH   1   7
HETATM    7  C   UNK N   1      36.191  13.141  11.504  0.00  0.00     0.273 C 
BRANCH   7   8
HETATM    8  C   UNK N   1      36.169  13.926  12.803  0.00  0.00     0.035 C 
BRANCH   8   9
HETATM    9  C   UNK N   1      36.693  13.052  13.929  0.00  0.00     0.040 C 
BRANCH   9  10
HETATM   10  C   UNK N   1      36.378  13.655  15.255  0.00  0.00    -0.058 A 
HETATM   11  C   UNK N   1      35.376  13.092  16.055  0.00  0.00     0.007 A 
HETATM   12  C   UNK N   1      35.085  13.642  17.306  0.00  0.00     0.001 A 
HETATM   13  C   UNK N   1      35.794  14.759  17.762  0.00  0.00     0.000 A 
HETATM   14  C   UNK N   1      36.797  15.323  16.967  0.00  0.00     0.001 A 
HETATM   15  C   UNK N   1      37.090  14.770  15.719  0.00  0.00     0.007 A 
ENDBRANCH   9  10
ENDBRANCH   8   9
ENDBRANCH   7   8
ENDBRANCH   1   7
BRANCH   6  16
HETATM   16  C   UNK N   1      32.342  14.750   9.065  0.00  0.00     0.173 C 
BRANCH  16  17
HETATM   17  O   UNK N   1      31.793  15.109  10.298  0.00  0.00    -0.400 OA
HETATM   18  H   UNK N   1      32.016  15.910  10.797  0.00  0.00     0.209 HD
ENDBRANCH  16  17
ENDBRANCH   6  16
BRANCH   4  19
HETATM   19  O   UNK N   1      35.791  17.706  10.657  0.00  0.00    -0.391 OA
HETATM   20  H   UNK N   1      35.544  18.413  10.039  0.00  0.00     0.210 HD
ENDBRANCH   4  19
BRANCH   5  21
HETATM   21  O   UNK N   1      33.428  17.245   9.185  0.00  0.00    -0.392 OA
HETATM   22  H   UNK N   1      32.472  17.094   9.117  0.00  0.00     0.210 HD
ENDBRANCH   5  21
TORSDOF 8
ENDMDL
MODEL 5
REMARK VINA RESULT:      -6.0     16.595     18.321
REMARK  8 active torsions:
REMARK  status: ('A' for Active; 'I' for Inactive)
REMARK    1  A    between atoms: C_6  and  C_7 
REMARK    2  A    between atoms: C_7  and  C_8 
REMARK    3  A    between atoms: C_8  and  C_9 
REMARK    4  A    between atoms: C_9  and  N_10 
REMARK    5  A    between atoms: C_13  and  O_14 
REMARK    6  A    between atoms: C_15  and  O_16 
REMARK    7  A    between atoms: C_17  and  C_18 
REMARK    8  A    between atoms: C_18  and  O_19 
ROOT
HETATM    1  N   UNK N   1      34.580  11.259  12.385  0.00  0.00     0.091 N 
HETATM    2  C   UNK N   1      34.937  12.540  13.003  0.00  0.00     0.281 C 
HETATM    3  C   UNK N   1      35.749  10.513  11.882  0.00  0.00     0.306 C 
HETATM    4  C   UNK N   1      37.060  11.312  11.887  0.00  0.00     0.175 C 
HETATM    5  C   UNK N   1      36.819  12.703  11.281  0.00  0.00     0.156 C 
HETATM    6  C   UNK N   1      35.643  13.450  11.992  0.00  0.00     0.069 C 
ENDROOT
BRANCH   1   7
HETATM    7  C   UNK N   1      33.949  10.437  13.403  0.00  0.00     0.273 C 
BRANCH   7   8
HETATM    8  C   UNK N   1      33.881  11.198  14.714  0.00  0.00     0.035 C 
BRANCH   8   9
HETATM    9  C   UNK N   1      34.723  10.484  15.756  0.00  0.00     0.040 C 
BRANCH   9  10
HETATM   10  C   UNK N   1      34.938  11.355  16.947  0.00  0.00    -0.058 A 
HETATM   11  C   UNK N   1      34.937  12.748  16.801  0.00  0.00     0.007 A 
HETATM   12  C   UNK N   1      35.123  13.570  17.915  0.00  0.00     0.001 A 
HETATM   13  C   UNK N   1      35.313  13.003  19.180  0.00  0.00     0.000 A 
HETATM   14  C   UNK N   1      35.312  11.613  19.330  0.00  0.00     0.001 A 
HETATM   15  C   UNK N   1      35.122  10.791  18.218  0.00  0.00     0.007 A 
ENDBRANCH   9  10
ENDBRANCH   8   9
ENDBRANCH   7   8
ENDBRANCH   1   7
BRANCH   6  16
HETATM   16  C   UNK N   1      36.059  14.730  12.714  0.00  0.00     0.173 C 
BRANCH  16  17
HETATM   17  O   UNK N   1      36.812  14.426  13.850  0.00  0.00    -0.400 OA
HETATM   18  H   UNK N   1      37.742  14.149  13.846  0.00  0.00     0.209 HD
ENDBRANCH  16  17
ENDBRANCH   6  16
BRANCH   4  19
HETATM   19  O   UNK N   1      38.024  10.623  11.151  0.00  0.00    -0.391 OA
HETATM   20  H   UNK N   1      38.795  10.217  11.580  0.00  0.00     0.210 HD
ENDBRANCH   4  19
BRANCH   5  21
HETATM   21  O   UNK N   1      38.007  13.440  11.312  0.00  0.00    -0.392 OA
HETATM   22  H   UNK N   1      38.491  13.803  10.554  0.00  0.00     0.210 HD
ENDBRANCH   5  21
TORSDOF 8
ENDMDL
MODEL 6
REMARK VINA RESULT:      -5.9      4.234      5.846
REMARK  8 active torsions:
REMARK  status: ('A' for Active; 'I' for Inactive)
REMARK    1  A    between atoms: C_6  and  C_7 
REMARK    2  A    between atoms: C_7  and  C_8 
REMARK    3  A    between atoms: C_8  and  C_9 
REMARK    4  A    between atoms: C_9  and  N_10 
REMARK    5  A    between atoms: C_13  and  O_14 
REMARK    6  A    between atoms: C_15  and  O_16 
REMARK    7  A    between atoms: C_17  and  C_18 
REMARK    8  A    between atoms: C_18  and  O_19 
ROOT
HETATM    1  N   UNK N   1      21.021  17.225   4.324  0.00  0.00     0.091 N 
HETATM    2  C   UNK N   1      22.034  18.188   3.882  0.00  0.00     0.281 C 
HETATM    3  C   UNK N   1      20.109  16.805   3.243  0.00  0.00     0.306 C 
HETATM    4  C   UNK N   1      20.244  17.621   1.950  0.00  0.00     0.175 C 
HETATM    5  C   UNK N   1      20.269  19.120   2.285  0.00  0.00     0.156 C 
HETATM    6  C   UNK N   1      21.371  19.460   3.341  0.00  0.00     0.069 C 
ENDROOT
BRANCH   1   7
HETATM    7  C   UNK N   1      21.714  16.037   4.790  0.00  0.00     0.273 C 
BRANCH   7   8
HETATM    8  C   UNK N   1      22.188  16.240   6.217  0.00  0.00     0.035 C 
BRANCH   8   9
HETATM    9  C   UNK N   1      22.847  14.966   6.716  0.00  0.00     0.040 C 
BRANCH   9  10
HETATM   10  C   UNK N   1      22.129  14.432   7.908  0.00  0.00    -0.058 A 
HETATM   11  C   UNK N   1      22.689  13.380   8.644  0.00  0.00     0.007 A 
HETATM   12  C   UNK N   1      22.028  12.884   9.771  0.00  0.00     0.001 A 
HETATM   13  C   UNK N   1      20.806  13.436  10.167  0.00  0.00     0.000 A 
HETATM   14  C   UNK N   1      20.245  14.489   9.436  0.00  0.00     0.001 A 
HETATM   15  C   UNK N   1      20.907  14.987   8.312  0.00  0.00     0.007 A 
ENDBRANCH   9  10
ENDBRANCH   8   9
ENDBRANCH   7   8
ENDBRANCH   1   7
BRANCH   6  16
HETATM   16  C   UNK N   1      22.470  20.387   2.824  0.00  0.00     0.173 C 
BRANCH  16  17
HETATM   17  O   UNK N   1      22.007  21.703   2.759  0.00  0.00    -0.400 OA
HETATM   18  H   UNK N   1      21.981  22.323   3.504  0.00  0.00     0.209 HD
ENDBRANCH  16  17
ENDBRANCH   6  16
BRANCH   4  19
HETATM   19  O   UNK N   1      19.172  17.330   1.106  0.00  0.00    -0.391 OA
HETATM   20  H   UNK N   1      18.820  16.429   1.025  0.00  0.00     0.210 HD
ENDBRANCH   4  19
BRANCH   5  21
HETATM   21  O   UNK N   1      20.421  19.861   1.108  0.00  0.00    -0.392 OA
HETATM   22  H   UNK N   1      19.877  19.805   0.307  0.00  0.00     0.210 HD
ENDBRANCH   5  21
TORSDOF 8
ENDMDL
MODEL 7
REMARK VINA RESULT:      -5.8      6.554      9.813
REMARK  8 active torsions:
REMARK  status: ('A' for Active; 'I' for Inactive)
REMARK    1  A    between atoms: C_6  and  C_7 
REMARK    2  A    between atoms: C_7  and  C_8 
REMARK    3  A    between atoms: C_8  and  C_9 
REMARK    4  A    between atoms: C_9  and  N_10 
REMARK    5  A    between atoms: C_13  and  O_14 
REMARK    6  A    between atoms: C_15  and  O_16 
REMARK    7  A    between atoms: C_17  and  C_18 
REMARK    8  A    between atoms: C_18  and  O_19 
ROOT
HETATM    1  N   UNK N   1      31.255  16.691   8.231  0.00  0.00     0.091 N 
HETATM    2  C   UNK N   1      30.941  16.835   6.806  0.00  0.00     0.281 C 
HETATM    3  C   UNK N   1      32.440  17.467   8.644  0.00  0.00     0.306 C 
HETATM    4  C   UNK N   1      33.238  18.070   7.480  0.00  0.00     0.175 C 
HETATM    5  C   UNK N   1      33.458  17.002   6.397  0.00  0.00     0.156 C 
HETATM    6  C   UNK N   1      32.111  16.350   5.943  0.00  0.00     0.069 C 
ENDROOT
BRANCH   1   7
HETATM    7  C   UNK N   1      30.122  17.198   8.987  0.00  0.00     0.273 C 
BRANCH   7   8
HETATM    8  C   UNK N   1      29.770  18.596   8.516  0.00  0.00     0.035 C 
BRANCH   8   9
HETATM    9  C   UNK N   1      28.265  18.707   8.347  0.00  0.00     0.040 C 
BRANCH   9  10
HETATM   10  C   UNK N   1      27.923  19.235   6.996  0.00  0.00    -0.058 A 
HETATM   11  C   UNK N   1      27.341  20.503   6.870  0.00  0.00     0.007 A 
HETATM   12  C   UNK N   1      27.032  21.009   5.605  0.00  0.00     0.001 A 
HETATM   13  C   UNK N   1      27.301  20.251   4.461  0.00  0.00     0.000 A 
HETATM   14  C   UNK N   1      27.884  18.986   4.582  0.00  0.00     0.001 A 
HETATM   15  C   UNK N   1      28.198  18.481   5.846  0.00  0.00     0.007 A 
ENDBRANCH   9  10
ENDBRANCH   8   9
ENDBRANCH   7   8
ENDBRANCH   1   7
BRANCH   6  16
HETATM   16  C   UNK N   1      31.757  16.598   4.478  0.00  0.00     0.173 C 
BRANCH  16  17
HETATM   17  O   UNK N   1      31.373  17.928   4.288  0.00  0.00    -0.400 OA
HETATM   18  H   UNK N   1      31.888  18.702   4.563  0.00  0.00     0.209 HD
ENDBRANCH  16  17
ENDBRANCH   6  16
BRANCH   4  19
HETATM   19  O   UNK N   1      34.464  18.540   7.954  0.00  0.00    -0.391 OA
HETATM   20  H   UNK N   1      34.811  18.268   8.818  0.00  0.00     0.210 HD
ENDBRANCH   4  19
BRANCH   5  21
HETATM   21  O   UNK N   1      34.161  17.561   5.324  0.00  0.00    -0.392 OA
HETATM   22  H   UNK N   1      33.813  18.161   4.646  0.00  0.00     0.210 HD
ENDBRANCH   5  21
TORSDOF 8
ENDMDL
MODEL 8
REMARK VINA RESULT:      -5.8      9.426     12.450
REMARK  8 active torsions:
REMARK  status: ('A' for Active; 'I' for Inactive)
REMARK    1  A    between atoms: C_6  and  C_7 
REMARK    2  A    between atoms: C_7  and  C_8 
REMARK    3  A    between atoms: C_8  and  C_9 
REMARK    4  A    between atoms: C_9  and  N_10 
REMARK    5  A    between atoms: C_13  and  O_14 
REMARK    6  A    between atoms: C_15  and  O_16 
REMARK    7  A    between atoms: C_17  and  C_18 
REMARK    8  A    between atoms: C_18  and  O_19 
ROOT
HETATM    1  N   UNK N   1      34.798  14.636   7.218  0.00  0.00     0.091 N 
HETATM    2  C   UNK N   1      35.120  15.681   8.195  0.00  0.00     0.281 C 
HETATM    3  C   UNK N   1      33.610  13.844   7.588  0.00  0.00     0.306 C 
HETATM    4  C   UNK N   1      33.095  14.104   9.010  0.00  0.00     0.175 C 
HETATM    5  C   UNK N   1      34.271  14.081   9.998  0.00  0.00     0.156 C 
HETATM    6  C   UNK N   1      35.408  15.066   9.570  0.00  0.00     0.069 C 
ENDROOT
BRANCH   1   7
HETATM    7  C   UNK N   1      34.505  15.289   5.954  0.00  0.00     0.273 C 
BRANCH   7   8
HETATM    8  C   UNK N   1      34.298  16.776   6.174  0.00  0.00     0.035 C 
BRANCH   8   9
HETATM    9  C   UNK N   1      33.036  17.221   5.457  0.00  0.00     0.040 C 
BRANCH   9  10
HETATM   10  C   UNK N   1      31.883  17.274   6.401  0.00  0.00    -0.058 A 
HETATM   11  C   UNK N   1      32.102  17.564   7.753  0.00  0.00     0.007 A 
HETATM   12  C   UNK N   1      31.025  17.630   8.640  0.00  0.00     0.001 A 
HETATM   13  C   UNK N   1      29.723  17.404   8.180  0.00  0.00     0.000 A 
HETATM   14  C   UNK N   1      29.500  17.116   6.830  0.00  0.00     0.001 A 
HETATM   15  C   UNK N   1      30.576  17.054   5.942  0.00  0.00     0.007 A 
ENDBRANCH   9  10
ENDBRANCH   8   9
ENDBRANCH   7   8
ENDBRANCH   1   7
BRANCH   6  16
HETATM   16  C   UNK N   1      35.657  16.204  10.558  0.00  0.00     0.173 C 
BRANCH  16  17
HETATM   17  O   UNK N   1      34.693  17.203  10.403  0.00  0.00    -0.400 OA
HETATM   18  H   UNK N   1      34.163  17.348   9.603  0.00  0.00     0.209 HD
ENDBRANCH  16  17
ENDBRANCH   6  16
BRANCH   4  19
HETATM   19  O   UNK N   1      32.158  13.125   9.349  0.00  0.00    -0.391 OA
HETATM   20  H   UNK N   1      32.283  12.550  10.120  0.00  0.00     0.210 HD
ENDBRANCH   4  19
BRANCH   5  21
HETATM   21  O   UNK N   1      33.805  14.345  11.290  0.00  0.00    -0.392 OA
HETATM   22  H   UNK N   1      34.334  14.592  12.064  0.00  0.00     0.210 HD
ENDBRANCH   5  21
TORSDOF 8
ENDMDL
MODEL 9
REMARK VINA RESULT:      -5.7      6.734      9.899
REMARK  8 active torsions:
REMARK  status: ('A' for Active; 'I' for Inactive)
REMARK    1  A    between atoms: C_6  and  C_7 
REMARK    2  A    between atoms: C_7  and  C_8 
REMARK    3  A    between atoms: C_8  and  C_9 
REMARK    4  A    between atoms: C_9  and  N_10 
REMARK    5  A    between atoms: C_13  and  O_14 
REMARK    6  A    between atoms: C_15  and  O_16 
REMARK    7  A    between atoms: C_17  and  C_18 
REMARK    8  A    between atoms: C_18  and  O_19 
ROOT
HETATM    1  N   UNK N   1      30.850  15.790   6.569  0.00  0.00     0.091 N 
HETATM    2  C   UNK N   1      32.234  16.118   6.214  0.00  0.00     0.281 C 
HETATM    3  C   UNK N   1      30.294  16.676   7.609  0.00  0.00     0.306 C 
HETATM    4  C   UNK N   1      31.327  17.597   8.274  0.00  0.00     0.175 C 
HETATM    5  C   UNK N   1      32.572  16.783   8.659  0.00  0.00     0.156 C 
HETATM    6  C   UNK N   1      33.150  15.996   7.437  0.00  0.00     0.069 C 
ENDROOT
BRANCH   1   7
HETATM    7  C   UNK N   1      30.036  15.959   5.378  0.00  0.00     0.273 C 
BRANCH   7   8
HETATM    8  C   UNK N   1      29.945  17.430   5.017  0.00  0.00     0.035 C 
BRANCH   8   9
HETATM    9  C   UNK N   1      28.649  17.686   4.268  0.00  0.00     0.040 C 
BRANCH   9  10
HETATM   10  C   UNK N   1      27.947  18.880   4.819  0.00  0.00    -0.058 A 
HETATM   11  C   UNK N   1      27.171  19.683   3.974  0.00  0.00     0.007 A 
HETATM   12  C   UNK N   1      26.498  20.795   4.487  0.00  0.00     0.001 A 
HETATM   13  C   UNK N   1      26.600  21.110   5.846  0.00  0.00     0.000 A 
HETATM   14  C   UNK N   1      27.372  20.309   6.694  0.00  0.00     0.001 A 
HETATM   15  C   UNK N   1      28.041  19.196   6.182  0.00  0.00     0.007 A 
ENDBRANCH   9  10
ENDBRANCH   8   9
ENDBRANCH   7   8
ENDBRANCH   1   7
BRANCH   6  16
HETATM   16  C   UNK N   1      34.556  16.425   7.024  0.00  0.00     0.173 C 
BRANCH  16  17
HETATM   17  O   UNK N   1      34.538  17.724   6.510  0.00  0.00    -0.400 OA
HETATM   18  H   UNK N   1      34.759  18.525   7.011  0.00  0.00     0.209 HD
ENDBRANCH  16  17
ENDBRANCH   6  16
BRANCH   4  19
HETATM   19  O   UNK N   1      30.761  18.183   9.408  0.00  0.00    -0.391 OA
HETATM   20  H   UNK N   1      30.403  19.084   9.387  0.00  0.00     0.210 HD
ENDBRANCH   4  19
BRANCH   5  21
HETATM   21  O   UNK N   1      33.523  17.627   9.239  0.00  0.00    -0.392 OA
HETATM   22  H   UNK N   1      33.962  18.387   8.825  0.00  0.00     0.210 HD
ENDBRANCH   5  21
TORSDOF 8
ENDMDL
