MODEL 1
REMARK VINA RESULT:      -6.1      0.000      0.000
REMARK  4 active torsions:
REMARK  status: ('A' for Active; 'I' for Inactive)
REMARK    1  A    between atoms: C_8  and  N_9 
REMARK       I    between atoms: N_9  and  C_10 
REMARK    2  A    between atoms: C_12  and  C_10 
REMARK    3  A    between atoms: C_13  and  C_15 
REMARK    4  A    between atoms: O_16  and  C_15 
ROOT
HETATM    1  N   UNK N   1      27.930  24.640  -3.499  0.00  0.00    -0.324 N 
HETATM    2  C   UNK N   1      29.236  24.574  -3.869  0.00  0.00     0.227 C 
HETATM    3  O   UNK N   1      29.622  25.101  -4.901  0.00  0.00    -0.273 OA
HETATM    4  H   UNK N   1      27.655  24.093  -2.728  0.00  0.00     0.169 HD
ENDROOT
BRANCH   1   5
HETATM    5  C   UNK N   1      26.923  25.432  -4.125  0.00  0.00     0.076 A 
HETATM    6  C   UNK N   1      26.199  24.994  -5.263  0.00  0.00     0.143 A 
HETATM    7  C   UNK N   1      25.254  25.835  -5.855  0.00  0.00     0.047 A 
HETATM    8  F   UNK N   1      26.434  23.788  -5.836  0.00  0.00    -0.204 F 
HETATM    9  C   UNK N   1      25.020  27.109  -5.338  0.00  0.00     0.045 A 
HETATM   10  C   UNK N   1      25.743  27.555  -4.231  0.00  0.00     0.118 A 
HETATM   11  F   UNK N   1      25.525  28.798  -3.739  0.00  0.00    -0.206 F 
HETATM   12  C   UNK N   1      26.693  26.722  -3.633  0.00  0.00     0.074 A 
ENDBRANCH   1   5
BRANCH   2  13
HETATM   13  C   UNK N   1      30.215  23.873  -2.968  0.00  0.00     0.093 A 
HETATM   14  C   UNK N   1      29.655  22.864  -1.990  0.00  0.00     0.031 A 
HETATM   15  C   UNK N   1      30.384  22.372  -3.233  0.00  0.00     0.097 A 
BRANCH  15  16
HETATM   16  C   UNK N   1      31.837  22.023  -3.157  0.00  0.00     0.144 C 
HETATM   17  O   UNK N   1      32.575  22.288  -4.094  0.00  0.00    -0.650 OA
BRANCH  16  18
HETATM   18  O   UNK N   1      32.330  21.394  -2.075  0.00  0.00    -0.776 OA
HETATM   19  H   UNK N   1      33.142  21.674  -1.700  0.00  0.00     0.167 HD
ENDBRANCH  16  18
ENDBRANCH  15  16
ENDBRANCH   2  13
TORSDOF 4
ENDMDL
MODEL 2
REMARK VINA RESULT:      -5.9     20.941     23.593
REMARK  4 active torsions:
REMARK  status: ('A' for Active; 'I' for Inactive)
REMARK    1  A    between atoms: C_8  and  N_9 
REMARK       I    between atoms: N_9  and  C_10 
REMARK    2  A    between atoms: C_12  and  C_10 
REMARK    3  A    between atoms: C_13  and  C_15 
REMARK    4  A    between atoms: O_16  and  C_15 
ROOT
HETATM    1  N   UNK N   1      36.497  13.016  14.653  0.00  0.00    -0.324 N 
HETATM    2  C   UNK N   1      35.656  13.223  13.606  0.00  0.00     0.227 C 
HETATM    3  O   UNK N   1      34.477  12.912  13.677  0.00  0.00    -0.273 OA
HETATM    4  H   UNK N   1      37.456  13.169  14.495  0.00  0.00     0.169 HD
ENDROOT
BRANCH   1   5
HETATM    5  C   UNK N   1      36.113  12.600  15.962  0.00  0.00     0.076 A 
HETATM    6  C   UNK N   1      36.141  11.244  16.375  0.00  0.00     0.143 A 
HETATM    7  C   UNK N   1      35.712  10.896  17.659  0.00  0.00     0.047 A 
HETATM    8  F   UNK N   1      36.524  10.251  15.536  0.00  0.00    -0.204 F 
HETATM    9  C   UNK N   1      35.251  11.876  18.538  0.00  0.00     0.045 A 
HETATM   10  C   UNK N   1      35.202  13.210  18.132  0.00  0.00     0.118 A 
HETATM   11  F   UNK N   1      34.740  14.158  18.983  0.00  0.00    -0.206 F 
HETATM   12  C   UNK N   1      35.625  13.567  16.849  0.00  0.00     0.074 A 
ENDBRANCH   1   5
BRANCH   2  13
HETATM   13  C   UNK N   1      36.189  13.880  12.362  0.00  0.00     0.093 A 
HETATM   14  C   UNK N   1      35.652  13.389  11.036  0.00  0.00     0.031 A 
HETATM   15  C   UNK N   1      35.171  14.725  11.585  0.00  0.00     0.097 A 
BRANCH  15  16
HETATM   16  C   UNK N   1      35.829  15.994  11.141  0.00  0.00     0.144 C 
HETATM   17  O   UNK N   1      35.179  17.027  11.085  0.00  0.00    -0.650 OA
BRANCH  16  18
HETATM   18  O   UNK N   1      37.123  15.998  10.777  0.00  0.00    -0.776 OA
HETATM   19  H   UNK N   1      37.730  16.567  11.209  0.00  0.00     0.167 HD
ENDBRANCH  16  18
ENDBRANCH  15  16
ENDBRANCH   2  13
TORSDOF 4
ENDMDL
MODEL 3
REMARK VINA RESULT:      -5.9     17.313     20.229
REMARK  4 active torsions:
REMARK  status: ('A' for Active; 'I' for Inactive)
REMARK    1  A    between atoms: C_8  and  N_9 
REMARK       I    between atoms: N_9  and  C_10 
REMARK    2  A    between atoms: C_12  and  C_10 
REMARK    3  A    between atoms: C_13  and  C_15 
REMARK    4  A    between atoms: O_16  and  C_15 
ROOT
HETATM    1  N   UNK N   1      35.379  14.378  10.804  0.00  0.00    -0.324 N 
HETATM    2  C   UNK N   1      35.852  15.543  10.287  0.00  0.00     0.227 C 
HETATM    3  O   UNK N   1      36.758  16.150  10.837  0.00  0.00    -0.273 OA
HETATM    4  H   UNK N   1      34.569  14.001  10.390  0.00  0.00     0.169 HD
ENDROOT
BRANCH   1   5
HETATM    5  C   UNK N   1      35.951  13.653  11.890  0.00  0.00     0.076 A 
HETATM    6  C   UNK N   1      36.997  12.711  11.718  0.00  0.00     0.143 A 
HETATM    7  C   UNK N   1      37.486  12.003  12.818  0.00  0.00     0.047 A 
HETATM    8  F   UNK N   1      37.511  12.432  10.495  0.00  0.00    -0.204 F 
HETATM    9  C   UNK N   1      36.948  12.211  14.088  0.00  0.00     0.045 A 
HETATM   10  C   UNK N   1      35.906  13.122  14.262  0.00  0.00     0.118 A 
HETATM   11  F   UNK N   1      35.374  13.312  15.494  0.00  0.00    -0.206 F 
HETATM   12  C   UNK N   1      35.407  13.833  13.167  0.00  0.00     0.074 A 
ENDBRANCH   1   5
BRANCH   2  13
HETATM   13  C   UNK N   1      35.271  16.058   8.999  0.00  0.00     0.093 A 
HETATM   14  C   UNK N   1      33.792  15.838   8.770  0.00  0.00     0.031 A 
HETATM   15  C   UNK N   1      34.288  17.226   9.150  0.00  0.00     0.097 A 
BRANCH  15  16
HETATM   16  C   UNK N   1      34.566  18.238   8.082  0.00  0.00     0.144 C 
HETATM   17  O   UNK N   1      35.089  19.302   8.374  0.00  0.00    -0.650 OA
BRANCH  16  18
HETATM   18  O   UNK N   1      34.215  17.993   6.806  0.00  0.00    -0.776 OA
HETATM   19  H   UNK N   1      33.881  18.686   6.271  0.00  0.00     0.167 HD
ENDBRANCH  16  18
ENDBRANCH  15  16
ENDBRANCH   2  13
TORSDOF 4
ENDMDL
MODEL 4
REMARK VINA RESULT:      -5.7     16.906     18.733
REMARK  4 active torsions:
REMARK  status: ('A' for Active; 'I' for Inactive)
REMARK    1  A    between atoms: C_8  and  N_9 
REMARK       I    between atoms: N_9  and  C_10 
REMARK    2  A    between atoms: C_12  and  C_10 
REMARK    3  A    between atoms: C_13  and  C_15 
REMARK    4  A    between atoms: O_16  and  C_15 
ROOT
HETATM    1  N   UNK N   1      21.681  14.498   8.281  0.00  0.00    -0.324 N 
HETATM    2  C   UNK N   1      21.426  14.079   7.014  0.00  0.00     0.227 C 
HETATM    3  O   UNK N   1      21.572  12.908   6.699  0.00  0.00    -0.273 OA
HETATM    4  H   UNK N   1      21.668  15.468   8.445  0.00  0.00     0.169 HD
ENDROOT
BRANCH   1   5
HETATM    5  C   UNK N   1      21.964  13.656   9.398  0.00  0.00     0.076 A 
HETATM    6  C   UNK N   1      23.275  13.220   9.717  0.00  0.00     0.143 A 
HETATM    7  C   UNK N   1      23.480  12.361  10.800  0.00  0.00     0.047 A 
HETATM    8  F   UNK N   1      24.346  13.570   8.964  0.00  0.00    -0.204 F 
HETATM    9  C   UNK N   1      22.401  11.924  11.569  0.00  0.00     0.045 A 
HETATM   10  C   UNK N   1      21.107  12.333  11.248  0.00  0.00     0.118 A 
HETATM   11  F   UNK N   1      20.059  11.895  11.987  0.00  0.00    -0.206 F 
HETATM   12  C   UNK N   1      20.890  13.189  10.165  0.00  0.00     0.074 A 
ENDBRANCH   1   5
BRANCH   2  13
HETATM   13  C   UNK N   1      20.921  15.074   6.005  0.00  0.00     0.093 A 
HETATM   14  C   UNK N   1      21.035  14.697   4.545  0.00  0.00     0.031 A 
HETATM   15  C   UNK N   1      19.675  14.636   5.226  0.00  0.00     0.097 A 
BRANCH  15  16
HETATM   16  C   UNK N   1      18.734  15.796   5.120  0.00  0.00     0.144 C 
HETATM   17  O   UNK N   1      17.805  15.898   5.907  0.00  0.00    -0.650 OA
BRANCH  16  18
HETATM   18  O   UNK N   1      18.888  16.710   4.145  0.00  0.00    -0.776 OA
HETATM   19  H   UNK N   1      19.446  16.526   3.415  0.00  0.00     0.167 HD
ENDBRANCH  16  18
ENDBRANCH  15  16
ENDBRANCH   2  13
TORSDOF 4
ENDMDL
MODEL 5
REMARK VINA RESULT:      -5.7     10.841     12.302
REMARK  4 active torsions:
REMARK  status: ('A' for Active; 'I' for Inactive)
REMARK    1  A    between atoms: C_8  and  N_9 
REMARK       I    between atoms: N_9  and  C_10 
REMARK    2  A    between atoms: C_12  and  C_10 
REMARK    3  A    between atoms: C_13  and  C_15 
REMARK    4  A    between atoms: O_16  and  C_15 
ROOT
HETATM    1  N   UNK N   1      23.917  19.521   3.559  0.00  0.00    -0.324 N 
HETATM    2  C   UNK N   1      22.886  18.949   4.234  0.00  0.00     0.227 C 
HETATM    3  O   UNK N   1      23.092  18.197   5.174  0.00  0.00    -0.273 OA
HETATM    4  H   UNK N   1      23.696  20.015   2.736  0.00  0.00     0.169 HD
ENDROOT
BRANCH   1   5
HETATM    5  C   UNK N   1      25.292  19.472   3.937  0.00  0.00     0.076 A 
HETATM    6  C   UNK N   1      26.141  18.387   3.602  0.00  0.00     0.143 A 
HETATM    7  C   UNK N   1      27.468  18.379   4.038  0.00  0.00     0.047 A 
HETATM    8  F   UNK N   1      25.688  17.314   2.907  0.00  0.00    -0.204 F 
HETATM    9  C   UNK N   1      27.965  19.432   4.807  0.00  0.00     0.045 A 
HETATM   10  C   UNK N   1      27.130  20.493   5.157  0.00  0.00     0.118 A 
HETATM   11  F   UNK N   1      27.609  21.507   5.917  0.00  0.00    -0.206 F 
HETATM   12  C   UNK N   1      25.799  20.508   4.729  0.00  0.00     0.074 A 
ENDBRANCH   1   5
BRANCH   2  13
HETATM   13  C   UNK N   1      21.476  19.286   3.833  0.00  0.00     0.093 A 
HETATM   14  C   UNK N   1      21.271  19.869   2.452  0.00  0.00     0.031 A 
HETATM   15  C   UNK N   1      20.893  18.417   2.711  0.00  0.00     0.097 A 
BRANCH  15  16
HETATM   16  C   UNK N   1      19.480  18.063   3.053  0.00  0.00     0.144 C 
HETATM   17  O   UNK N   1      19.255  17.181   3.868  0.00  0.00    -0.650 OA
BRANCH  16  18
HETATM   18  O   UNK N   1      18.456  18.690   2.447  0.00  0.00    -0.776 OA
HETATM   19  H   UNK N   1      18.496  18.873   1.529  0.00  0.00     0.167 HD
ENDBRANCH  16  18
ENDBRANCH  15  16
ENDBRANCH   2  13
TORSDOF 4
ENDMDL
MODEL 6
REMARK VINA RESULT:      -5.7     10.115     11.761
REMARK  4 active torsions:
REMARK  status: ('A' for Active; 'I' for Inactive)
REMARK    1  A    between atoms: C_8  and  N_9 
REMARK       I    between atoms: N_9  and  C_10 
REMARK    2  A    between atoms: C_12  and  C_10 
REMARK    3  A    between atoms: C_13  and  C_15 
REMARK    4  A    between atoms: O_16  and  C_15 
ROOT
HETATM    1  N   UNK N   1      26.428  18.328   5.705  0.00  0.00    -0.324 N 
HETATM    2  C   UNK N   1      27.390  17.378   5.567  0.00  0.00     0.227 C 
HETATM    3  O   UNK N   1      27.726  16.982   4.461  0.00  0.00    -0.273 OA
HETATM    4  H   UNK N   1      26.111  18.516   6.618  0.00  0.00     0.169 HD
ENDROOT
BRANCH   1   5
HETATM    5  C   UNK N   1      25.838  19.079   4.646  0.00  0.00     0.076 A 
HETATM    6  C   UNK N   1      26.579  19.980   3.838  0.00  0.00     0.143 A 
HETATM    7  C   UNK N   1      25.933  20.717   2.843  0.00  0.00     0.047 A 
HETATM    8  F   UNK N   1      27.902  20.192   4.038  0.00  0.00    -0.204 F 
HETATM    9  C   UNK N   1      24.560  20.578   2.640  0.00  0.00     0.045 A 
HETATM   10  C   UNK N   1      23.821  19.708   3.443  0.00  0.00     0.118 A 
HETATM   11  F   UNK N   1      22.485  19.586   3.254  0.00  0.00    -0.206 F 
HETATM   12  C   UNK N   1      24.457  18.969   4.444  0.00  0.00     0.074 A 
ENDBRANCH   1   5
BRANCH   2  13
HETATM   13  C   UNK N   1      28.070  16.844   6.798  0.00  0.00     0.093 A 
HETATM   14  C   UNK N   1      29.580  16.758   6.773  0.00  0.00     0.031 A 
HETATM   15  C   UNK N   1      28.910  17.866   7.573  0.00  0.00     0.097 A 
BRANCH  15  16
HETATM   16  C   UNK N   1      28.667  17.686   9.039  0.00  0.00     0.144 C 
HETATM   17  O   UNK N   1      29.523  17.165   9.737  0.00  0.00    -0.650 OA
BRANCH  16  18
HETATM   18  O   UNK N   1      27.499  18.069   9.587  0.00  0.00    -0.776 OA
HETATM   19  H   UNK N   1      27.270  17.783  10.449  0.00  0.00     0.167 HD
ENDBRANCH  16  18
ENDBRANCH  15  16
ENDBRANCH   2  13
TORSDOF 4
ENDMDL
MODEL 7
REMARK VINA RESULT:      -5.6     17.272     20.240
REMARK  4 active torsions:
REMARK  status: ('A' for Active; 'I' for Inactive)
REMARK    1  A    between atoms: C_8  and  N_9 
REMARK       I    between atoms: N_9  and  C_10 
REMARK    2  A    between atoms: C_12  and  C_10 
REMARK    3  A    between atoms: C_13  and  C_15 
REMARK    4  A    between atoms: O_16  and  C_15 
ROOT
HETATM    1  N   UNK N   1      34.981  14.545  10.953  0.00  0.00    -0.324 N 
HETATM    2  C   UNK N   1      35.773  15.262  10.113  0.00  0.00     0.227 C 
HETATM    3  O   UNK N   1      36.978  15.336  10.297  0.00  0.00    -0.273 OA
HETATM    4  H   UNK N   1      34.008  14.625  10.830  0.00  0.00     0.169 HD
ENDROOT
BRANCH   1   5
HETATM    5  C   UNK N   1      35.435  13.686  11.998  0.00  0.00     0.076 A 
HETATM    6  C   UNK N   1      36.045  14.174  13.182  0.00  0.00     0.143 A 
HETATM    7  C   UNK N   1      36.506  13.277  14.149  0.00  0.00     0.047 A 
HETATM    8  F   UNK N   1      36.248  15.498  13.386  0.00  0.00    -0.204 F 
HETATM    9  C   UNK N   1      36.375  11.901  13.956  0.00  0.00     0.045 A 
HETATM   10  C   UNK N   1      35.793  11.414  12.785  0.00  0.00     0.118 A 
HETATM   11  F   UNK N   1      35.681  10.078  12.593  0.00  0.00    -0.206 F 
HETATM   12  C   UNK N   1      35.333  12.303  11.810  0.00  0.00     0.074 A 
ENDBRANCH   1   5
BRANCH   2  13
HETATM   13  C   UNK N   1      35.149  15.937   8.922  0.00  0.00     0.093 A 
HETATM   14  C   UNK N   1      33.638  15.933   8.838  0.00  0.00     0.031 A 
HETATM   15  C   UNK N   1      34.358  17.213   9.237  0.00  0.00     0.097 A 
BRANCH  15  16
HETATM   16  C   UNK N   1      34.671  18.248   8.201  0.00  0.00     0.144 C 
HETATM   17  O   UNK N   1      34.325  18.071   7.043  0.00  0.00    -0.650 OA
BRANCH  16  18
HETATM   18  O   UNK N   1      35.354  19.357   8.534  0.00  0.00    -0.776 OA
HETATM   19  H   UNK N   1      35.478  19.579   9.436  0.00  0.00     0.167 HD
ENDBRANCH  16  18
ENDBRANCH  15  16
ENDBRANCH   2  13
TORSDOF 4
ENDMDL
MODEL 8
REMARK VINA RESULT:      -5.6     13.671     15.176
REMARK  4 active torsions:
REMARK  status: ('A' for Active; 'I' for Inactive)
REMARK    1  A    between atoms: C_8  and  N_9 
REMARK       I    between atoms: N_9  and  C_10 
REMARK    2  A    between atoms: C_12  and  C_10 
REMARK    3  A    between atoms: C_13  and  C_15 
REMARK    4  A    between atoms: O_16  and  C_15 
ROOT
HETATM    1  N   UNK N   1      20.380  17.161   5.234  0.00  0.00    -0.324 N 
HETATM    2  C   UNK N   1      21.379  17.967   4.785  0.00  0.00     0.227 C 
HETATM    3  O   UNK N   1      22.369  18.179   5.469  0.00  0.00    -0.273 OA
HETATM    4  H   UNK N   1      19.556  17.128   4.697  0.00  0.00     0.169 HD
ENDROOT
BRANCH   1   5
HETATM    5  C   UNK N   1      20.422  16.357   6.411  0.00  0.00     0.076 A 
HETATM    6  C   UNK N   1      20.340  16.904   7.717  0.00  0.00     0.143 A 
HETATM    7  C   UNK N   1      20.429  16.066   8.831  0.00  0.00     0.047 A 
HETATM    8  F   UNK N   1      20.230  18.239   7.925  0.00  0.00    -0.204 F 
HETATM    9  C   UNK N   1      20.603  14.691   8.668  0.00  0.00     0.045 A 
HETATM   10  C   UNK N   1      20.704  14.149   7.387  0.00  0.00     0.118 A 
HETATM   11  F   UNK N   1      20.889  12.815   7.231  0.00  0.00    -0.206 F 
HETATM   12  C   UNK N   1      20.620  14.979   6.266  0.00  0.00     0.074 A 
ENDBRANCH   1   5
BRANCH   2  13
HETATM   13  C   UNK N   1      21.268  18.569   3.411  0.00  0.00     0.093 A 
HETATM   14  C   UNK N   1      19.881  18.693   2.820  0.00  0.00     0.031 A 
HETATM   15  C   UNK N   1      20.577  19.937   3.353  0.00  0.00     0.097 A 
BRANCH  15  16
HETATM   16  C   UNK N   1      21.336  20.827   2.418  0.00  0.00     0.144 C 
HETATM   17  O   UNK N   1      21.174  20.719   1.212  0.00  0.00    -0.650 OA
BRANCH  16  18
HETATM   18  O   UNK N   1      22.216  21.724   2.897  0.00  0.00    -0.776 OA
HETATM   19  H   UNK N   1      22.166  21.998   3.792  0.00  0.00     0.167 HD
ENDBRANCH  16  18
ENDBRANCH  15  16
ENDBRANCH   2  13
TORSDOF 4
ENDMDL
MODEL 9
REMARK VINA RESULT:      -5.4     10.820     11.323
REMARK  4 active torsions:
REMARK  status: ('A' for Active; 'I' for Inactive)
REMARK    1  A    between atoms: C_8  and  N_9 
REMARK       I    between atoms: N_9  and  C_10 
REMARK    2  A    between atoms: C_12  and  C_10 
REMARK    3  A    between atoms: C_13  and  C_15 
REMARK    4  A    between atoms: O_16  and  C_15 
ROOT
HETATM    1  N   UNK N   1      29.665  18.090   4.580  0.00  0.00    -0.324 N 
HETATM    2  C   UNK N   1      30.190  17.286   5.542  0.00  0.00     0.227 C 
HETATM    3  O   UNK N   1      29.572  17.049   6.568  0.00  0.00    -0.273 OA
HETATM    4  H   UNK N   1      30.257  18.345   3.836  0.00  0.00     0.169 HD
ENDROOT
BRANCH   1   5
HETATM    5  C   UNK N   1      28.331  18.595   4.551  0.00  0.00     0.076 A 
HETATM    6  C   UNK N   1      27.263  17.905   3.923  0.00  0.00     0.143 A 
HETATM    7  C   UNK N   1      25.987  18.473   3.893  0.00  0.00     0.047 A 
HETATM    8  F   UNK N   1      27.452  16.720   3.293  0.00  0.00    -0.204 F 
HETATM    9  C   UNK N   1      25.756  19.721   4.474  0.00  0.00     0.045 A 
HETATM   10  C   UNK N   1      26.806  20.413   5.078  0.00  0.00     0.118 A 
HETATM   11  F   UNK N   1      26.583  21.631   5.628  0.00  0.00    -0.206 F 
HETATM   12  C   UNK N   1      28.087  19.855   5.109  0.00  0.00     0.074 A 
ENDBRANCH   1   5
BRANCH   2  13
HETATM   13  C   UNK N   1      31.536  16.655   5.309  0.00  0.00     0.093 A 
HETATM   14  C   UNK N   1      32.106  16.738   3.910  0.00  0.00     0.031 A 
HETATM   15  C   UNK N   1      32.671  17.638   4.999  0.00  0.00     0.097 A 
BRANCH  15  16
HETATM   16  C   UNK N   1      33.896  17.222   5.751  0.00  0.00     0.144 C 
HETATM   17  O   UNK N   1      34.301  17.905   6.679  0.00  0.00    -0.650 OA
BRANCH  16  18
HETATM   18  O   UNK N   1      34.570  16.114   5.393  0.00  0.00    -0.776 OA
HETATM   19  H   UNK N   1      34.460  15.321   5.879  0.00  0.00     0.167 HD
ENDBRANCH  16  18
ENDBRANCH  15  16
ENDBRANCH   2  13
TORSDOF 4
ENDMDL
