MODEL 1
REMARK VINA RESULT:      -8.0      0.000      0.000
REMARK  7 active torsions:
REMARK  status: ('A' for Active; 'I' for Inactive)
REMARK    1  A    between atoms: C_6  and  C_8 
REMARK    2  A    between atoms: C_8  and  C_10 
REMARK    3  A    between atoms: C_15  and  N_16 
REMARK    4  A    between atoms: N_16  and  C_17 
REMARK    5  A    between atoms: C_17  and  C_18 
REMARK    6  A    between atoms: C_21  and  C_24 
REMARK    7  A    between atoms: C_24  and  N_25 
ROOT
HETATM    1  C   UNK N   1      35.997  15.408  10.434  0.00  0.00     0.020 A 
HETATM    2  C   UNK N   1      36.895  14.577   9.749  0.00  0.00     0.032 A 
HETATM    3  C   UNK N   1      37.571  13.563  10.453  0.00  0.00     0.090 A 
HETATM    4  N   UNK N   1      37.358  13.387  11.792  0.00  0.00    -0.353 N 
ATOM      5  HN  UNK N   1      37.856  12.648  12.288  1.00  0.00     0.166 HD
HETATM    6  C   UNK N   1      36.491  14.187  12.471  0.00  0.00     0.101 A 
HETATM    7  C   UNK N   1      35.812  15.195  11.791  0.00  0.00     0.063 A 
ENDROOT
BRANCH   6   8
HETATM    8  N   UNK N   1      36.262  14.019  13.865  0.00  0.00    -0.372 N 
HETATM    9  H   UNK N   1      36.407  14.755  14.502  0.00  0.00     0.161 HD
BRANCH   8  10
HETATM   10  C   UNK N   1      35.806  12.718  14.308  0.00  0.00     0.159 C 
BRANCH  10  11
HETATM   11  C   UNK N   1      35.653  12.498  15.769  0.00  0.00    -0.041 A 
HETATM   12  C   UNK N   1      35.848  11.261  16.397  0.00  0.00     0.010 A 
HETATM   13  C   UNK N   1      35.677  11.156  17.787  0.00  0.00     0.016 A 
HETATM   14  C   UNK N   1      35.309  12.284  18.545  0.00  0.00     0.007 A 
HETATM   15  C   UNK N   1      35.118  13.509  17.901  0.00  0.00     0.016 A 
HETATM   16  C   UNK N   1      35.289  13.612  16.526  0.00  0.00     0.010 A 
BRANCH  14  17
HETATM   17  C   UNK N   1      35.125  12.190  20.008  0.00  0.00     0.102 C 
HETATM   18  N   UNK N   1      34.534  13.134  20.649  0.00  0.00    -0.385 N 
HETATM   19  H   UNK N   1      34.189  13.917  20.163  0.00  0.00     0.157 HD
ATOM     20  HN  UNK N   1      34.422  13.072  21.660  1.00  0.00     0.157 HD
BRANCH  17  21
HETATM   21  N   UNK N   1      35.596  11.063  20.717  0.00  0.00    -0.385 N 
HETATM   22  H   UNK N   1      35.828  10.238  20.233  0.00  0.00     0.157 HD
HETATM   23  H   UNK N   1      35.692  11.103  21.696  0.00  0.00     0.157 HD
ENDBRANCH  17  21
ENDBRANCH  14  17
ENDBRANCH  10  11
ENDBRANCH   8  10
ENDBRANCH   6   8
BRANCH   1  24
HETATM   24  C   UNK N   1      35.215  16.519   9.811  0.00  0.00     0.192 C 
HETATM   25  O   UNK N   1      35.438  17.657  10.203  0.00  0.00    -0.287 OA
BRANCH  24  26
HETATM   26  C   UNK N   1      34.189  16.347   8.750  0.00  0.00     0.015 A 
HETATM   27  C   UNK N   1      33.114  15.473   8.992  0.00  0.00     0.015 A 
HETATM   28  C   UNK N   1      32.122  15.279   8.032  0.00  0.00     0.002 A 
HETATM   29  C   UNK N   1      32.192  15.957   6.815  0.00  0.00     0.007 A 
HETATM   30  C   UNK N   1      33.255  16.828   6.561  0.00  0.00    -0.061 A 
HETATM   31  C   UNK N   1      33.324  17.548   5.264  0.00  0.00     0.048 C 
HETATM   32  C   UNK N   1      34.251  17.024   7.524  0.00  0.00     0.022 A 
ENDBRANCH  24  26
ENDBRANCH   1  24
TORSDOF 7
ENDMDL
MODEL 2
REMARK VINA RESULT:      -7.8      3.716      9.927
REMARK  7 active torsions:
REMARK  status: ('A' for Active; 'I' for Inactive)
REMARK    1  A    between atoms: C_6  and  C_8 
REMARK    2  A    between atoms: C_8  and  C_10 
REMARK    3  A    between atoms: C_15  and  N_16 
REMARK    4  A    between atoms: N_16  and  C_17 
REMARK    5  A    between atoms: C_17  and  C_18 
REMARK    6  A    between atoms: C_21  and  C_24 
REMARK    7  A    between atoms: C_24  and  N_25 
ROOT
HETATM    1  C   UNK N   1      36.158  14.343  12.280  0.00  0.00     0.020 A 
HETATM    2  C   UNK N   1      36.884  13.658  11.296  0.00  0.00     0.032 A 
HETATM    3  C   UNK N   1      36.777  14.064   9.953  0.00  0.00     0.090 A 
HETATM    4  N   UNK N   1      35.973  15.113   9.606  0.00  0.00    -0.353 N 
ATOM      5  HN  UNK N   1      35.906  15.395   8.628  1.00  0.00     0.166 HD
HETATM    6  C   UNK N   1      35.260  15.787  10.550  0.00  0.00     0.101 A 
HETATM    7  C   UNK N   1      35.354  15.401  11.885  0.00  0.00     0.063 A 
ENDROOT
BRANCH   6   8
HETATM    8  N   UNK N   1      34.416  16.879  10.205  0.00  0.00    -0.372 N 
HETATM    9  H   UNK N   1      33.692  17.177  10.801  0.00  0.00     0.161 HD
BRANCH   8  10
HETATM   10  C   UNK N   1      34.667  17.533   8.938  0.00  0.00     0.159 C 
BRANCH  10  11
HETATM   11  C   UNK N   1      33.623  17.432   7.886  0.00  0.00    -0.041 A 
HETATM   12  C   UNK N   1      33.898  17.406   6.512  0.00  0.00     0.010 A 
HETATM   13  C   UNK N   1      32.838  17.309   5.596  0.00  0.00     0.016 A 
HETATM   14  C   UNK N   1      31.508  17.240   6.053  0.00  0.00     0.007 A 
HETATM   15  C   UNK N   1      31.253  17.269   7.427  0.00  0.00     0.016 A 
HETATM   16  C   UNK N   1      32.304  17.363   8.332  0.00  0.00     0.010 A 
BRANCH  14  17
HETATM   17  C   UNK N   1      30.381  17.139   5.102  0.00  0.00     0.102 C 
HETATM   18  N   UNK N   1      29.184  16.962   5.533  0.00  0.00    -0.385 N 
HETATM   19  H   UNK N   1      29.012  16.909   6.500  0.00  0.00     0.157 HD
ATOM     20  HN  UNK N   1      28.412  16.878   4.872  1.00  0.00     0.157 HD
BRANCH  17  21
HETATM   21  N   UNK N   1      30.609  17.235   3.712  0.00  0.00    -0.385 N 
HETATM   22  H   UNK N   1      31.023  18.044   3.334  0.00  0.00     0.157 HD
HETATM   23  H   UNK N   1      30.354  16.491   3.119  0.00  0.00     0.157 HD
ENDBRANCH  17  21
ENDBRANCH  14  17
ENDBRANCH  10  11
ENDBRANCH   8  10
ENDBRANCH   6   8
BRANCH   1  24
HETATM   24  C   UNK N   1      36.179  14.019  13.739  0.00  0.00     0.192 C 
HETATM   25  O   UNK N   1      36.775  14.789  14.481  0.00  0.00    -0.287 OA
BRANCH  24  26
HETATM   26  C   UNK N   1      35.529  12.835  14.358  0.00  0.00     0.015 A 
HETATM   27  C   UNK N   1      34.649  12.068  13.575  0.00  0.00     0.015 A 
HETATM   28  C   UNK N   1      34.015  10.945  14.105  0.00  0.00     0.002 A 
HETATM   29  C   UNK N   1      34.254  10.574  15.428  0.00  0.00     0.007 A 
HETATM   30  C   UNK N   1      35.126  11.327  16.218  0.00  0.00    -0.061 A 
HETATM   31  C   UNK N   1      35.377  10.927  17.626  0.00  0.00     0.048 C 
HETATM   32  C   UNK N   1      35.763  12.455  15.687  0.00  0.00     0.022 A 
ENDBRANCH  24  26
ENDBRANCH   1  24
TORSDOF 7
ENDMDL
MODEL 3
REMARK VINA RESULT:      -7.6     12.453     14.556
REMARK  7 active torsions:
REMARK  status: ('A' for Active; 'I' for Inactive)
REMARK    1  A    between atoms: C_6  and  C_8 
REMARK    2  A    between atoms: C_8  and  C_10 
REMARK    3  A    between atoms: C_15  and  N_16 
REMARK    4  A    between atoms: N_16  and  C_17 
REMARK    5  A    between atoms: C_17  and  C_18 
REMARK    6  A    between atoms: C_21  and  C_24 
REMARK    7  A    between atoms: C_24  and  N_25 
ROOT
HETATM    1  C   UNK N   1      22.723  19.064   3.803  0.00  0.00     0.020 A 
HETATM    2  C   UNK N   1      21.470  19.057   3.173  0.00  0.00     0.032 A 
HETATM    3  C   UNK N   1      20.463  18.197   3.648  0.00  0.00     0.090 A 
HETATM    4  N   UNK N   1      20.700  17.372   4.712  0.00  0.00    -0.353 N 
ATOM      5  HN  UNK N   1      19.960  16.754   5.045  1.00  0.00     0.166 HD
HETATM    6  C   UNK N   1      21.911  17.365   5.334  0.00  0.00     0.101 A 
HETATM    7  C   UNK N   1      22.919  18.211   4.878  0.00  0.00     0.063 A 
ENDROOT
BRANCH   6   8
HETATM    8  N   UNK N   1      22.174  16.510   6.440  0.00  0.00    -0.372 N 
HETATM    9  H   UNK N   1      22.703  16.816   7.212  0.00  0.00     0.161 HD
BRANCH   8  10
HETATM   10  C   UNK N   1      21.631  15.170   6.383  0.00  0.00     0.159 C 
BRANCH  10  11
HETATM   11  C   UNK N   1      21.686  14.346   7.618  0.00  0.00    -0.041 A 
HETATM   12  C   UNK N   1      22.642  13.348   7.849  0.00  0.00     0.010 A 
HETATM   13  C   UNK N   1      22.608  12.623   9.052  0.00  0.00     0.016 A 
HETATM   14  C   UNK N   1      21.620  12.894  10.018  0.00  0.00     0.007 A 
HETATM   15  C   UNK N   1      20.675  13.893   9.769  0.00  0.00     0.016 A 
HETATM   16  C   UNK N   1      20.711  14.610   8.579  0.00  0.00     0.010 A 
BRANCH  14  17
HETATM   17  C   UNK N   1      21.571  12.140  11.288  0.00  0.00     0.102 C 
HETATM   18  N   UNK N   1      22.653  11.704  11.825  0.00  0.00    -0.385 N 
HETATM   19  H   UNK N   1      23.521  11.885  11.398  0.00  0.00     0.157 HD
ATOM     20  HN  UNK N   1      22.613  11.171  12.693  1.00  0.00     0.157 HD
BRANCH  17  21
HETATM   21  N   UNK N   1      20.334  11.891  11.923  0.00  0.00    -0.385 N 
HETATM   22  H   UNK N   1      20.303  11.718  12.891  0.00  0.00     0.157 HD
HETATM   23  H   UNK N   1      19.502  11.892  11.397  0.00  0.00     0.157 HD
ENDBRANCH  17  21
ENDBRANCH  14  17
ENDBRANCH  10  11
ENDBRANCH   8  10
ENDBRANCH   6   8
BRANCH   1  24
HETATM   24  C   UNK N   1      23.877  19.925   3.403  0.00  0.00     0.192 C 
HETATM   25  O   UNK N   1      23.670  20.795   2.567  0.00  0.00    -0.287 OA
BRANCH  24  26
HETATM   26  C   UNK N   1      25.255  19.808   3.946  0.00  0.00     0.015 A 
HETATM   27  C   UNK N   1      26.071  18.762   3.482  0.00  0.00     0.015 A 
HETATM   28  C   UNK N   1      27.374  18.608   3.955  0.00  0.00     0.002 A 
HETATM   29  C   UNK N   1      27.877  19.502   4.900  0.00  0.00     0.007 A 
HETATM   30  C   UNK N   1      27.078  20.547   5.370  0.00  0.00    -0.061 A 
HETATM   31  C   UNK N   1      27.619  21.495   6.376  0.00  0.00     0.048 C 
HETATM   32  C   UNK N   1      25.769  20.701   4.896  0.00  0.00     0.022 A 
ENDBRANCH  24  26
ENDBRANCH   1  24
TORSDOF 7
ENDMDL
MODEL 4
REMARK VINA RESULT:      -7.5      7.893     11.519
REMARK  7 active torsions:
REMARK  status: ('A' for Active; 'I' for Inactive)
REMARK    1  A    between atoms: C_6  and  C_8 
REMARK    2  A    between atoms: C_8  and  C_10 
REMARK    3  A    between atoms: C_15  and  N_16 
REMARK    4  A    between atoms: N_16  and  C_17 
REMARK    5  A    between atoms: C_17  and  C_18 
REMARK    6  A    between atoms: C_21  and  C_24 
REMARK    7  A    between atoms: C_24  and  N_25 
ROOT
HETATM    1  C   UNK N   1      26.803  16.485   3.207  0.00  0.00     0.020 A 
HETATM    2  C   UNK N   1      26.205  15.426   2.510  0.00  0.00     0.032 A 
HETATM    3  C   UNK N   1      27.011  14.391   2.002  0.00  0.00     0.090 A 
HETATM    4  N   UNK N   1      28.367  14.416   2.180  0.00  0.00    -0.353 N 
ATOM      5  HN  UNK N   1      28.938  13.658   1.805  1.00  0.00     0.166 HD
HETATM    6  C   UNK N   1      28.963  15.439   2.852  0.00  0.00     0.101 A 
HETATM    7  C   UNK N   1      28.180  16.470   3.364  0.00  0.00     0.063 A 
ENDROOT
BRANCH   6   8
HETATM    8  N   UNK N   1      30.372  15.480   3.043  0.00  0.00    -0.372 N 
HETATM    9  H   UNK N   1      30.914  14.659   3.055  0.00  0.00     0.161 HD
BRANCH   8  10
HETATM   10  C   UNK N   1      30.977  16.784   3.218  0.00  0.00     0.159 C 
BRANCH  10  11
HETATM   11  C   UNK N   1      31.733  17.035   4.472  0.00  0.00    -0.041 A 
HETATM   12  C   UNK N   1      33.110  17.289   4.516  0.00  0.00     0.010 A 
HETATM   13  C   UNK N   1      33.733  17.512   5.755  0.00  0.00     0.016 A 
HETATM   14  C   UNK N   1      32.981  17.478   6.945  0.00  0.00     0.007 A 
HETATM   15  C   UNK N   1      31.609  17.222   6.881  0.00  0.00     0.016 A 
HETATM   16  C   UNK N   1      30.994  17.003   5.654  0.00  0.00     0.010 A 
BRANCH  14  17
HETATM   17  C   UNK N   1      33.621  17.710   8.257  0.00  0.00     0.102 C 
HETATM   18  N   UNK N   1      34.555  18.584   8.376  0.00  0.00    -0.385 N 
HETATM   19  H   UNK N   1      34.837  19.112   7.595  0.00  0.00     0.157 HD
ATOM     20  HN  UNK N   1      35.004  18.730   9.279  1.00  0.00     0.157 HD
BRANCH  17  21
HETATM   21  N   UNK N   1      33.212  16.975   9.391  0.00  0.00    -0.385 N 
HETATM   22  H   UNK N   1      32.306  17.094   9.756  0.00  0.00     0.157 HD
HETATM   23  H   UNK N   1      33.835  16.343   9.817  0.00  0.00     0.157 HD
ENDBRANCH  17  21
ENDBRANCH  14  17
ENDBRANCH  10  11
ENDBRANCH   8  10
ENDBRANCH   6   8
BRANCH   1  24
HETATM   24  C   UNK N   1      26.068  17.644   3.798  0.00  0.00     0.192 C 
HETATM   25  O   UNK N   1      24.894  17.790   3.482  0.00  0.00    -0.287 OA
BRANCH  24  26
HETATM   26  C   UNK N   1      26.651  18.629   4.745  0.00  0.00     0.015 A 
HETATM   27  C   UNK N   1      26.590  19.994   4.412  0.00  0.00     0.015 A 
HETATM   28  C   UNK N   1      27.118  20.962   5.266  0.00  0.00     0.002 A 
HETATM   29  C   UNK N   1      27.716  20.575   6.465  0.00  0.00     0.007 A 
HETATM   30  C   UNK N   1      27.784  19.223   6.809  0.00  0.00    -0.061 A 
HETATM   31  C   UNK N   1      28.421  18.817   8.087  0.00  0.00     0.048 C 
HETATM   32  C   UNK N   1      27.254  18.251   5.952  0.00  0.00     0.022 A 
ENDBRANCH  24  26
ENDBRANCH   1  24
TORSDOF 7
ENDMDL
MODEL 5
REMARK VINA RESULT:      -7.5     19.868     23.641
REMARK  7 active torsions:
REMARK  status: ('A' for Active; 'I' for Inactive)
REMARK    1  A    between atoms: C_6  and  C_8 
REMARK    2  A    between atoms: C_8  and  C_10 
REMARK    3  A    between atoms: C_15  and  N_16 
REMARK    4  A    between atoms: N_16  and  C_17 
REMARK    5  A    between atoms: C_17  and  C_18 
REMARK    6  A    between atoms: C_21  and  C_24 
REMARK    7  A    between atoms: C_24  and  N_25 
ROOT
HETATM    1  C   UNK N   1      27.923  21.912  -7.558  0.00  0.00     0.020 A 
HETATM    2  C   UNK N   1      27.163  20.934  -8.217  0.00  0.00     0.032 A 
HETATM    3  C   UNK N   1      25.784  21.142  -8.405  0.00  0.00     0.090 A 
HETATM    4  N   UNK N   1      25.186  22.285  -7.949  0.00  0.00    -0.353 N 
ATOM      5  HN  UNK N   1      24.185  22.421  -8.093  1.00  0.00     0.166 HD
HETATM    6  C   UNK N   1      25.909  23.242  -7.306  0.00  0.00     0.101 A 
HETATM    7  C   UNK N   1      27.275  23.054  -7.113  0.00  0.00     0.063 A 
ENDROOT
BRANCH   6   8
HETATM    8  N   UNK N   1      25.300  24.434  -6.823  0.00  0.00    -0.372 N 
HETATM    9  H   UNK N   1      24.631  24.413  -6.102  0.00  0.00     0.161 HD
BRANCH   8  10
HETATM   10  C   UNK N   1      25.708  25.679  -7.438  0.00  0.00     0.159 C 
BRANCH  10  11
HETATM   11  C   UNK N   1      26.058  26.812  -6.543  0.00  0.00    -0.041 A 
HETATM   12  C   UNK N   1      27.180  27.631  -6.722  0.00  0.00     0.010 A 
HETATM   13  C   UNK N   1      27.425  28.677  -5.817  0.00  0.00     0.016 A 
HETATM   14  C   UNK N   1      26.551  28.901  -4.736  0.00  0.00     0.007 A 
HETATM   15  C   UNK N   1      25.437  28.073  -4.573  0.00  0.00     0.016 A 
HETATM   16  C   UNK N   1      25.196  27.039  -5.470  0.00  0.00     0.010 A 
BRANCH  14  17
HETATM   17  C   UNK N   1      26.794  29.997  -3.775  0.00  0.00     0.102 C 
HETATM   18  N   UNK N   1      25.936  30.942  -3.639  0.00  0.00    -0.385 N 
HETATM   19  H   UNK N   1      25.105  30.931  -4.166  0.00  0.00     0.157 HD
ATOM     20  HN  UNK N   1      26.115  31.704  -2.986  1.00  0.00     0.157 HD
BRANCH  17  21
HETATM   21  N   UNK N   1      27.973  30.015  -2.996  0.00  0.00    -0.385 N 
HETATM   22  H   UNK N   1      28.780  30.465  -3.334  0.00  0.00     0.157 HD
HETATM   23  H   UNK N   1      27.985  29.578  -2.114  0.00  0.00     0.157 HD
ENDBRANCH  17  21
ENDBRANCH  14  17
ENDBRANCH  10  11
ENDBRANCH   8  10
ENDBRANCH   6   8
BRANCH   1  24
HETATM   24  C   UNK N   1      29.390  21.820  -7.293  0.00  0.00     0.192 C 
HETATM   25  O   UNK N   1      30.148  21.983  -8.241  0.00  0.00    -0.287 OA
BRANCH  24  26
HETATM   26  C   UNK N   1      30.001  21.549  -5.966  0.00  0.00     0.015 A 
HETATM   27  C   UNK N   1      30.842  20.430  -5.831  0.00  0.00     0.015 A 
HETATM   28  C   UNK N   1      31.444  20.132  -4.609  0.00  0.00     0.002 A 
HETATM   29  C   UNK N   1      31.211  20.951  -3.505  0.00  0.00     0.007 A 
HETATM   30  C   UNK N   1      30.378  22.066  -3.623  0.00  0.00    -0.061 A 
HETATM   31  C   UNK N   1      30.134  22.934  -2.444  0.00  0.00     0.048 C 
HETATM   32  C   UNK N   1      29.773  22.366  -4.850  0.00  0.00     0.022 A 
ENDBRANCH  24  26
ENDBRANCH   1  24
TORSDOF 7
ENDMDL
MODEL 6
REMARK VINA RESULT:      -7.5      3.949     10.035
REMARK  7 active torsions:
REMARK  status: ('A' for Active; 'I' for Inactive)
REMARK    1  A    between atoms: C_6  and  C_8 
REMARK    2  A    between atoms: C_8  and  C_10 
REMARK    3  A    between atoms: C_15  and  N_16 
REMARK    4  A    between atoms: N_16  and  C_17 
REMARK    5  A    between atoms: C_17  and  C_18 
REMARK    6  A    between atoms: C_21  and  C_24 
REMARK    7  A    between atoms: C_24  and  N_25 
ROOT
HETATM    1  C   UNK N   1      35.387  13.416  11.442  0.00  0.00     0.020 A 
HETATM    2  C   UNK N   1      36.392  13.141  10.503  0.00  0.00     0.032 A 
HETATM    3  C   UNK N   1      36.566  14.005   9.406  0.00  0.00     0.090 A 
HETATM    4  N   UNK N   1      35.764  15.101   9.251  0.00  0.00    -0.353 N 
ATOM      5  HN  UNK N   1      35.903  15.718   8.450  1.00  0.00     0.166 HD
HETATM    6  C   UNK N   1      34.783  15.380  10.152  0.00  0.00     0.101 A 
HETATM    7  C   UNK N   1      34.597  14.538  11.246  0.00  0.00     0.063 A 
ENDROOT
BRANCH   6   8
HETATM    8  N   UNK N   1      33.938  16.515  10.003  0.00  0.00    -0.372 N 
HETATM    9  H   UNK N   1      33.192  16.685  10.621  0.00  0.00     0.161 HD
BRANCH   8  10
HETATM   10  C   UNK N   1      34.225  17.412   8.903  0.00  0.00     0.159 C 
BRANCH  10  11
HETATM   11  C   UNK N   1      33.340  17.350   7.711  0.00  0.00    -0.041 A 
HETATM   12  C   UNK N   1      33.797  17.469   6.392  0.00  0.00     0.010 A 
HETATM   13  C   UNK N   1      32.878  17.399   5.332  0.00  0.00     0.016 A 
HETATM   14  C   UNK N   1      31.506  17.213   5.592  0.00  0.00     0.007 A 
HETATM   15  C   UNK N   1      31.069  17.097   6.914  0.00  0.00     0.016 A 
HETATM   16  C   UNK N   1      31.980  17.165   7.962  0.00  0.00     0.010 A 
BRANCH  14  17
HETATM   17  C   UNK N   1      30.526  17.137   4.489  0.00  0.00     0.102 C 
HETATM   18  N   UNK N   1      30.548  16.149   3.669  0.00  0.00    -0.385 N 
HETATM   19  H   UNK N   1      31.210  15.430   3.784  0.00  0.00     0.157 HD
ATOM     20  HN  UNK N   1      29.880  16.108   2.900  1.00  0.00     0.157 HD
BRANCH  17  21
HETATM   21  N   UNK N   1      29.556  18.150   4.324  0.00  0.00    -0.385 N 
HETATM   22  H   UNK N   1      29.665  19.016   4.780  0.00  0.00     0.157 HD
HETATM   23  H   UNK N   1      28.771  17.990   3.752  0.00  0.00     0.157 HD
ENDBRANCH  17  21
ENDBRANCH  14  17
ENDBRANCH  10  11
ENDBRANCH   8  10
ENDBRANCH   6   8
BRANCH   1  24
HETATM   24  C   UNK N   1      35.095  12.586  12.650  0.00  0.00     0.192 C 
HETATM   25  O   UNK N   1      34.625  11.470  12.470  0.00  0.00    -0.287 OA
BRANCH  24  26
HETATM   26  C   UNK N   1      35.335  13.011  14.053  0.00  0.00     0.015 A 
HETATM   27  C   UNK N   1      34.591  12.396  15.076  0.00  0.00     0.015 A 
HETATM   28  C   UNK N   1      34.780  12.754  16.410  0.00  0.00     0.002 A 
HETATM   29  C   UNK N   1      35.717  13.733  16.739  0.00  0.00     0.007 A 
HETATM   30  C   UNK N   1      36.464  14.353  15.734  0.00  0.00    -0.061 A 
HETATM   31  C   UNK N   1      37.461  15.394  16.090  0.00  0.00     0.048 C 
HETATM   32  C   UNK N   1      36.275  13.994  14.393  0.00  0.00     0.022 A 
ENDBRANCH  24  26
ENDBRANCH   1  24
TORSDOF 7
ENDMDL
MODEL 7
REMARK VINA RESULT:      -7.4      2.605      3.640
REMARK  7 active torsions:
REMARK  status: ('A' for Active; 'I' for Inactive)
REMARK    1  A    between atoms: C_6  and  C_8 
REMARK    2  A    between atoms: C_8  and  C_10 
REMARK    3  A    between atoms: C_15  and  N_16 
REMARK    4  A    between atoms: N_16  and  C_17 
REMARK    5  A    between atoms: C_17  and  C_18 
REMARK    6  A    between atoms: C_21  and  C_24 
REMARK    7  A    between atoms: C_24  and  N_25 
ROOT
HETATM    1  C   UNK N   1      33.267  16.192   8.827  0.00  0.00     0.020 A 
HETATM    2  C   UNK N   1      34.218  17.187   9.092  0.00  0.00     0.032 A 
HETATM    3  C   UNK N   1      35.172  16.979  10.105  0.00  0.00     0.090 A 
HETATM    4  N   UNK N   1      35.174  15.819  10.828  0.00  0.00    -0.353 N 
ATOM      5  HN  UNK N   1      35.873  15.682  11.559  1.00  0.00     0.166 HD
HETATM    6  C   UNK N   1      34.256  14.843  10.585  0.00  0.00     0.101 A 
HETATM    7  C   UNK N   1      33.306  15.032   9.585  0.00  0.00     0.063 A 
ENDROOT
BRANCH   6   8
HETATM    8  N   UNK N   1      34.243  13.633  11.332  0.00  0.00    -0.372 N 
HETATM    9  H   UNK N   1      33.431  13.082  11.404  0.00  0.00     0.161 HD
BRANCH   8  10
HETATM   10  C   UNK N   1      35.478  13.243  11.981  0.00  0.00     0.159 C 
BRANCH  10  11
HETATM   11  C   UNK N   1      35.502  13.221  13.466  0.00  0.00    -0.041 A 
HETATM   12  C   UNK N   1      36.391  13.975  14.244  0.00  0.00     0.010 A 
HETATM   13  C   UNK N   1      36.334  13.883  15.644  0.00  0.00     0.016 A 
HETATM   14  C   UNK N   1      35.394  13.038  16.263  0.00  0.00     0.007 A 
HETATM   15  C   UNK N   1      34.516  12.293  15.471  0.00  0.00     0.016 A 
HETATM   16  C   UNK N   1      34.573  12.387  14.086  0.00  0.00     0.010 A 
BRANCH  14  17
HETATM   17  C   UNK N   1      35.322  12.929  17.735  0.00  0.00     0.102 C 
HETATM   18  N   UNK N   1      35.289  11.775  18.299  0.00  0.00    -0.385 N 
HETATM   19  H   UNK N   1      35.326  10.959  17.751  0.00  0.00     0.157 HD
ATOM     20  HN  UNK N   1      35.224  11.705  19.314  1.00  0.00     0.157 HD
BRANCH  17  21
HETATM   21  N   UNK N   1      35.289  14.092  18.537  0.00  0.00    -0.385 N 
HETATM   22  H   UNK N   1      34.639  14.165  19.273  0.00  0.00     0.157 HD
HETATM   23  H   UNK N   1      35.917  14.828  18.360  0.00  0.00     0.157 HD
ENDBRANCH  17  21
ENDBRANCH  14  17
ENDBRANCH  10  11
ENDBRANCH   8  10
ENDBRANCH   6   8
BRANCH   1  24
HETATM   24  C   UNK N   1      32.202  16.283   7.783  0.00  0.00     0.192 C 
HETATM   25  O   UNK N   1      32.377  15.665   6.741  0.00  0.00    -0.287 OA
BRANCH  24  26
HETATM   26  C   UNK N   1      30.944  17.062   7.916  0.00  0.00     0.015 A 
HETATM   27  C   UNK N   1      30.746  17.821   9.082  0.00  0.00     0.015 A 
HETATM   28  C   UNK N   1      29.585  18.574   9.256  0.00  0.00     0.002 A 
HETATM   29  C   UNK N   1      28.606  18.577   8.264  0.00  0.00     0.007 A 
HETATM   30  C   UNK N   1      28.788  17.826   7.099  0.00  0.00    -0.061 A 
HETATM   31  C   UNK N   1      27.743  17.833   6.045  0.00  0.00     0.048 C 
HETATM   32  C   UNK N   1      29.954  17.070   6.924  0.00  0.00     0.022 A 
ENDBRANCH  24  26
ENDBRANCH   1  24
TORSDOF 7
ENDMDL
MODEL 8
REMARK VINA RESULT:      -7.4      8.080     10.494
REMARK  7 active torsions:
REMARK  status: ('A' for Active; 'I' for Inactive)
REMARK    1  A    between atoms: C_6  and  C_8 
REMARK    2  A    between atoms: C_8  and  C_10 
REMARK    3  A    between atoms: C_15  and  N_16 
REMARK    4  A    between atoms: N_16  and  C_17 
REMARK    5  A    between atoms: C_17  and  C_18 
REMARK    6  A    between atoms: C_21  and  C_24 
REMARK    7  A    between atoms: C_24  and  N_25 
ROOT
HETATM    1  C   UNK N   1      28.996  17.466   7.428  0.00  0.00     0.020 A 
HETATM    2  C   UNK N   1      28.315  18.112   8.470  0.00  0.00     0.032 A 
HETATM    3  C   UNK N   1      29.036  18.559   9.593  0.00  0.00     0.090 A 
HETATM    4  N   UNK N   1      30.387  18.365   9.672  0.00  0.00    -0.353 N 
ATOM      5  HN  UNK N   1      30.896  18.694  10.493  1.00  0.00     0.166 HD
HETATM    6  C   UNK N   1      31.062  17.738   8.670  0.00  0.00     0.101 A 
HETATM    7  C   UNK N   1      30.365  17.291   7.550  0.00  0.00     0.063 A 
ENDROOT
BRANCH   6   8
HETATM    8  N   UNK N   1      32.467  17.525   8.740  0.00  0.00    -0.372 N 
HETATM    9  H   UNK N   1      32.878  17.049   9.497  0.00  0.00     0.161 HD
BRANCH   8  10
HETATM   10  C   UNK N   1      33.267  18.039   7.649  0.00  0.00     0.159 C 
BRANCH  10  11
HETATM   11  C   UNK N   1      33.452  17.171   6.457  0.00  0.00    -0.041 A 
HETATM   12  C   UNK N   1      33.042  17.523   5.164  0.00  0.00     0.010 A 
HETATM   13  C   UNK N   1      33.261  16.630   4.102  0.00  0.00     0.016 A 
HETATM   14  C   UNK N   1      33.887  15.390   4.334  0.00  0.00     0.007 A 
HETATM   15  C   UNK N   1      34.289  15.057   5.630  0.00  0.00     0.016 A 
HETATM   16  C   UNK N   1      34.072  15.942   6.679  0.00  0.00     0.010 A 
BRANCH  14  17
HETATM   17  C   UNK N   1      34.124  14.440   3.227  0.00  0.00     0.102 C 
HETATM   18  N   UNK N   1      34.350  13.200   3.476  0.00  0.00    -0.385 N 
HETATM   19  H   UNK N   1      34.350  12.877   4.405  0.00  0.00     0.157 HD
ATOM     20  HN  UNK N   1      34.528  12.551   2.710  1.00  0.00     0.157 HD
BRANCH  17  21
HETATM   21  N   UNK N   1      34.106  14.884   1.887  0.00  0.00    -0.385 N 
HETATM   22  H   UNK N   1      34.925  15.240   1.474  0.00  0.00     0.157 HD
HETATM   23  H   UNK N   1      33.272  14.837   1.365  0.00  0.00     0.157 HD
ENDBRANCH  17  21
ENDBRANCH  14  17
ENDBRANCH  10  11
ENDBRANCH   8  10
ENDBRANCH   6   8
BRANCH   1  24
HETATM   24  C   UNK N   1      28.356  16.945   6.182  0.00  0.00     0.192 C 
HETATM   25  O   UNK N   1      27.159  17.156   6.029  0.00  0.00    -0.287 OA
BRANCH  24  26
HETATM   26  C   UNK N   1      29.061  16.192   5.113  0.00  0.00     0.015 A 
HETATM   27  C   UNK N   1      29.179  16.785   3.843  0.00  0.00     0.015 A 
HETATM   28  C   UNK N   1      29.835  16.124   2.806  0.00  0.00     0.002 A 
HETATM   29  C   UNK N   1      30.383  14.860   3.025  0.00  0.00     0.007 A 
HETATM   30  C   UNK N   1      30.274  14.259   4.281  0.00  0.00    -0.061 A 
HETATM   31  C   UNK N   1      30.859  12.914   4.510  0.00  0.00     0.048 C 
HETATM   32  C   UNK N   1      29.615  14.922   5.324  0.00  0.00     0.022 A 
ENDBRANCH  24  26
ENDBRANCH   1  24
TORSDOF 7
ENDMDL
MODEL 9
REMARK VINA RESULT:      -7.4     19.570     22.919
REMARK  7 active torsions:
REMARK  status: ('A' for Active; 'I' for Inactive)
REMARK    1  A    between atoms: C_6  and  C_8 
REMARK    2  A    between atoms: C_8  and  C_10 
REMARK    3  A    between atoms: C_15  and  N_16 
REMARK    4  A    between atoms: N_16  and  C_17 
REMARK    5  A    between atoms: C_17  and  C_18 
REMARK    6  A    between atoms: C_21  and  C_24 
REMARK    7  A    between atoms: C_24  and  N_25 
ROOT
HETATM    1  C   UNK N   1      28.658  21.642  -7.268  0.00  0.00     0.020 A 
HETATM    2  C   UNK N   1      28.519  21.049  -8.531  0.00  0.00     0.032 A 
HETATM    3  C   UNK N   1      27.384  21.341  -9.310  0.00  0.00     0.090 A 
HETATM    4  N   UNK N   1      26.422  22.192  -8.842  0.00  0.00    -0.353 N 
ATOM      5  HN  UNK N   1      25.604  22.394  -9.418  1.00  0.00     0.166 HD
HETATM    6  C   UNK N   1      26.540  22.773  -7.617  0.00  0.00     0.101 A 
HETATM    7  C   UNK N   1      27.658  22.498  -6.833  0.00  0.00     0.063 A 
ENDROOT
BRANCH   6   8
HETATM    8  N   UNK N   1      25.546  23.658  -7.115  0.00  0.00    -0.372 N 
HETATM    9  H   UNK N   1      24.931  24.135  -7.717  0.00  0.00     0.161 HD
BRANCH   8  10
HETATM   10  C   UNK N   1      25.477  23.827  -5.679  0.00  0.00     0.159 C 
BRANCH  10  11
HETATM   11  C   UNK N   1      25.711  25.188  -5.129  0.00  0.00    -0.041 A 
HETATM   12  C   UNK N   1      25.237  26.363  -5.727  0.00  0.00     0.010 A 
HETATM   13  C   UNK N   1      25.515  27.604  -5.128  0.00  0.00     0.016 A 
HETATM   14  C   UNK N   1      26.265  27.667  -3.938  0.00  0.00     0.007 A 
HETATM   15  C   UNK N   1      26.730  26.484  -3.358  0.00  0.00     0.016 A 
HETATM   16  C   UNK N   1      26.453  25.257  -3.951  0.00  0.00     0.010 A 
BRANCH  14  17
HETATM   17  C   UNK N   1      26.566  28.964  -3.297  0.00  0.00     0.102 C 
HETATM   18  N   UNK N   1      27.358  29.019  -2.288  0.00  0.00    -0.385 N 
HETATM   19  H   UNK N   1      27.779  28.197  -1.948  0.00  0.00     0.157 HD
ATOM     20  HN  UNK N   1      27.551  29.914  -1.839  1.00  0.00     0.157 HD
BRANCH  17  21
HETATM   21  N   UNK N   1      25.986  30.155  -3.787  0.00  0.00    -0.385 N 
HETATM   22  H   UNK N   1      25.468  30.735  -3.184  0.00  0.00     0.157 HD
HETATM   23  H   UNK N   1      26.101  30.404  -4.732  0.00  0.00     0.157 HD
ENDBRANCH  17  21
ENDBRANCH  14  17
ENDBRANCH  10  11
ENDBRANCH   8  10
ENDBRANCH   6   8
BRANCH   1  24
HETATM   24  C   UNK N   1      29.809  21.421  -6.341  0.00  0.00     0.192 C 
HETATM   25  O   UNK N   1      30.609  20.540  -6.632  0.00  0.00    -0.287 OA
BRANCH  24  26
HETATM   26  C   UNK N   1      30.060  22.190  -5.095  0.00  0.00     0.015 A 
HETATM   27  C   UNK N   1      30.303  21.480  -3.907  0.00  0.00     0.015 A 
HETATM   28  C   UNK N   1      30.548  22.153  -2.710  0.00  0.00     0.002 A 
HETATM   29  C   UNK N   1      30.552  23.547  -2.688  0.00  0.00     0.007 A 
HETATM   30  C   UNK N   1      30.311  24.267  -3.861  0.00  0.00    -0.061 A 
HETATM   31  C   UNK N   1      30.318  25.751  -3.831  0.00  0.00     0.048 C 
HETATM   32  C   UNK N   1      30.066  23.592  -5.063  0.00  0.00     0.022 A 
ENDBRANCH  24  26
ENDBRANCH   1  24
TORSDOF 7
ENDMDL
