MODEL 1
REMARK VINA RESULT:      -8.3      0.000      0.000
REMARK  4 active torsions:
REMARK  status: ('A' for Active; 'I' for Inactive)
REMARK    1  A    between atoms: C_4  and  N_24 
REMARK    2  A    between atoms: C_11  and  C_12 
REMARK    3  A    between atoms: C_18  and  C_19 
REMARK    4  A    between atoms: C_21  and  C_22 
REMARK       I    between atoms: C_22  and  N_24 
ROOT
HETATM    1  C   UNK N   1      34.511  15.419  10.401  0.00  0.00     0.017 A 
HETATM    2  C   UNK N   1      33.565  14.618   9.786  0.00  0.00     0.017 A 
HETATM    3  C   UNK N   1      32.927  15.057   8.638  0.00  0.00     0.014 A 
HETATM    4  C   UNK N   1      34.812  16.664   9.855  0.00  0.00     0.023 A 
HETATM    5  C   UNK N   1      34.176  17.130   8.691  0.00  0.00    -0.050 A 
HETATM    6  C   UNK N   1      34.630  18.462   8.241  0.00  0.00     0.049 C 
HETATM    7  C   UNK N   1      33.187  16.312   8.035  0.00  0.00    -0.019 A 
ENDROOT
BRANCH   7   8
HETATM    8  C   UNK N   1      32.369  16.583   6.761  0.00  0.00    -0.018 A 
HETATM    9  C   UNK N   1      31.092  17.142   7.001  0.00  0.00     0.030 A 
HETATM   10  C   UNK N   1      30.184  17.461   5.996  0.00  0.00     0.032 A 
HETATM   11  C   UNK N   1      30.535  17.228   4.672  0.00  0.00     0.017 A 
HETATM   12  C   UNK N   1      31.780  16.683   4.373  0.00  0.00     0.009 A 
HETATM   13  C   UNK N   1      32.699  16.350   5.379  0.00  0.00    -0.051 A 
HETATM   14  C   UNK N   1      33.969  15.784   4.878  0.00  0.00     0.049 C 
BRANCH  10  15
HETATM   15  C   UNK N   1      28.851  17.991   6.354  0.00  0.00     0.252 C 
HETATM   16  O   UNK N   1      28.306  17.628   7.387  0.00  0.00    -0.268 OA
HETATM   17  N   UNK N   1      28.255  18.914   5.551  0.00  0.00    -0.352 N 
HETATM   18  H   UNK N   1      28.707  19.164   4.713  0.00  0.00     0.163 HD
BRANCH  17  19
HETATM   19  C   UNK N   1      26.992  19.548   5.863  0.00  0.00     0.084 A 
HETATM   20  C   UNK N   1      27.245  20.995   6.239  0.00  0.00     0.027 A 
HETATM   21  C   UNK N   1      26.679  20.662   4.878  0.00  0.00     0.027 A 
ENDBRANCH  17  19
ENDBRANCH  10  15
ENDBRANCH   7   8
BRANCH   1  22
HETATM   22  C   UNK N   1      35.181  14.936  11.615  0.00  0.00     0.174 A 
HETATM   23  O   UNK N   1      34.677  14.043  12.434  0.00  0.00    -0.278 OA
HETATM   24  C   UNK N   1      35.566  13.884  13.381  0.00  0.00     0.136 A 
HETATM   25  C   UNK N   1      35.418  12.960  14.536  0.00  0.00     0.099 C 
HETATM   26  N   UNK N   1      36.635  14.674  13.165  0.00  0.00    -0.281 N 
HETATM   27  N   UNK N   1      36.391  15.340  12.046  0.00  0.00    -0.277 N 
ATOM     28  HN  UNK N   1      37.468  14.745  13.748  1.00  0.00     0.189 HD
ATOM     29  HN  UNK N   1      37.001  16.025  11.598  1.00  0.00     0.189 HD
ENDBRANCH   1  22
TORSDOF 4
ENDMDL
MODEL 2
REMARK VINA RESULT:      -8.3      3.877      7.424
REMARK  4 active torsions:
REMARK  status: ('A' for Active; 'I' for Inactive)
REMARK    1  A    between atoms: C_4  and  N_24 
REMARK    2  A    between atoms: C_11  and  C_12 
REMARK    3  A    between atoms: C_18  and  C_19 
REMARK    4  A    between atoms: C_21  and  C_22 
REMARK       I    between atoms: C_22  and  N_24 
ROOT
HETATM    1  C   UNK N   1      35.483  12.787  16.478  0.00  0.00     0.017 A 
HETATM    2  C   UNK N   1      36.312  13.790  16.007  0.00  0.00     0.017 A 
HETATM    3  C   UNK N   1      36.495  13.954  14.643  0.00  0.00     0.014 A 
HETATM    4  C   UNK N   1      34.839  11.950  15.569  0.00  0.00     0.023 A 
HETATM    5  C   UNK N   1      35.011  12.098  14.183  0.00  0.00    -0.050 A 
HETATM    6  C   UNK N   1      34.239  11.138  13.368  0.00  0.00     0.049 C 
HETATM    7  C   UNK N   1      35.871  13.136  13.671  0.00  0.00    -0.019 A 
ENDROOT
BRANCH   7   8
HETATM    8  C   UNK N   1      36.211  13.509  12.218  0.00  0.00    -0.018 A 
HETATM    9  C   UNK N   1      35.622  14.717  11.778  0.00  0.00     0.030 A 
HETATM   10  C   UNK N   1      35.790  15.241  10.499  0.00  0.00     0.032 A 
HETATM   11  C   UNK N   1      36.584  14.554   9.589  0.00  0.00     0.017 A 
HETATM   12  C   UNK N   1      37.194  13.362   9.965  0.00  0.00     0.009 A 
HETATM   13  C   UNK N   1      37.024  12.820  11.249  0.00  0.00    -0.051 A 
HETATM   14  C   UNK N   1      37.745  11.551  11.473  0.00  0.00     0.049 C 
BRANCH  10  15
HETATM   15  C   UNK N   1      35.085  16.483  10.118  0.00  0.00     0.252 C 
HETATM   16  O   UNK N   1      35.530  17.568  10.464  0.00  0.00    -0.268 OA
HETATM   17  N   UNK N   1      33.967  16.414   9.346  0.00  0.00    -0.352 N 
HETATM   18  H   UNK N   1      33.619  15.524   9.108  0.00  0.00     0.163 HD
BRANCH  17  19
HETATM   19  C   UNK N   1      33.261  17.578   8.856  0.00  0.00     0.084 A 
HETATM   20  C   UNK N   1      33.755  17.905   7.461  0.00  0.00     0.027 A 
HETATM   21  C   UNK N   1      32.414  17.235   7.642  0.00  0.00     0.027 A 
ENDBRANCH  17  19
ENDBRANCH  10  15
ENDBRANCH   7   8
BRANCH   1  22
HETATM   22  C   UNK N   1      35.296  12.630  17.925  0.00  0.00     0.174 A 
HETATM   23  O   UNK N   1      35.140  11.476  18.530  0.00  0.00    -0.278 OA
HETATM   24  C   UNK N   1      35.006  11.754  19.802  0.00  0.00     0.136 A 
HETATM   25  C   UNK N   1      34.803  10.744  20.874  0.00  0.00     0.099 C 
HETATM   26  N   UNK N   1      35.079  13.083  20.006  0.00  0.00    -0.281 N 
HETATM   27  N   UNK N   1      35.263  13.638  18.817  0.00  0.00    -0.277 N 
ATOM     28  HN  UNK N   1      35.006  13.567  20.901  1.00  0.00     0.189 HD
ATOM     29  HN  UNK N   1      35.360  14.633  18.616  1.00  0.00     0.189 HD
ENDBRANCH   1  22
TORSDOF 4
ENDMDL
MODEL 3
REMARK VINA RESULT:      -7.7      6.874     15.005
REMARK  4 active torsions:
REMARK  status: ('A' for Active; 'I' for Inactive)
REMARK    1  A    between atoms: C_4  and  N_24 
REMARK    2  A    between atoms: C_11  and  C_12 
REMARK    3  A    between atoms: C_18  and  C_19 
REMARK    4  A    between atoms: C_21  and  C_22 
REMARK       I    between atoms: C_22  and  N_24 
ROOT
HETATM    1  C   UNK N   1      35.763  12.689  16.182  0.00  0.00     0.017 A 
HETATM    2  C   UNK N   1      36.035  11.333  16.218  0.00  0.00     0.017 A 
HETATM    3  C   UNK N   1      35.907  10.632  17.406  0.00  0.00     0.014 A 
HETATM    4  C   UNK N   1      35.361  13.336  17.349  0.00  0.00     0.023 A 
HETATM    5  C   UNK N   1      35.226  12.645  18.564  0.00  0.00    -0.050 A 
HETATM    6  C   UNK N   1      34.773  13.483  19.693  0.00  0.00     0.049 C 
HETATM    7  C   UNK N   1      35.505  11.232  18.624  0.00  0.00    -0.019 A 
ENDROOT
BRANCH   7   8
HETATM    8  C   UNK N   1      35.422  10.258  19.812  0.00  0.00    -0.018 A 
HETATM    9  C   UNK N   1      36.473  10.395  20.747  0.00  0.00     0.030 A 
HETATM   10  C   UNK N   1      36.600   9.614  21.892  0.00  0.00     0.032 A 
HETATM   11  C   UNK N   1      35.643   8.639  22.151  0.00  0.00     0.017 A 
HETATM   12  C   UNK N   1      34.583   8.460  21.269  0.00  0.00     0.009 A 
HETATM   13  C   UNK N   1      34.451   9.237  20.108  0.00  0.00    -0.051 A 
HETATM   14  C   UNK N   1      33.265   8.909  19.289  0.00  0.00     0.049 C 
BRANCH  10  15
HETATM   15  C   UNK N   1      37.767   9.798  22.780  0.00  0.00     0.252 C 
HETATM   16  O   UNK N   1      38.328   8.823  23.261  0.00  0.00    -0.268 OA
HETATM   17  N   UNK N   1      38.238  11.051  23.023  0.00  0.00    -0.352 N 
HETATM   18  H   UNK N   1      37.748  11.815  22.643  0.00  0.00     0.163 HD
BRANCH  17  19
HETATM   19  C   UNK N   1      39.422  11.321  23.811  0.00  0.00     0.084 A 
HETATM   20  C   UNK N   1      40.639  11.271  22.907  0.00  0.00     0.027 A 
HETATM   21  C   UNK N   1      40.097  12.606  23.362  0.00  0.00     0.027 A 
ENDBRANCH  17  19
ENDBRANCH  10  15
ENDBRANCH   7   8
BRANCH   1  22
HETATM   22  C   UNK N   1      35.899  13.416  14.914  0.00  0.00     0.174 A 
HETATM   23  O   UNK N   1      35.049  13.332  13.918  0.00  0.00    -0.278 OA
HETATM   24  C   UNK N   1      35.517  14.120  12.983  0.00  0.00     0.136 A 
HETATM   25  C   UNK N   1      34.874  14.340  11.660  0.00  0.00     0.099 C 
HETATM   26  N   UNK N   1      36.661  14.704  13.383  0.00  0.00    -0.281 N 
HETATM   27  N   UNK N   1      36.904  14.258  14.608  0.00  0.00    -0.277 N 
ATOM     28  HN  UNK N   1      37.230  15.361  12.849  1.00  0.00     0.189 HD
ATOM     29  HN  UNK N   1      37.696  14.505  15.201  1.00  0.00     0.189 HD
ENDBRANCH   1  22
TORSDOF 4
ENDMDL
MODEL 4
REMARK VINA RESULT:      -7.7      1.927      2.923
REMARK  4 active torsions:
REMARK  status: ('A' for Active; 'I' for Inactive)
REMARK    1  A    between atoms: C_4  and  N_24 
REMARK    2  A    between atoms: C_11  and  C_12 
REMARK    3  A    between atoms: C_18  and  C_19 
REMARK    4  A    between atoms: C_21  and  C_22 
REMARK       I    between atoms: C_22  and  N_24 
ROOT
HETATM    1  C   UNK N   1      35.246  14.422  11.719  0.00  0.00     0.017 A 
HETATM    2  C   UNK N   1      35.302  15.712  11.223  0.00  0.00     0.017 A 
HETATM    3  C   UNK N   1      34.891  15.975   9.926  0.00  0.00     0.014 A 
HETATM    4  C   UNK N   1      34.775  13.396  10.902  0.00  0.00     0.023 A 
HETATM    5  C   UNK N   1      34.355  13.639   9.584  0.00  0.00    -0.050 A 
HETATM    6  C   UNK N   1      33.868  12.441   8.870  0.00  0.00     0.049 C 
HETATM    7  C   UNK N   1      34.405  14.976   9.047  0.00  0.00    -0.019 A 
ENDROOT
BRANCH   7   8
HETATM    8  C   UNK N   1      33.996  15.499   7.660  0.00  0.00    -0.018 A 
HETATM    9  C   UNK N   1      32.751  16.169   7.638  0.00  0.00     0.030 A 
HETATM   10  C   UNK N   1      32.185  16.716   6.491  0.00  0.00     0.032 A 
HETATM   11  C   UNK N   1      32.870  16.613   5.286  0.00  0.00     0.017 A 
HETATM   12  C   UNK N   1      34.102  15.968   5.245  0.00  0.00     0.009 A 
HETATM   13  C   UNK N   1      34.678  15.405   6.395  0.00  0.00    -0.051 A 
HETATM   14  C   UNK N   1      35.987  14.762   6.165  0.00  0.00     0.049 C 
BRANCH  10  15
HETATM   15  C   UNK N   1      30.850  17.350   6.561  0.00  0.00     0.252 C 
HETATM   16  O   UNK N   1      30.185  17.487   5.545  0.00  0.00    -0.268 OA
HETATM   17  N   UNK N   1      30.352  17.738   7.766  0.00  0.00    -0.352 N 
HETATM   18  H   UNK N   1      30.924  17.639   8.562  0.00  0.00     0.163 HD
BRANCH  17  19
HETATM   19  C   UNK N   1      29.026  18.289   7.942  0.00  0.00     0.084 A 
HETATM   20  C   UNK N   1      28.098  17.196   8.436  0.00  0.00     0.027 A 
HETATM   21  C   UNK N   1      28.602  18.244   9.401  0.00  0.00     0.027 A 
ENDBRANCH  17  19
ENDBRANCH  10  15
ENDBRANCH   7   8
BRANCH   1  22
HETATM   22  C   UNK N   1      35.681  14.163  13.096  0.00  0.00     0.174 A 
HETATM   23  O   UNK N   1      34.973  13.506  13.985  0.00  0.00    -0.278 OA
HETATM   24  C   UNK N   1      35.697  13.488  15.076  0.00  0.00     0.136 A 
HETATM   25  C   UNK N   1      35.288  12.846  16.353  0.00  0.00     0.099 C 
HETATM   26  N   UNK N   1      36.863  14.131  14.882  0.00  0.00    -0.281 N 
HETATM   27  N   UNK N   1      36.854  14.559  13.627  0.00  0.00    -0.277 N 
ATOM     28  HN  UNK N   1      37.608  14.263  15.565  1.00  0.00     0.189 HD
ATOM     29  HN  UNK N   1      37.590  15.085  13.156  1.00  0.00     0.189 HD
ENDBRANCH   1  22
TORSDOF 4
ENDMDL
MODEL 5
REMARK VINA RESULT:      -7.6      6.553     13.817
REMARK  4 active torsions:
REMARK  status: ('A' for Active; 'I' for Inactive)
REMARK    1  A    between atoms: C_4  and  N_24 
REMARK    2  A    between atoms: C_11  and  C_12 
REMARK    3  A    between atoms: C_18  and  C_19 
REMARK    4  A    between atoms: C_21  and  C_22 
REMARK       I    between atoms: C_22  and  N_24 
ROOT
HETATM    1  C   UNK N   1      35.637  12.622  15.710  0.00  0.00     0.017 A 
HETATM    2  C   UNK N   1      35.681  11.242  15.625  0.00  0.00     0.017 A 
HETATM    3  C   UNK N   1      35.521  10.472  16.765  0.00  0.00     0.014 A 
HETATM    4  C   UNK N   1      35.431  13.224  16.949  0.00  0.00     0.023 A 
HETATM    5  C   UNK N   1      35.267  12.462  18.118  0.00  0.00    -0.050 A 
HETATM    6  C   UNK N   1      35.039  13.263  19.339  0.00  0.00     0.049 C 
HETATM    7  C   UNK N   1      35.311  11.023  18.052  0.00  0.00    -0.019 A 
ENDROOT
BRANCH   7   8
HETATM    8  C   UNK N   1      35.149   9.977  19.169  0.00  0.00    -0.018 A 
HETATM    9  C   UNK N   1      34.017   9.143  19.020  0.00  0.00     0.030 A 
HETATM   10  C   UNK N   1      33.674   8.135  19.916  0.00  0.00     0.032 A 
HETATM   11  C   UNK N   1      34.482   7.916  21.026  0.00  0.00     0.017 A 
HETATM   12  C   UNK N   1      35.612   8.703  21.224  0.00  0.00     0.009 A 
HETATM   13  C   UNK N   1      35.961   9.728  20.331  0.00  0.00    -0.051 A 
HETATM   14  C   UNK N   1      37.191  10.459  20.699  0.00  0.00     0.049 C 
BRANCH  10  15
HETATM   15  C   UNK N   1      32.438   7.352  19.701  0.00  0.00     0.252 C 
HETATM   16  O   UNK N   1      31.348   7.903  19.762  0.00  0.00    -0.268 OA
HETATM   17  N   UNK N   1      32.523   6.029  19.394  0.00  0.00    -0.352 N 
HETATM   18  H   UNK N   1      33.414   5.610  19.380  0.00  0.00     0.163 HD
BRANCH  17  19
HETATM   19  C   UNK N   1      31.374   5.205  19.087  0.00  0.00     0.084 A 
HETATM   20  C   UNK N   1      31.632   4.461  17.790  0.00  0.00     0.027 A 
HETATM   21  C   UNK N   1      31.736   3.729  19.108  0.00  0.00     0.027 A 
ENDBRANCH  17  19
ENDBRANCH  10  15
ENDBRANCH   7   8
BRANCH   1  22
HETATM   22  C   UNK N   1      35.804  13.422  14.491  0.00  0.00     0.174 A 
HETATM   23  O   UNK N   1      34.910  13.508  13.533  0.00  0.00    -0.278 OA
HETATM   24  C   UNK N   1      35.426  14.307  12.634  0.00  0.00     0.136 A 
HETATM   25  C   UNK N   1      34.760  14.696  11.363  0.00  0.00     0.099 C 
HETATM   26  N   UNK N   1      36.645  14.730  13.019  0.00  0.00    -0.281 N 
HETATM   27  N   UNK N   1      36.884  14.170  14.196  0.00  0.00    -0.277 N 
ATOM     28  HN  UNK N   1      37.262  15.359  12.506  1.00  0.00     0.189 HD
ATOM     29  HN  UNK N   1      37.722  14.283  14.766  1.00  0.00     0.189 HD
ENDBRANCH   1  22
TORSDOF 4
ENDMDL
MODEL 6
REMARK VINA RESULT:      -7.5      5.851     12.475
REMARK  4 active torsions:
REMARK  status: ('A' for Active; 'I' for Inactive)
REMARK    1  A    between atoms: C_4  and  N_24 
REMARK    2  A    between atoms: C_11  and  C_12 
REMARK    3  A    between atoms: C_18  and  C_19 
REMARK    4  A    between atoms: C_21  and  C_22 
REMARK       I    between atoms: C_22  and  N_24 
ROOT
HETATM    1  C   UNK N   1      36.011  13.259  13.083  0.00  0.00     0.017 A 
HETATM    2  C   UNK N   1      36.728  13.796  14.138  0.00  0.00     0.017 A 
HETATM    3  C   UNK N   1      36.429  13.424  15.439  0.00  0.00     0.014 A 
HETATM    4  C   UNK N   1      34.991  12.347  13.344  0.00  0.00     0.023 A 
HETATM    5  C   UNK N   1      34.671  11.957  14.655  0.00  0.00    -0.050 A 
HETATM    6  C   UNK N   1      33.577  10.968  14.746  0.00  0.00     0.049 C 
HETATM    7  C   UNK N   1      35.404  12.505  15.769  0.00  0.00    -0.019 A 
ENDROOT
BRANCH   7   8
HETATM    8  C   UNK N   1      35.259  12.235  17.277  0.00  0.00    -0.018 A 
HETATM    9  C   UNK N   1      35.079  10.871  17.605  0.00  0.00     0.030 A 
HETATM   10  C   UNK N   1      34.919  10.401  18.905  0.00  0.00     0.032 A 
HETATM   11  C   UNK N   1      34.941  11.310  19.957  0.00  0.00     0.017 A 
HETATM   12  C   UNK N   1      35.120  12.664  19.696  0.00  0.00     0.009 A 
HETATM   13  C   UNK N   1      35.272  13.149  18.388  0.00  0.00    -0.051 A 
HETATM   14  C   UNK N   1      35.451  14.613  18.301  0.00  0.00     0.049 C 
BRANCH  10  15
HETATM   15  C   UNK N   1      34.681   8.961  19.141  0.00  0.00     0.252 C 
HETATM   16  O   UNK N   1      35.628   8.193  19.237  0.00  0.00    -0.268 OA
HETATM   17  N   UNK N   1      33.408   8.505  19.293  0.00  0.00    -0.352 N 
HETATM   18  H   UNK N   1      32.667   9.144  19.183  0.00  0.00     0.163 HD
BRANCH  17  19
HETATM   19  C   UNK N   1      33.084   7.130  19.608  0.00  0.00     0.084 A 
HETATM   20  C   UNK N   1      32.277   7.094  20.891  0.00  0.00     0.027 A 
HETATM   21  C   UNK N   1      31.584   6.896  19.563  0.00  0.00     0.027 A 
ENDBRANCH  17  19
ENDBRANCH  10  15
ENDBRANCH   7   8
BRANCH   1  22
HETATM   22  C   UNK N   1      36.344  13.659  11.711  0.00  0.00     0.174 A 
HETATM   23  O   UNK N   1      35.457  13.918  10.779  0.00  0.00    -0.278 OA
HETATM   24  C   UNK N   1      36.143  14.235   9.711  0.00  0.00     0.136 A 
HETATM   25  C   UNK N   1      35.546  14.606   8.400  0.00  0.00     0.099 C 
HETATM   26  N   UNK N   1      37.464  14.180   9.962  0.00  0.00    -0.281 N 
HETATM   27  N   UNK N   1      37.592  13.815  11.229  0.00  0.00    -0.277 N 
ATOM     28  HN  UNK N   1      38.218  14.379   9.305  1.00  0.00     0.189 HD
ATOM     29  HN  UNK N   1      38.465  13.679  11.740  1.00  0.00     0.189 HD
ENDBRANCH   1  22
TORSDOF 4
ENDMDL
MODEL 7
REMARK VINA RESULT:      -7.4      4.918     10.472
REMARK  4 active torsions:
REMARK  status: ('A' for Active; 'I' for Inactive)
REMARK    1  A    between atoms: C_4  and  N_24 
REMARK    2  A    between atoms: C_11  and  C_12 
REMARK    3  A    between atoms: C_18  and  C_19 
REMARK    4  A    between atoms: C_21  and  C_22 
REMARK       I    between atoms: C_22  and  N_24 
ROOT
HETATM    1  C   UNK N   1      24.826  18.833   4.561  0.00  0.00     0.017 A 
HETATM    2  C   UNK N   1      25.331  17.551   4.687  0.00  0.00     0.017 A 
HETATM    3  C   UNK N   1      26.571  17.349   5.272  0.00  0.00     0.014 A 
HETATM    4  C   UNK N   1      25.575  19.911   5.026  0.00  0.00     0.023 A 
HETATM    5  C   UNK N   1      26.834  19.730   5.622  0.00  0.00    -0.050 A 
HETATM    6  C   UNK N   1      27.479  20.979   6.074  0.00  0.00     0.049 C 
HETATM    7  C   UNK N   1      27.380  18.403   5.762  0.00  0.00    -0.019 A 
ENDROOT
BRANCH   7   8
HETATM    8  C   UNK N   1      28.711  17.942   6.381  0.00  0.00    -0.018 A 
HETATM    9  C   UNK N   1      29.729  17.681   5.433  0.00  0.00     0.030 A 
HETATM   10  C   UNK N   1      31.008  17.248   5.770  0.00  0.00     0.032 A 
HETATM   11  C   UNK N   1      31.325  17.061   7.110  0.00  0.00     0.017 A 
HETATM   12  C   UNK N   1      30.367  17.306   8.088  0.00  0.00     0.009 A 
HETATM   13  C   UNK N   1      29.071  17.734   7.759  0.00  0.00    -0.051 A 
HETATM   14  C   UNK N   1      28.188  17.944   8.924  0.00  0.00     0.049 C 
BRANCH  10  15
HETATM   15  C   UNK N   1      31.985  16.949   4.701  0.00  0.00     0.252 C 
HETATM   16  O   UNK N   1      32.855  17.762   4.424  0.00  0.00    -0.268 OA
HETATM   17  N   UNK N   1      31.937  15.749   4.061  0.00  0.00    -0.352 N 
HETATM   18  H   UNK N   1      31.208  15.128   4.289  0.00  0.00     0.163 HD
BRANCH  17  19
HETATM   19  C   UNK N   1      32.900  15.337   3.063  0.00  0.00     0.084 A 
HETATM   20  C   UNK N   1      34.004  14.547   3.739  0.00  0.00     0.027 A 
HETATM   21  C   UNK N   1      32.947  13.823   2.938  0.00  0.00     0.027 A 
ENDBRANCH  17  19
ENDBRANCH  10  15
ENDBRANCH   7   8
BRANCH   1  22
HETATM   22  C   UNK N   1      23.509  19.028   3.943  0.00  0.00     0.174 A 
HETATM   23  O   UNK N   1      23.094  20.161   3.426  0.00  0.00    -0.278 OA
HETATM   24  C   UNK N   1      21.885  19.929   2.982  0.00  0.00     0.136 A 
HETATM   25  C   UNK N   1      21.021  20.937   2.312  0.00  0.00     0.099 C 
HETATM   26  N   UNK N   1      21.531  18.652   3.215  0.00  0.00    -0.281 N 
HETATM   27  N   UNK N   1      22.560  18.080   3.824  0.00  0.00    -0.277 N 
ATOM     28  HN  UNK N   1      20.645  18.211   2.971  1.00  0.00     0.189 HD
ATOM     29  HN  UNK N   1      22.621  17.112   4.140  1.00  0.00     0.189 HD
ENDBRANCH   1  22
TORSDOF 4
ENDMDL
MODEL 8
REMARK VINA RESULT:      -7.2      5.228     12.535
REMARK  4 active torsions:
REMARK  status: ('A' for Active; 'I' for Inactive)
REMARK    1  A    between atoms: C_4  and  N_24 
REMARK    2  A    between atoms: C_11  and  C_12 
REMARK    3  A    between atoms: C_18  and  C_19 
REMARK    4  A    between atoms: C_21  and  C_22 
REMARK       I    between atoms: C_22  and  N_24 
ROOT
HETATM    1  C   UNK N   1      35.761  13.794  13.202  0.00  0.00     0.017 A 
HETATM    2  C   UNK N   1      36.513  14.230  14.278  0.00  0.00     0.017 A 
HETATM    3  C   UNK N   1      36.375  13.619  15.513  0.00  0.00     0.014 A 
HETATM    4  C   UNK N   1      34.867  12.740  13.376  0.00  0.00     0.023 A 
HETATM    5  C   UNK N   1      34.710  12.107  14.620  0.00  0.00    -0.050 A 
HETATM    6  C   UNK N   1      33.734  10.997  14.619  0.00  0.00     0.049 C 
HETATM    7  C   UNK N   1      35.483  12.546  15.754  0.00  0.00    -0.019 A 
ENDROOT
BRANCH   7   8
HETATM    8  C   UNK N   1      35.505  12.018  17.199  0.00  0.00    -0.018 A 
HETATM    9  C   UNK N   1      35.771  10.633  17.305  0.00  0.00     0.030 A 
HETATM   10  C   UNK N   1      35.831   9.945  18.513  0.00  0.00     0.032 A 
HETATM   11  C   UNK N   1      35.626  10.644  19.697  0.00  0.00     0.017 A 
HETATM   12  C   UNK N   1      35.364  12.010  19.657  0.00  0.00     0.009 A 
HETATM   13  C   UNK N   1      35.293  12.711  18.443  0.00  0.00    -0.051 A 
HETATM   14  C   UNK N   1      35.007  14.152  18.591  0.00  0.00     0.049 C 
BRANCH  10  15
HETATM   15  C   UNK N   1      36.061   8.485  18.515  0.00  0.00     0.252 C 
HETATM   16  O   UNK N   1      36.344   7.912  19.558  0.00  0.00    -0.268 OA
HETATM   17  N   UNK N   1      35.914   7.778  17.361  0.00  0.00    -0.352 N 
HETATM   18  H   UNK N   1      35.712   8.272  16.534  0.00  0.00     0.163 HD
BRANCH  17  19
HETATM   19  C   UNK N   1      36.037   6.338  17.285  0.00  0.00     0.084 A 
HETATM   20  C   UNK N   1      35.466   5.863  15.963  0.00  0.00     0.027 A 
HETATM   21  C   UNK N   1      36.964   5.926  16.154  0.00  0.00     0.027 A 
ENDBRANCH  17  19
ENDBRANCH  10  15
ENDBRANCH   7   8
BRANCH   1  22
HETATM   22  C   UNK N   1      35.923  14.449  11.898  0.00  0.00     0.174 A 
HETATM   23  O   UNK N   1      35.045  15.265  11.365  0.00  0.00    -0.278 OA
HETATM   24  C   UNK N   1      35.551  15.633  10.216  0.00  0.00     0.136 A 
HETATM   25  C   UNK N   1      34.893  16.563   9.259  0.00  0.00     0.099 C 
HETATM   26  N   UNK N   1      36.749  15.054  10.018  0.00  0.00    -0.281 N 
HETATM   27  N   UNK N   1      36.986  14.304  11.084  0.00  0.00    -0.277 N 
ATOM     28  HN  UNK N   1      37.356  15.170   9.207  1.00  0.00     0.189 HD
ATOM     29  HN  UNK N   1      37.811  13.729  11.255  1.00  0.00     0.189 HD
ENDBRANCH   1  22
TORSDOF 4
ENDMDL
MODEL 9
REMARK VINA RESULT:      -7.0      4.159      9.691
REMARK  4 active torsions:
REMARK  status: ('A' for Active; 'I' for Inactive)
REMARK    1  A    between atoms: C_4  and  N_24 
REMARK    2  A    between atoms: C_11  and  C_12 
REMARK    3  A    between atoms: C_18  and  C_19 
REMARK    4  A    between atoms: C_21  and  C_22 
REMARK       I    between atoms: C_22  and  N_24 
ROOT
HETATM    1  C   UNK N   1      26.363  16.148   4.179  0.00  0.00     0.017 A 
HETATM    2  C   UNK N   1      27.011  15.294   5.053  0.00  0.00     0.017 A 
HETATM    3  C   UNK N   1      28.038  15.769   5.853  0.00  0.00     0.014 A 
HETATM    4  C   UNK N   1      26.754  17.484   4.113  0.00  0.00     0.023 A 
HETATM    5  C   UNK N   1      27.793  17.986   4.914  0.00  0.00    -0.050 A 
HETATM    6  C   UNK N   1      28.061  19.427   4.730  0.00  0.00     0.049 C 
HETATM    7  C   UNK N   1      28.482  17.113   5.831  0.00  0.00    -0.019 A 
ENDROOT
BRANCH   7   8
HETATM    8  C   UNK N   1      29.628  17.416   6.812  0.00  0.00    -0.018 A 
HETATM    9  C   UNK N   1      30.918  17.167   6.288  0.00  0.00     0.030 A 
HETATM   10  C   UNK N   1      32.096  17.365   7.003  0.00  0.00     0.032 A 
HETATM   11  C   UNK N   1      32.021  17.840   8.307  0.00  0.00     0.017 A 
HETATM   12  C   UNK N   1      30.779  18.107   8.875  0.00  0.00     0.009 A 
HETATM   13  C   UNK N   1      29.585  17.902   8.166  0.00  0.00    -0.051 A 
HETATM   14  C   UNK N   1      28.364  18.239   8.925  0.00  0.00     0.049 C 
BRANCH  10  15
HETATM   15  C   UNK N   1      33.394  17.022   6.385  0.00  0.00     0.252 C 
HETATM   16  O   UNK N   1      34.199  17.905   6.125  0.00  0.00    -0.268 OA
HETATM   17  N   UNK N   1      33.705  15.719   6.148  0.00  0.00    -0.352 N 
HETATM   18  H   UNK N   1      33.024  15.034   6.343  0.00  0.00     0.163 HD
BRANCH  17  19
HETATM   19  C   UNK N   1      34.982  15.284   5.625  0.00  0.00     0.084 A 
HETATM   20  C   UNK N   1      35.712  14.496   6.696  0.00  0.00     0.027 A 
HETATM   21  C   UNK N   1      35.055  13.768   5.547  0.00  0.00     0.027 A 
ENDBRANCH  17  19
ENDBRANCH  10  15
ENDBRANCH   7   8
BRANCH   1  22
HETATM   22  C   UNK N   1      25.274  15.630   3.342  0.00  0.00     0.174 A 
HETATM   23  O   UNK N   1      25.450  14.897   2.267  0.00  0.00    -0.278 OA
HETATM   24  C   UNK N   1      24.252  14.639   1.811  0.00  0.00     0.136 A 
HETATM   25  C   UNK N   1      23.963  13.832   0.595  0.00  0.00     0.099 C 
HETATM   26  N   UNK N   1      23.314  15.205   2.593  0.00  0.00    -0.281 N 
HETATM   27  N   UNK N   1      23.962  15.832   3.564  0.00  0.00    -0.277 N 
ATOM     28  HN  UNK N   1      22.303  15.159   2.464  1.00  0.00     0.189 HD
ATOM     29  HN  UNK N   1      23.547  16.365   4.329  1.00  0.00     0.189 HD
ENDBRANCH   1  22
TORSDOF 4
ENDMDL
