MODEL 1
REMARK VINA RESULT:      -7.4      0.000      0.000
REMARK  6 active torsions:
REMARK  status: ('A' for Active; 'I' for Inactive)
REMARK    1  A    between atoms: C_1  and  C_2 
REMARK    2  A    between atoms: C_1  and  N_13 
REMARK    3  A    between atoms: C_2  and  C_17 
REMARK    4  A    between atoms: C_2  and  N_18 
REMARK    5  A    between atoms: C_3  and  C_4 
REMARK       I    between atoms: C_3  and  N_18 
REMARK    6  A    between atoms: C_8  and  C_9 
ROOT
HETATM    1  C   UNK N   1      34.103  15.619   9.668  0.00  0.00     0.073 A 
HETATM    2  C   UNK N   1      32.880  14.945   9.559  0.00  0.00     0.026 A 
HETATM    3  C   UNK N   1      32.592  16.677   7.985  0.00  0.00     0.017 A 
HETATM    4  C   UNK N   1      32.023  15.541   8.581  0.00  0.00     0.021 A 
HETATM    5  S   UNK N   1      34.054  16.909   8.687  0.00  0.00    -0.084 SA
ENDROOT
BRANCH   1   6
HETATM    6  C   UNK N   1      35.323  15.253  10.366  0.00  0.00     0.259 C 
HETATM    7  O   UNK N   1      36.262  16.041  10.351  0.00  0.00    -0.267 OA
HETATM    8  N   UNK N   1      35.434  14.072  11.011  0.00  0.00    -0.346 N 
HETATM    9  H   UNK N   1      34.766  13.366  10.852  0.00  0.00     0.163 HD
BRANCH   8  10
HETATM   10  C   UNK N   1      36.522  13.833  11.933  0.00  0.00     0.135 C 
BRANCH  10  11
HETATM   11  C   UNK N   1      37.594  12.960  11.282  0.00  0.00     0.141 C 
BRANCH  11  12
HETATM   12  N   UNK N   1      38.592  13.789  10.625  0.00  0.00    -0.428 N 
HETATM   13  H   UNK N   1      38.397  14.472   9.892  0.00  0.00     0.150 HD
HETATM   14  H   UNK N   1      39.562  13.681  10.920  0.00  0.00     0.150 HD
ENDBRANCH  11  12
ENDBRANCH  10  11
BRANCH  10  15
HETATM   15  C   UNK N   1      35.897  13.287  13.185  0.00  0.00    -0.034 A 
HETATM   16  C   UNK N   1      34.882  12.323  13.159  0.00  0.00     0.009 A 
HETATM   17  C   UNK N   1      34.323  11.867  14.356  0.00  0.00     0.001 A 
HETATM   18  C   UNK N   1      34.754  12.390  15.579  0.00  0.00     0.000 A 
HETATM   19  C   UNK N   1      35.757  13.360  15.612  0.00  0.00     0.001 A 
HETATM   20  C   UNK N   1      36.335  13.794  14.421  0.00  0.00     0.009 A 
ENDBRANCH  10  15
ENDBRANCH   8  10
ENDBRANCH   1   6
BRANCH   3  21
HETATM   21  C   UNK N   1      32.398  16.987   6.569  0.00  0.00    -0.004 A 
HETATM   22  C   UNK N   1      33.458  17.189   5.673  0.00  0.00     0.031 A 
HETATM   23  C   UNK N   1      33.171  17.574   4.342  0.00  0.00     0.090 A 
HETATM   24  N   UNK N   1      31.876  17.796   3.941  0.00  0.00    -0.352 N 
HETATM   25  C   UNK N   1      30.877  17.628   4.830  0.00  0.00     0.116 A 
ATOM     26  HN  UNK N   1      31.674  18.082   2.983  1.00  0.00     0.166 HD
HETATM   27  C   UNK N   1      31.091  17.234   6.103  0.00  0.00     0.021 A 
HETATM   28  N   UNK N   1      29.569  17.859   4.609  0.00  0.00    -0.352 N 
HETATM   29  C   UNK N   1      29.867  17.217   6.741  0.00  0.00     0.033 A 
HETATM   30  C   UNK N   1      28.942  17.605   5.781  0.00  0.00     0.090 A 
HETATM   31  H   UNK N   1      29.152  18.153   3.766  0.00  0.00     0.166 HD
ENDBRANCH   3  21
TORSDOF 6
ENDMDL
MODEL 2
REMARK VINA RESULT:      -7.3      4.639     10.070
REMARK  6 active torsions:
REMARK  status: ('A' for Active; 'I' for Inactive)
REMARK    1  A    between atoms: C_1  and  C_2 
REMARK    2  A    between atoms: C_1  and  N_13 
REMARK    3  A    between atoms: C_2  and  C_17 
REMARK    4  A    between atoms: C_2  and  N_18 
REMARK    5  A    between atoms: C_3  and  C_4 
REMARK       I    between atoms: C_3  and  N_18 
REMARK    6  A    between atoms: C_8  and  C_9 
ROOT
HETATM    1  C   UNK N   1      35.374  11.028  13.285  0.00  0.00     0.073 A 
HETATM    2  C   UNK N   1      34.137  10.569  13.752  0.00  0.00     0.026 A 
HETATM    3  C   UNK N   1      35.214  11.120  15.776  0.00  0.00     0.017 A 
HETATM    4  C   UNK N   1      34.039  10.640  15.178  0.00  0.00     0.021 A 
HETATM    5  S   UNK N   1      36.292  11.392  14.573  0.00  0.00    -0.084 SA
ENDROOT
BRANCH   1   6
HETATM    6  C   UNK N   1      35.825  11.323  11.936  0.00  0.00     0.259 C 
HETATM    7  O   UNK N   1      35.772  10.432  11.097  0.00  0.00    -0.267 OA
HETATM    8  N   UNK N   1      36.299  12.543  11.608  0.00  0.00    -0.346 N 
HETATM    9  H   UNK N   1      36.528  13.185  12.319  0.00  0.00     0.163 HD
BRANCH   8  10
HETATM   10  C   UNK N   1      36.474  12.919  10.222  0.00  0.00     0.135 C 
BRANCH  10  11
HETATM   11  C   UNK N   1      37.930  12.735   9.796  0.00  0.00     0.141 C 
BRANCH  11  12
HETATM   12  N   UNK N   1      38.825  13.268  10.811  0.00  0.00    -0.428 N 
HETATM   13  H   UNK N   1      39.067  14.254  10.920  0.00  0.00     0.150 HD
HETATM   14  H   UNK N   1      39.243  12.606  11.464  0.00  0.00     0.150 HD
ENDBRANCH  11  12
ENDBRANCH  10  11
BRANCH  10  15
HETATM   15  C   UNK N   1      35.921  14.310  10.092  0.00  0.00    -0.034 A 
HETATM   16  C   UNK N   1      35.932  15.225  11.152  0.00  0.00     0.009 A 
HETATM   17  C   UNK N   1      35.384  16.498  10.979  0.00  0.00     0.001 A 
HETATM   18  C   UNK N   1      34.797  16.853   9.760  0.00  0.00     0.000 A 
HETATM   19  C   UNK N   1      34.772  15.943   8.704  0.00  0.00     0.001 A 
HETATM   20  C   UNK N   1      35.343  14.683   8.866  0.00  0.00     0.009 A 
ENDBRANCH  10  15
ENDBRANCH   8  10
ENDBRANCH   1   6
BRANCH   3  21
HETATM   21  C   UNK N   1      35.184  11.993  16.948  0.00  0.00    -0.004 A 
HETATM   22  C   UNK N   1      35.214  13.393  16.866  0.00  0.00     0.031 A 
HETATM   23  C   UNK N   1      35.272  14.152  18.059  0.00  0.00     0.090 A 
HETATM   24  N   UNK N   1      35.349  13.531  19.281  0.00  0.00    -0.352 N 
HETATM   25  C   UNK N   1      35.354  12.184  19.333  0.00  0.00     0.116 A 
ATOM     26  HN  UNK N   1      35.400  14.081  20.138  1.00  0.00     0.166 HD
HETATM   27  C   UNK N   1      35.270  11.412  18.229  0.00  0.00     0.021 A 
HETATM   28  N   UNK N   1      35.480  11.430  20.441  0.00  0.00    -0.352 N 
HETATM   29  C   UNK N   1      35.355  10.096  18.639  0.00  0.00     0.033 A 
HETATM   30  C   UNK N   1      35.479  10.145  20.021  0.00  0.00     0.090 A 
HETATM   31  H   UNK N   1      35.557  11.750  21.370  0.00  0.00     0.166 HD
ENDBRANCH   3  21
TORSDOF 6
ENDMDL
MODEL 3
REMARK VINA RESULT:      -7.3     11.070     12.551
REMARK  6 active torsions:
REMARK  status: ('A' for Active; 'I' for Inactive)
REMARK    1  A    between atoms: C_1  and  C_2 
REMARK    2  A    between atoms: C_1  and  N_13 
REMARK    3  A    between atoms: C_2  and  C_17 
REMARK    4  A    between atoms: C_2  and  N_18 
REMARK    5  A    between atoms: C_3  and  C_4 
REMARK       I    between atoms: C_3  and  N_18 
REMARK    6  A    between atoms: C_8  and  C_9 
ROOT
HETATM    1  C   UNK N   1      22.332  15.755   6.303  0.00  0.00     0.073 A 
HETATM    2  C   UNK N   1      20.985  15.959   6.626  0.00  0.00     0.026 A 
HETATM    3  C   UNK N   1      21.192  17.265   4.674  0.00  0.00     0.017 A 
HETATM    4  C   UNK N   1      20.328  16.809   5.681  0.00  0.00     0.021 A 
HETATM    5  S   UNK N   1      22.676  16.654   4.998  0.00  0.00    -0.084 SA
ENDROOT
BRANCH   1   6
HETATM    6  C   UNK N   1      23.303  14.824   6.849  0.00  0.00     0.259 C 
HETATM    7  O   UNK N   1      24.488  15.136   6.826  0.00  0.00    -0.267 OA
HETATM    8  N   UNK N   1      22.921  13.636   7.366  0.00  0.00    -0.346 N 
HETATM    9  H   UNK N   1      22.009  13.304   7.200  0.00  0.00     0.163 HD
BRANCH   8  10
HETATM   10  C   UNK N   1      23.837  12.846   8.159  0.00  0.00     0.135 C 
BRANCH  10  11
HETATM   11  C   UNK N   1      24.315  11.627   7.371  0.00  0.00     0.141 C 
BRANCH  11  12
HETATM   12  N   UNK N   1      23.198  10.739   7.088  0.00  0.00    -0.428 N 
HETATM   13  H   UNK N   1      22.213  11.002   7.133  0.00  0.00     0.150 HD
HETATM   14  H   UNK N   1      23.416   9.778   6.825  0.00  0.00     0.150 HD
ENDBRANCH  11  12
ENDBRANCH  10  11
BRANCH  10  15
HETATM   15  C   UNK N   1      23.130  12.559   9.452  0.00  0.00    -0.034 A 
HETATM   16  C   UNK N   1      21.757  12.775   9.622  0.00  0.00     0.009 A 
HETATM   17  C   UNK N   1      21.157  12.509  10.857  0.00  0.00     0.001 A 
HETATM   18  C   UNK N   1      21.929  12.057  11.932  0.00  0.00     0.000 A 
HETATM   19  C   UNK N   1      23.299  11.851  11.773  0.00  0.00     0.001 A 
HETATM   20  C   UNK N   1      23.893  12.088  10.536  0.00  0.00     0.009 A 
ENDBRANCH  10  15
ENDBRANCH   8  10
ENDBRANCH   1   6
BRANCH   3  21
HETATM   21  C   UNK N   1      20.748  17.427   3.290  0.00  0.00    -0.004 A 
HETATM   22  C   UNK N   1      20.460  16.347   2.443  0.00  0.00     0.031 A 
HETATM   23  C   UNK N   1      20.124  16.601   1.091  0.00  0.00     0.090 A 
HETATM   24  N   UNK N   1      20.126  17.883   0.599  0.00  0.00    -0.352 N 
HETATM   25  C   UNK N   1      20.440  18.902   1.424  0.00  0.00     0.116 A 
ATOM     26  HN  UNK N   1      19.893  18.062  -0.378  1.00  0.00     0.166 HD
HETATM   27  C   UNK N   1      20.739  18.719   2.727  0.00  0.00     0.021 A 
HETATM   28  N   UNK N   1      20.541  20.200   1.082  0.00  0.00    -0.352 N 
HETATM   29  C   UNK N   1      21.057  19.955   3.254  0.00  0.00     0.033 A 
HETATM   30  C   UNK N   1      20.918  20.853   2.205  0.00  0.00     0.090 A 
HETATM   31  H   UNK N   1      20.373  20.595   0.195  0.00  0.00     0.166 HD
ENDBRANCH   3  21
TORSDOF 6
ENDMDL
MODEL 4
REMARK VINA RESULT:      -7.2      2.028      3.111
REMARK  6 active torsions:
REMARK  status: ('A' for Active; 'I' for Inactive)
REMARK    1  A    between atoms: C_1  and  C_2 
REMARK    2  A    between atoms: C_1  and  N_13 
REMARK    3  A    between atoms: C_2  and  C_17 
REMARK    4  A    between atoms: C_2  and  N_18 
REMARK    5  A    between atoms: C_3  and  C_4 
REMARK       I    between atoms: C_3  and  N_18 
REMARK    6  A    between atoms: C_8  and  C_9 
ROOT
HETATM    1  C   UNK N   1      34.072  16.573   8.494  0.00  0.00     0.073 A 
HETATM    2  C   UNK N   1      33.993  17.412   7.376  0.00  0.00     0.026 A 
HETATM    3  C   UNK N   1      31.723  16.864   7.701  0.00  0.00     0.017 A 
HETATM    4  C   UNK N   1      32.644  17.592   6.933  0.00  0.00     0.021 A 
HETATM    5  S   UNK N   1      32.578  16.033   8.823  0.00  0.00    -0.084 SA
ENDROOT
BRANCH   1   6
HETATM    6  C   UNK N   1      35.186  16.284   9.380  0.00  0.00     0.259 C 
HETATM    7  O   UNK N   1      35.516  17.134  10.199  0.00  0.00    -0.267 OA
HETATM    8  N   UNK N   1      35.853  15.113   9.306  0.00  0.00    -0.346 N 
HETATM    9  H   UNK N   1      35.722  14.526   8.526  0.00  0.00     0.163 HD
BRANCH   8  10
HETATM   10  C   UNK N   1      36.760  14.711  10.359  0.00  0.00     0.135 C 
BRANCH  10  11
HETATM   11  C   UNK N   1      38.089  14.238   9.771  0.00  0.00     0.141 C 
BRANCH  11  12
HETATM   12  N   UNK N   1      38.830  13.464  10.755  0.00  0.00    -0.428 N 
HETATM   13  H   UNK N   1      38.774  12.451  10.867  0.00  0.00     0.150 HD
HETATM   14  H   UNK N   1      39.454  13.972  11.381  0.00  0.00     0.150 HD
ENDBRANCH  11  12
ENDBRANCH  10  11
BRANCH  10  15
HETATM   15  C   UNK N   1      36.014  13.709  11.193  0.00  0.00    -0.034 A 
HETATM   16  C   UNK N   1      35.826  13.869  12.571  0.00  0.00     0.009 A 
HETATM   17  C   UNK N   1      35.142  12.892  13.300  0.00  0.00     0.001 A 
HETATM   18  C   UNK N   1      34.669  11.740  12.662  0.00  0.00     0.000 A 
HETATM   19  C   UNK N   1      34.863  11.569  11.292  0.00  0.00     0.001 A 
HETATM   20  C   UNK N   1      35.520  12.555  10.560  0.00  0.00     0.009 A 
ENDBRANCH  10  15
ENDBRANCH   8  10
ENDBRANCH   1   6
BRANCH   3  21
HETATM   21  C   UNK N   1      30.399  17.393   8.027  0.00  0.00    -0.004 A 
HETATM   22  C   UNK N   1      30.127  18.117   9.197  0.00  0.00     0.031 A 
HETATM   23  C   UNK N   1      28.795  18.511   9.469  0.00  0.00     0.090 A 
HETATM   24  N   UNK N   1      27.772  18.149   8.628  0.00  0.00    -0.352 N 
HETATM   25  C   UNK N   1      28.054  17.423   7.527  0.00  0.00     0.116 A 
ATOM     26  HN  UNK N   1      26.812  18.427   8.832  1.00  0.00     0.166 HD
HETATM   27  C   UNK N   1      29.309  17.046   7.204  0.00  0.00     0.021 A 
HETATM   28  N   UNK N   1      27.161  16.945   6.639  0.00  0.00    -0.352 N 
HETATM   29  C   UNK N   1      29.227  16.280   6.058  0.00  0.00     0.033 A 
HETATM   30  C   UNK N   1      27.878  16.243   5.732  0.00  0.00     0.090 A 
HETATM   31  H   UNK N   1      26.185  17.079   6.648  0.00  0.00     0.166 HD
ENDBRANCH   3  21
TORSDOF 6
ENDMDL
MODEL 5
REMARK VINA RESULT:      -7.1      2.527      8.951
REMARK  6 active torsions:
REMARK  status: ('A' for Active; 'I' for Inactive)
REMARK    1  A    between atoms: C_1  and  C_2 
REMARK    2  A    between atoms: C_1  and  N_13 
REMARK    3  A    between atoms: C_2  and  C_17 
REMARK    4  A    between atoms: C_2  and  N_18 
REMARK    5  A    between atoms: C_3  and  C_4 
REMARK       I    between atoms: C_3  and  N_18 
REMARK    6  A    between atoms: C_8  and  C_9 
ROOT
HETATM    1  C   UNK N   1      35.171  15.919   9.841  0.00  0.00     0.073 A 
HETATM    2  C   UNK N   1      35.798  14.823   9.236  0.00  0.00     0.026 A 
HETATM    3  C   UNK N   1      36.019  14.274  11.518  0.00  0.00     0.017 A 
HETATM    4  C   UNK N   1      36.267  13.872  10.196  0.00  0.00     0.021 A 
HETATM    5  S   UNK N   1      35.295  15.741  11.449  0.00  0.00    -0.084 SA
ENDROOT
BRANCH   1   6
HETATM    6  C   UNK N   1      34.384  16.995   9.264  0.00  0.00     0.259 C 
HETATM    7  O   UNK N   1      34.932  18.070   9.055  0.00  0.00    -0.267 OA
HETATM    8  N   UNK N   1      33.078  16.826   8.969  0.00  0.00    -0.346 N 
HETATM    9  H   UNK N   1      32.596  16.042   9.321  0.00  0.00     0.163 HD
BRANCH   8  10
HETATM   10  C   UNK N   1      32.377  17.784   8.142  0.00  0.00     0.135 C 
BRANCH  10  11
HETATM   11  C   UNK N   1      31.018  18.125   8.751  0.00  0.00     0.141 C 
BRANCH  11  12
HETATM   12  N   UNK N   1      30.586  17.065   9.649  0.00  0.00    -0.428 N 
HETATM   13  H   UNK N   1      29.802  17.131  10.300  0.00  0.00     0.150 HD
HETATM   14  H   UNK N   1      31.106  16.189   9.627  0.00  0.00     0.150 HD
ENDBRANCH  11  12
ENDBRANCH  10  11
BRANCH  10  15
HETATM   15  C   UNK N   1      32.352  17.202   6.758  0.00  0.00    -0.034 A 
HETATM   16  C   UNK N   1      31.366  16.300   6.340  0.00  0.00     0.009 A 
HETATM   17  C   UNK N   1      31.406  15.774   5.045  0.00  0.00     0.001 A 
HETATM   18  C   UNK N   1      32.444  16.123   4.175  0.00  0.00     0.000 A 
HETATM   19  C   UNK N   1      33.436  17.012   4.589  0.00  0.00     0.001 A 
HETATM   20  C   UNK N   1      33.381  17.558   5.869  0.00  0.00     0.009 A 
ENDBRANCH  10  15
ENDBRANCH   8  10
ENDBRANCH   1   6
BRANCH   3  21
HETATM   21  C   UNK N   1      35.648  13.318  12.560  0.00  0.00    -0.004 A 
HETATM   22  C   UNK N   1      34.819  12.210  12.328  0.00  0.00     0.031 A 
HETATM   23  C   UNK N   1      34.443  11.391  13.419  0.00  0.00     0.090 A 
HETATM   24  N   UNK N   1      34.840  11.700  14.696  0.00  0.00    -0.352 N 
HETATM   25  C   UNK N   1      35.608  12.790  14.899  0.00  0.00     0.116 A 
ATOM     26  HN  UNK N   1      34.559  11.113  15.482  1.00  0.00     0.166 HD
HETATM   27  C   UNK N   1      36.021  13.588  13.892  0.00  0.00     0.021 A 
HETATM   28  N   UNK N   1      36.031  13.255  16.089  0.00  0.00    -0.352 N 
HETATM   29  C   UNK N   1      36.737  14.625  14.456  0.00  0.00     0.033 A 
HETATM   30  C   UNK N   1      36.728  14.384  15.823  0.00  0.00     0.090 A 
HETATM   31  H   UNK N   1      35.866  12.856  16.975  0.00  0.00     0.166 HD
ENDBRANCH   3  21
TORSDOF 6
ENDMDL
MODEL 6
REMARK VINA RESULT:      -7.1      3.046      9.331
REMARK  6 active torsions:
REMARK  status: ('A' for Active; 'I' for Inactive)
REMARK    1  A    between atoms: C_1  and  C_2 
REMARK    2  A    between atoms: C_1  and  N_13 
REMARK    3  A    between atoms: C_2  and  C_17 
REMARK    4  A    between atoms: C_2  and  N_18 
REMARK    5  A    between atoms: C_3  and  C_4 
REMARK       I    between atoms: C_3  and  N_18 
REMARK    6  A    between atoms: C_8  and  C_9 
ROOT
HETATM    1  C   UNK N   1      32.031  17.099   6.755  0.00  0.00     0.073 A 
HETATM    2  C   UNK N   1      33.217  17.609   6.212  0.00  0.00     0.026 A 
HETATM    3  C   UNK N   1      33.887  17.147   8.425  0.00  0.00     0.017 A 
HETATM    4  C   UNK N   1      34.285  17.618   7.164  0.00  0.00     0.021 A 
HETATM    5  S   UNK N   1      32.292  16.788   8.326  0.00  0.00    -0.084 SA
ENDROOT
BRANCH   1   6
HETATM    6  C   UNK N   1      30.784  16.723   6.114  0.00  0.00     0.259 C 
HETATM    7  O   UNK N   1      30.286  15.640   6.397  0.00  0.00    -0.267 OA
HETATM    8  N   UNK N   1      30.184  17.536   5.219  0.00  0.00    -0.346 N 
HETATM    9  H   UNK N   1      30.681  18.300   4.845  0.00  0.00     0.163 HD
BRANCH   8  10
HETATM   10  C   UNK N   1      28.819  17.297   4.802  0.00  0.00     0.135 C 
BRANCH  10  11
HETATM   11  C   UNK N   1      28.781  16.771   3.368  0.00  0.00     0.141 C 
BRANCH  11  12
HETATM   12  N   UNK N   1      30.085  16.916   2.741  0.00  0.00    -0.428 N 
HETATM   13  H   UNK N   1      30.981  16.821   3.221  0.00  0.00     0.150 HD
HETATM   14  H   UNK N   1      30.106  17.129   1.744  0.00  0.00     0.150 HD
ENDBRANCH  11  12
ENDBRANCH  10  11
BRANCH  10  15
HETATM   15  C   UNK N   1      28.076  18.578   5.054  0.00  0.00    -0.034 A 
HETATM   16  C   UNK N   1      27.482  19.318   4.024  0.00  0.00     0.009 A 
HETATM   17  C   UNK N   1      26.821  20.514   4.316  0.00  0.00     0.001 A 
HETATM   18  C   UNK N   1      26.774  20.990   5.630  0.00  0.00     0.000 A 
HETATM   19  C   UNK N   1      27.373  20.264   6.660  0.00  0.00     0.001 A 
HETATM   20  C   UNK N   1      28.008  19.058   6.374  0.00  0.00     0.009 A 
ENDBRANCH  10  15
ENDBRANCH   8  10
ENDBRANCH   1   6
BRANCH   3  21
HETATM   21  C   UNK N   1      34.773  16.340   9.263  0.00  0.00    -0.004 A 
HETATM   22  C   UNK N   1      35.262  16.772  10.505  0.00  0.00     0.031 A 
HETATM   23  C   UNK N   1      36.186  15.958  11.203  0.00  0.00     0.090 A 
HETATM   24  N   UNK N   1      36.639  14.784  10.653  0.00  0.00    -0.352 N 
HETATM   25  C   UNK N   1      36.181  14.407   9.443  0.00  0.00     0.116 A 
ATOM     26  HN  UNK N   1      37.312  14.205  11.155  1.00  0.00     0.166 HD
HETATM   27  C   UNK N   1      35.277  15.129   8.748  0.00  0.00     0.021 A 
HETATM   28  N   UNK N   1      36.568  13.319   8.749  0.00  0.00    -0.352 N 
HETATM   29  C   UNK N   1      35.075  14.486   7.543  0.00  0.00     0.033 A 
HETATM   30  C   UNK N   1      35.889  13.362   7.580  0.00  0.00     0.090 A 
HETATM   31  H   UNK N   1      37.214  12.632   9.035  0.00  0.00     0.166 HD
ENDBRANCH   3  21
TORSDOF 6
ENDMDL
MODEL 7
REMARK VINA RESULT:      -7.0      5.497      8.525
REMARK  6 active torsions:
REMARK  status: ('A' for Active; 'I' for Inactive)
REMARK    1  A    between atoms: C_1  and  C_2 
REMARK    2  A    between atoms: C_1  and  N_13 
REMARK    3  A    between atoms: C_2  and  C_17 
REMARK    4  A    between atoms: C_2  and  N_18 
REMARK    5  A    between atoms: C_3  and  C_4 
REMARK       I    between atoms: C_3  and  N_18 
REMARK    6  A    between atoms: C_8  and  C_9 
ROOT
HETATM    1  C   UNK N   1      34.896  12.066  16.272  0.00  0.00     0.073 A 
HETATM    2  C   UNK N   1      34.157  11.178  15.482  0.00  0.00     0.026 A 
HETATM    3  C   UNK N   1      35.163  12.530  13.833  0.00  0.00     0.017 A 
HETATM    4  C   UNK N   1      34.325  11.433  14.084  0.00  0.00     0.021 A 
HETATM    5  S   UNK N   1      35.613  13.137  15.286  0.00  0.00    -0.084 SA
ENDROOT
BRANCH   1   6
HETATM    6  C   UNK N   1      35.181  12.051  17.696  0.00  0.00     0.259 C 
HETATM    7  O   UNK N   1      35.121  13.107  18.315  0.00  0.00    -0.267 OA
HETATM    8  N   UNK N   1      35.514  10.906  18.330  0.00  0.00    -0.346 N 
HETATM    9  H   UNK N   1      35.758  10.110  17.804  0.00  0.00     0.163 HD
BRANCH   8  10
HETATM   10  C   UNK N   1      35.516  10.836  19.776  0.00  0.00     0.135 C 
BRANCH  10  11
HETATM   11  C   UNK N   1      36.839  10.266  20.283  0.00  0.00     0.141 C 
BRANCH  11  12
HETATM   12  N   UNK N   1      37.188  10.859  21.564  0.00  0.00    -0.428 N 
HETATM   13  H   UNK N   1      36.907  11.790  21.876  0.00  0.00     0.150 HD
HETATM   14  H   UNK N   1      37.758  10.303  22.200  0.00  0.00     0.150 HD
ENDBRANCH  11  12
ENDBRANCH  10  11
BRANCH  10  15
HETATM   15  C   UNK N   1      34.280  10.074  20.159  0.00  0.00    -0.034 A 
HETATM   16  C   UNK N   1      33.741   9.062  19.355  0.00  0.00     0.009 A 
HETATM   17  C   UNK N   1      32.575   8.402  19.753  0.00  0.00     0.001 A 
HETATM   18  C   UNK N   1      31.928   8.767  20.938  0.00  0.00     0.000 A 
HETATM   19  C   UNK N   1      32.453   9.783  21.738  0.00  0.00     0.001 A 
HETATM   20  C   UNK N   1      33.630  10.422  21.357  0.00  0.00     0.009 A 
ENDBRANCH  10  15
ENDBRANCH   8  10
ENDBRANCH   1   6
BRANCH   3  21
HETATM   21  C   UNK N   1      36.095  12.549  12.706  0.00  0.00    -0.004 A 
HETATM   22  C   UNK N   1      36.986  11.502  12.428  0.00  0.00     0.031 A 
HETATM   23  C   UNK N   1      37.913  11.651  11.368  0.00  0.00     0.090 A 
HETATM   24  N   UNK N   1      37.976  12.820  10.652  0.00  0.00    -0.352 N 
HETATM   25  C   UNK N   1      37.132  13.825  10.962  0.00  0.00     0.116 A 
ATOM     26  HN  UNK N   1      38.652  12.927   9.895  1.00  0.00     0.166 HD
HETATM   27  C   UNK N   1      36.210  13.727  11.941  0.00  0.00     0.021 A 
HETATM   28  N   UNK N   1      37.107  15.046  10.394  0.00  0.00    -0.352 N 
HETATM   29  C   UNK N   1      35.561  14.943  12.021  0.00  0.00     0.033 A 
HETATM   30  C   UNK N   1      36.141  15.738  11.041  0.00  0.00     0.090 A 
HETATM   31  H   UNK N   1      37.677  15.370   9.658  0.00  0.00     0.166 HD
ENDBRANCH   3  21
TORSDOF 6
ENDMDL
MODEL 8
REMARK VINA RESULT:      -6.9      2.264      8.816
REMARK  6 active torsions:
REMARK  status: ('A' for Active; 'I' for Inactive)
REMARK    1  A    between atoms: C_1  and  C_2 
REMARK    2  A    between atoms: C_1  and  N_13 
REMARK    3  A    between atoms: C_2  and  C_17 
REMARK    4  A    between atoms: C_2  and  N_18 
REMARK    5  A    between atoms: C_3  and  C_4 
REMARK       I    between atoms: C_3  and  N_18 
REMARK    6  A    between atoms: C_8  and  C_9 
ROOT
HETATM    1  C   UNK N   1      34.032  15.572   9.710  0.00  0.00     0.073 A 
HETATM    2  C   UNK N   1      35.070  16.467   9.997  0.00  0.00     0.026 A 
HETATM    3  C   UNK N   1      35.450  14.791  11.611  0.00  0.00     0.017 A 
HETATM    4  C   UNK N   1      35.893  16.009  11.074  0.00  0.00     0.021 A 
HETATM    5  S   UNK N   1      34.097  14.365  10.792  0.00  0.00    -0.084 SA
ENDROOT
BRANCH   1   6
HETATM    6  C   UNK N   1      33.104  15.528   8.593  0.00  0.00     0.259 C 
HETATM    7  O   UNK N   1      32.592  14.454   8.302  0.00  0.00    -0.267 OA
HETATM    8  N   UNK N   1      32.812  16.638   7.883  0.00  0.00    -0.346 N 
HETATM    9  H   UNK N   1      33.369  17.444   7.986  0.00  0.00     0.163 HD
BRANCH   8  10
HETATM   10  C   UNK N   1      31.689  16.658   6.971  0.00  0.00     0.135 C 
BRANCH  10  11
HETATM   11  C   UNK N   1      32.092  17.286   5.638  0.00  0.00     0.141 C 
BRANCH  11  12
HETATM   12  N   UNK N   1      33.516  17.583   5.628  0.00  0.00    -0.428 N 
HETATM   13  H   UNK N   1      33.929  18.469   5.333  0.00  0.00     0.150 HD
HETATM   14  H   UNK N   1      34.151  16.849   5.941  0.00  0.00     0.150 HD
ENDBRANCH  11  12
ENDBRANCH  10  11
BRANCH  10  15
HETATM   15  C   UNK N   1      30.566  17.333   7.705  0.00  0.00    -0.034 A 
HETATM   16  C   UNK N   1      30.776  18.110   8.851  0.00  0.00     0.009 A 
HETATM   17  C   UNK N   1      29.689  18.696   9.504  0.00  0.00     0.001 A 
HETATM   18  C   UNK N   1      28.388  18.488   9.035  0.00  0.00     0.000 A 
HETATM   19  C   UNK N   1      28.170  17.706   7.900  0.00  0.00     0.001 A 
HETATM   20  C   UNK N   1      29.255  17.144   7.232  0.00  0.00     0.009 A 
ENDBRANCH  10  15
ENDBRANCH   8  10
ENDBRANCH   1   6
BRANCH   3  21
HETATM   21  C   UNK N   1      36.384  13.765  12.074  0.00  0.00    -0.004 A 
HETATM   22  C   UNK N   1      37.233  13.053  11.213  0.00  0.00     0.031 A 
HETATM   23  C   UNK N   1      38.038  12.016  11.742  0.00  0.00     0.090 A 
HETATM   24  N   UNK N   1      37.955  11.674  13.069  0.00  0.00    -0.352 N 
HETATM   25  C   UNK N   1      37.106  12.350  13.870  0.00  0.00     0.116 A 
ATOM     26  HN  UNK N   1      38.530  10.920  13.445  1.00  0.00     0.166 HD
HETATM   27  C   UNK N   1      36.338  13.366  13.424  0.00  0.00     0.021 A 
HETATM   28  N   UNK N   1      36.870  12.100  15.171  0.00  0.00    -0.352 N 
HETATM   29  C   UNK N   1      35.561  13.790  14.484  0.00  0.00     0.033 A 
HETATM   30  C   UNK N   1      35.922  12.985  15.555  0.00  0.00     0.090 A 
HETATM   31  H   UNK N   1      37.301  11.412  15.731  0.00  0.00     0.166 HD
ENDBRANCH   3  21
TORSDOF 6
ENDMDL
MODEL 9
REMARK VINA RESULT:      -6.8     15.170     17.420
REMARK  6 active torsions:
REMARK  status: ('A' for Active; 'I' for Inactive)
REMARK    1  A    between atoms: C_1  and  C_2 
REMARK    2  A    between atoms: C_1  and  N_13 
REMARK    3  A    between atoms: C_2  and  C_17 
REMARK    4  A    between atoms: C_2  and  N_18 
REMARK    5  A    between atoms: C_3  and  C_4 
REMARK       I    between atoms: C_3  and  N_18 
REMARK    6  A    between atoms: C_8  and  C_9 
ROOT
HETATM    1  C   UNK N   1      30.227  22.950  -3.067  0.00  0.00     0.073 A 
HETATM    2  C   UNK N   1      29.220  22.797  -2.105  0.00  0.00     0.026 A 
HETATM    3  C   UNK N   1      28.281  24.456  -3.492  0.00  0.00     0.017 A 
HETATM    4  C   UNK N   1      28.098  23.646  -2.360  0.00  0.00     0.021 A 
HETATM    5  S   UNK N   1      29.772  24.129  -4.084  0.00  0.00    -0.084 SA
ENDROOT
BRANCH   1   6
HETATM    6  C   UNK N   1      31.423  22.165  -3.316  0.00  0.00     0.259 C 
HETATM    7  O   UNK N   1      32.045  21.731  -2.354  0.00  0.00    -0.267 OA
HETATM    8  N   UNK N   1      31.851  21.921  -4.572  0.00  0.00    -0.346 N 
HETATM    9  H   UNK N   1      31.472  22.433  -5.324  0.00  0.00     0.163 HD
BRANCH   8  10
HETATM   10  C   UNK N   1      32.859  20.916  -4.828  0.00  0.00     0.135 C 
BRANCH  10  11
HETATM   11  C   UNK N   1      34.251  21.544  -4.842  0.00  0.00     0.141 C 
BRANCH  11  12
HETATM   12  N   UNK N   1      35.030  21.075  -3.706  0.00  0.00    -0.428 N 
HETATM   13  H   UNK N   1      35.502  21.677  -3.030  0.00  0.00     0.150 HD
HETATM   14  H   UNK N   1      35.110  20.067  -3.575  0.00  0.00     0.150 HD
ENDBRANCH  11  12
ENDBRANCH  10  11
BRANCH  10  15
HETATM   15  C   UNK N   1      32.440  20.214  -6.088  0.00  0.00    -0.034 A 
HETATM   16  C   UNK N   1      33.365  19.678  -6.993  0.00  0.00     0.009 A 
HETATM   17  C   UNK N   1      32.916  19.054  -8.160  0.00  0.00     0.001 A 
HETATM   18  C   UNK N   1      31.548  18.988  -8.443  0.00  0.00     0.000 A 
HETATM   19  C   UNK N   1      30.622  19.530  -7.551  0.00  0.00     0.001 A 
HETATM   20  C   UNK N   1      31.066  20.127  -6.374  0.00  0.00     0.009 A 
ENDBRANCH  10  15
ENDBRANCH   8  10
ENDBRANCH   1   6
BRANCH   3  21
HETATM   21  C   UNK N   1      27.180  24.773  -4.401  0.00  0.00    -0.004 A 
HETATM   22  C   UNK N   1      26.854  23.988  -5.517  0.00  0.00     0.031 A 
HETATM   23  C   UNK N   1      25.829  24.424  -6.390  0.00  0.00     0.090 A 
HETATM   24  N   UNK N   1      25.194  25.623  -6.181  0.00  0.00    -0.352 N 
HETATM   25  C   UNK N   1      25.550  26.377  -5.121  0.00  0.00     0.116 A 
ATOM     26  HN  UNK N   1      24.462  25.939  -6.818  1.00  0.00     0.166 HD
HETATM   27  C   UNK N   1      26.498  25.996  -4.240  0.00  0.00     0.021 A 
HETATM   28  N   UNK N   1      25.065  27.595  -4.812  0.00  0.00    -0.352 N 
HETATM   29  C   UNK N   1      26.643  27.017  -3.322  0.00  0.00     0.033 A 
HETATM   30  C   UNK N   1      25.733  27.993  -3.705  0.00  0.00     0.090 A 
HETATM   31  H   UNK N   1      24.366  28.095  -5.295  0.00  0.00     0.166 HD
ENDBRANCH   3  21
TORSDOF 6
ENDMDL
