MODEL 1
REMARK VINA RESULT:      -7.4      0.000      0.000
REMARK  6 active torsions:
REMARK  status: ('A' for Active; 'I' for Inactive)
REMARK    1  A    between atoms: N_1  and  C_2 
REMARK    2  A    between atoms: C_2  and  C_3 
REMARK       I    between atoms: C_3  and  N_5 
REMARK    3  A    between atoms: N_5  and  C_6 
REMARK    4  A    between atoms: C_6  and  C_8 
REMARK       I    between atoms: C_8  and  N_10 
REMARK    5  A    between atoms: C_12  and  C_15 
REMARK       I    between atoms: C_15  and  N_17 
REMARK    6  A    between atoms: N_17  and  C_18 
ROOT
HETATM    1  C   UNK N   1      30.731  17.196   6.887  0.00  0.00     0.243 C 
HETATM    2  O   UNK N   1      29.574  16.855   7.018  0.00  0.00    -0.271 OA
HETATM    3  N   UNK N   1      31.358  17.104   5.658  0.00  0.00    -0.337 N 
HETATM    4  C   UNK N   1      32.724  17.517   5.487  0.00  0.00     0.127 C 
HETATM    5  C   UNK N   1      30.808  16.467   4.458  0.00  0.00     0.179 C 
HETATM    6  C   UNK N   1      31.764  16.901   3.359  0.00  0.00     0.037 C 
HETATM    7  C   UNK N   1      33.094  17.101   4.071  0.00  0.00     0.022 C 
ENDROOT
BRANCH   5   8
HETATM    8  C   UNK N   1      29.346  16.716   4.124  0.00  0.00     0.245 C 
HETATM    9  O   UNK N   1      28.589  15.802   3.823  0.00  0.00    -0.271 OA
HETATM   10  N   UNK N   1      28.893  17.984   4.248  0.00  0.00    -0.325 N 
HETATM   11  H   UNK N   1      29.578  18.630   4.534  0.00  0.00     0.169 HD
BRANCH  10  12
HETATM   12  C   UNK N   1      27.616  18.548   4.042  0.00  0.00     0.035 A 
HETATM   13  C   UNK N   1      26.526  17.692   4.196  0.00  0.00     0.042 A 
HETATM   14  C   UNK N   1      25.231  18.147   4.012  0.00  0.00    -0.024 A 
HETATM   15  C   UNK N   1      25.007  19.491   3.648  0.00  0.00    -0.026 A 
HETATM   16  C   UNK N   1      24.156  17.272   4.186  0.00  0.00     0.012 A 
HETATM   17  C   UNK N   1      23.697  19.941   3.455  0.00  0.00     0.012 A 
HETATM   18  C   UNK N   1      26.098  20.360   3.488  0.00  0.00     0.014 A 
HETATM   19  C   UNK N   1      22.621  19.059   3.628  0.00  0.00     0.001 A 
HETATM   20  C   UNK N   1      22.851  17.729   3.997  0.00  0.00     0.001 A 
HETATM   21  C   UNK N   1      27.408  19.891   3.690  0.00  0.00     0.030 A 
ENDBRANCH  10  12
ENDBRANCH   5   8
BRANCH   1  22
HETATM   22  C   UNK N   1      31.455  17.697   8.128  0.00  0.00     0.172 C 
HETATM   23  C   UNK N   1      30.505  18.389   9.087  0.00  0.00     0.042 C 
BRANCH  22  24
HETATM   24  N   UNK N   1      32.054  16.561   8.814  0.00  0.00    -0.347 N 
HETATM   25  C   UNK N   1      33.387  16.394   9.012  0.00  0.00     0.235 C 
HETATM   26  O   UNK N   1      34.179  17.278   8.725  0.00  0.00    -0.272 OA
HETATM   27  H   UNK N   1      31.451  15.864   9.159  0.00  0.00     0.163 HD
BRANCH  25  28
HETATM   28  C   UNK N   1      33.893  15.106   9.579  0.00  0.00     0.214 C 
BRANCH  28  29
HETATM   29  N   UNK N   1      33.394  14.911  10.928  0.00  0.00    -0.422 N 
HETATM   30  H   UNK N   1      33.377  14.621  11.905  0.00  0.00     0.150 HD
HETATM   31  H   UNK N   1      32.470  15.335  10.845  0.00  0.00     0.150 HD
ENDBRANCH  28  29
ENDBRANCH  25  28
ENDBRANCH  22  24
ENDBRANCH   1  22
TORSDOF 6
ENDMDL
MODEL 2
REMARK VINA RESULT:      -7.4      6.459     12.512
REMARK  6 active torsions:
REMARK  status: ('A' for Active; 'I' for Inactive)
REMARK    1  A    between atoms: N_1  and  C_2 
REMARK    2  A    between atoms: C_2  and  C_3 
REMARK       I    between atoms: C_3  and  N_5 
REMARK    3  A    between atoms: N_5  and  C_6 
REMARK    4  A    between atoms: C_6  and  C_8 
REMARK       I    between atoms: C_8  and  N_10 
REMARK    5  A    between atoms: C_12  and  C_15 
REMARK       I    between atoms: C_15  and  N_17 
REMARK    6  A    between atoms: N_17  and  C_18 
ROOT
HETATM    1  C   UNK N   1      35.803  14.436   8.980  0.00  0.00     0.243 C 
HETATM    2  O   UNK N   1      35.193  14.513  10.027  0.00  0.00    -0.271 OA
HETATM    3  N   UNK N   1      37.076  13.898   8.946  0.00  0.00    -0.337 N 
HETATM    4  C   UNK N   1      37.804  13.789   7.712  0.00  0.00     0.127 C 
HETATM    5  C   UNK N   1      37.885  13.526  10.111  0.00  0.00     0.179 C 
HETATM    6  C   UNK N   1      39.037  12.743   9.505  0.00  0.00     0.037 C 
HETATM    7  C   UNK N   1      39.198  13.326   8.108  0.00  0.00     0.022 C 
ENDROOT
BRANCH   5   8
HETATM    8  C   UNK N   1      37.195  12.803  11.257  0.00  0.00     0.245 C 
HETATM    9  O   UNK N   1      36.672  11.707  11.104  0.00  0.00    -0.271 OA
HETATM   10  N   UNK N   1      37.252  13.386  12.476  0.00  0.00    -0.325 N 
HETATM   11  H   UNK N   1      37.732  14.245  12.490  0.00  0.00     0.169 HD
BRANCH  10  12
HETATM   12  C   UNK N   1      36.747  12.984  13.731  0.00  0.00     0.035 A 
HETATM   13  C   UNK N   1      37.165  11.740  14.200  0.00  0.00     0.042 A 
HETATM   14  C   UNK N   1      36.723  11.253  15.420  0.00  0.00    -0.024 A 
HETATM   15  C   UNK N   1      35.826  12.017  16.194  0.00  0.00    -0.026 A 
HETATM   16  C   UNK N   1      37.168  10.009  15.873  0.00  0.00     0.012 A 
HETATM   17  C   UNK N   1      35.378  11.515  17.420  0.00  0.00     0.012 A 
HETATM   18  C   UNK N   1      35.397  13.270  15.729  0.00  0.00     0.014 A 
HETATM   19  C   UNK N   1      35.824  10.264  17.870  0.00  0.00     0.001 A 
HETATM   20  C   UNK N   1      36.720   9.516  17.099  0.00  0.00     0.001 A 
HETATM   21  C   UNK N   1      35.862  13.761  14.496  0.00  0.00     0.030 A 
ENDBRANCH  10  12
ENDBRANCH   5   8
BRANCH   1  22
HETATM   22  C   UNK N   1      35.119  14.976   7.733  0.00  0.00     0.172 C 
HETATM   23  C   UNK N   1      34.382  13.883   6.983  0.00  0.00     0.042 C 
BRANCH  22  24
HETATM   24  N   UNK N   1      34.155  15.994   8.128  0.00  0.00    -0.347 N 
HETATM   25  C   UNK N   1      34.046  17.218   7.551  0.00  0.00     0.235 C 
HETATM   26  O   UNK N   1      34.690  17.501   6.553  0.00  0.00    -0.272 OA
HETATM   27  H   UNK N   1      33.540  15.780   8.865  0.00  0.00     0.163 HD
BRANCH  25  28
HETATM   28  C   UNK N   1      33.135  18.238   8.154  0.00  0.00     0.214 C 
BRANCH  28  29
HETATM   29  N   UNK N   1      32.017  17.595   8.820  0.00  0.00    -0.422 N 
HETATM   30  H   UNK N   1      31.378  16.856   9.111  0.00  0.00     0.150 HD
HETATM   31  H   UNK N   1      31.612  18.393   9.311  0.00  0.00     0.150 HD
ENDBRANCH  28  29
ENDBRANCH  25  28
ENDBRANCH  22  24
ENDBRANCH   1  22
TORSDOF 6
ENDMDL
MODEL 3
REMARK VINA RESULT:      -7.4      3.476      9.164
REMARK  6 active torsions:
REMARK  status: ('A' for Active; 'I' for Inactive)
REMARK    1  A    between atoms: N_1  and  C_2 
REMARK    2  A    between atoms: C_2  and  C_3 
REMARK       I    between atoms: C_3  and  N_5 
REMARK    3  A    between atoms: N_5  and  C_6 
REMARK    4  A    between atoms: C_6  and  C_8 
REMARK       I    between atoms: C_8  and  N_10 
REMARK    5  A    between atoms: C_12  and  C_15 
REMARK       I    between atoms: C_15  and  N_17 
REMARK    6  A    between atoms: N_17  and  C_18 
ROOT
HETATM    1  C   UNK N   1      24.700  18.510   4.058  0.00  0.00     0.243 C 
HETATM    2  O   UNK N   1      25.816  18.243   3.664  0.00  0.00    -0.271 OA
HETATM    3  N   UNK N   1      24.015  17.634   4.879  0.00  0.00    -0.337 N 
HETATM    4  C   UNK N   1      22.697  17.944   5.362  0.00  0.00     0.127 C 
HETATM    5  C   UNK N   1      24.437  16.275   5.230  0.00  0.00     0.179 C 
HETATM    6  C   UNK N   1      23.489  15.890   6.354  0.00  0.00     0.037 C 
HETATM    7  C   UNK N   1      22.221  16.684   6.068  0.00  0.00     0.022 C 
ENDROOT
BRANCH   5   8
HETATM    8  C   UNK N   1      25.902  16.048   5.568  0.00  0.00     0.245 C 
HETATM    9  O   UNK N   1      26.509  15.063   5.170  0.00  0.00    -0.271 OA
HETATM   10  N   UNK N   1      26.532  17.023   6.262  0.00  0.00    -0.325 N 
HETATM   11  H   UNK N   1      25.958  17.788   6.495  0.00  0.00     0.169 HD
BRANCH  10  12
HETATM   12  C   UNK N   1      27.864  17.141   6.714  0.00  0.00     0.035 A 
HETATM   13  C   UNK N   1      28.856  17.132   5.734  0.00  0.00     0.042 A 
HETATM   14  C   UNK N   1      30.194  17.239   6.074  0.00  0.00    -0.024 A 
HETATM   15  C   UNK N   1      30.565  17.342   7.431  0.00  0.00    -0.026 A 
HETATM   16  C   UNK N   1      31.167  17.242   5.072  0.00  0.00     0.012 A 
HETATM   17  C   UNK N   1      31.919  17.441   7.767  0.00  0.00     0.012 A 
HETATM   18  C   UNK N   1      29.574  17.349   8.425  0.00  0.00     0.014 A 
HETATM   19  C   UNK N   1      32.892  17.440   6.759  0.00  0.00     0.001 A 
HETATM   20  C   UNK N   1      32.516  17.345   5.414  0.00  0.00     0.001 A 
HETATM   21  C   UNK N   1      28.217  17.253   8.068  0.00  0.00     0.030 A 
ENDBRANCH  10  12
ENDBRANCH   5   8
BRANCH   1  22
HETATM   22  C   UNK N   1      24.091  19.823   3.588  0.00  0.00     0.172 C 
HETATM   23  C   UNK N   1      25.089  20.652   2.803  0.00  0.00     0.042 C 
BRANCH  22  24
HETATM   24  N   UNK N   1      22.954  19.534   2.726  0.00  0.00    -0.347 N 
HETATM   25  C   UNK N   1      21.946  20.404   2.461  0.00  0.00     0.235 C 
HETATM   26  O   UNK N   1      21.999  21.562   2.844  0.00  0.00    -0.272 OA
HETATM   27  H   UNK N   1      22.912  18.645   2.306  0.00  0.00     0.163 HD
BRANCH  25  28
HETATM   28  C   UNK N   1      20.748  19.934   1.698  0.00  0.00     0.214 C 
BRANCH  28  29
HETATM   29  N   UNK N   1      20.503  20.792   0.553  0.00  0.00    -0.422 N 
HETATM   30  H   UNK N   1      20.699  21.385  -0.253  0.00  0.00     0.150 HD
HETATM   31  H   UNK N   1      19.483  20.818   0.558  0.00  0.00     0.150 HD
ENDBRANCH  28  29
ENDBRANCH  25  28
ENDBRANCH  22  24
ENDBRANCH   1  22
TORSDOF 6
ENDMDL
MODEL 4
REMARK VINA RESULT:      -7.2      5.025      8.590
REMARK  6 active torsions:
REMARK  status: ('A' for Active; 'I' for Inactive)
REMARK    1  A    between atoms: N_1  and  C_2 
REMARK    2  A    between atoms: C_2  and  C_3 
REMARK       I    between atoms: C_3  and  N_5 
REMARK    3  A    between atoms: N_5  and  C_6 
REMARK    4  A    between atoms: C_6  and  C_8 
REMARK       I    between atoms: C_8  and  N_10 
REMARK    5  A    between atoms: C_12  and  C_15 
REMARK       I    between atoms: C_15  and  N_17 
REMARK    6  A    between atoms: N_17  and  C_18 
ROOT
HETATM    1  C   UNK N   1      24.490  18.091   4.545  0.00  0.00     0.243 C 
HETATM    2  O   UNK N   1      24.477  17.158   5.320  0.00  0.00    -0.271 OA
HETATM    3  N   UNK N   1      23.312  18.700   4.155  0.00  0.00    -0.337 N 
HETATM    4  C   UNK N   1      23.315  19.815   3.247  0.00  0.00     0.127 C 
HETATM    5  C   UNK N   1      21.958  18.231   4.464  0.00  0.00     0.179 C 
HETATM    6  C   UNK N   1      21.077  19.399   4.052  0.00  0.00     0.037 C 
HETATM    7  C   UNK N   1      21.851  20.080   2.932  0.00  0.00     0.022 C 
ENDROOT
BRANCH   5   8
HETATM    8  C   UNK N   1      21.681  17.730   5.873  0.00  0.00     0.245 C 
HETATM    9  O   UNK N   1      21.440  18.499   6.794  0.00  0.00    -0.271 OA
HETATM   10  N   UNK N   1      21.635  16.390   6.052  0.00  0.00    -0.325 N 
HETATM   11  H   UNK N   1      21.805  15.869   5.235  0.00  0.00     0.169 HD
BRANCH  10  12
HETATM   12  C   UNK N   1      21.388  15.606   7.199  0.00  0.00     0.035 A 
HETATM   13  C   UNK N   1      22.306  14.591   7.467  0.00  0.00     0.042 A 
HETATM   14  C   UNK N   1      22.151  13.763   8.567  0.00  0.00    -0.024 A 
HETATM   15  C   UNK N   1      21.043  13.936   9.421  0.00  0.00    -0.026 A 
HETATM   16  C   UNK N   1      23.092  12.763   8.821  0.00  0.00     0.012 A 
HETATM   17  C   UNK N   1      20.889  13.090  10.525  0.00  0.00     0.012 A 
HETATM   18  C   UNK N   1      20.112  14.953   9.159  0.00  0.00     0.014 A 
HETATM   19  C   UNK N   1      21.833  12.085  10.775  0.00  0.00     0.001 A 
HETATM   20  C   UNK N   1      22.935  11.926   9.927  0.00  0.00     0.001 A 
HETATM   21  C   UNK N   1      20.285  15.796   8.047  0.00  0.00     0.030 A 
ENDBRANCH  10  12
ENDBRANCH   5   8
BRANCH   1  22
HETATM   22  C   UNK N   1      25.844  18.534   4.011  0.00  0.00     0.172 C 
HETATM   23  C   UNK N   1      26.413  19.687   4.817  0.00  0.00     0.042 C 
BRANCH  22  24
HETATM   24  N   UNK N   1      26.772  17.415   4.093  0.00  0.00    -0.347 N 
HETATM   25  C   UNK N   1      26.783  16.358   3.241  0.00  0.00     0.235 C 
HETATM   26  O   UNK N   1      26.071  16.343   2.249  0.00  0.00    -0.272 OA
HETATM   27  H   UNK N   1      27.439  17.425   4.817  0.00  0.00     0.163 HD
BRANCH  25  28
HETATM   28  C   UNK N   1      27.670  15.188   3.528  0.00  0.00     0.214 C 
BRANCH  28  29
HETATM   29  N   UNK N   1      26.928  13.946   3.421  0.00  0.00    -0.422 N 
HETATM   30  H   UNK N   1      26.535  13.044   3.689  0.00  0.00     0.150 HD
HETATM   31  H   UNK N   1      26.571  14.027   2.468  0.00  0.00     0.150 HD
ENDBRANCH  28  29
ENDBRANCH  25  28
ENDBRANCH  22  24
ENDBRANCH   1  22
TORSDOF 6
ENDMDL
MODEL 5
REMARK VINA RESULT:      -7.2      3.654      9.020
REMARK  6 active torsions:
REMARK  status: ('A' for Active; 'I' for Inactive)
REMARK    1  A    between atoms: N_1  and  C_2 
REMARK    2  A    between atoms: C_2  and  C_3 
REMARK       I    between atoms: C_3  and  N_5 
REMARK    3  A    between atoms: N_5  and  C_6 
REMARK    4  A    between atoms: C_6  and  C_8 
REMARK       I    between atoms: C_8  and  N_10 
REMARK    5  A    between atoms: C_12  and  C_15 
REMARK       I    between atoms: C_15  and  N_17 
REMARK    6  A    between atoms: N_17  and  C_18 
ROOT
HETATM    1  C   UNK N   1      23.867  17.099   4.421  0.00  0.00     0.243 C 
HETATM    2  O   UNK N   1      24.291  18.117   4.928  0.00  0.00    -0.271 OA
HETATM    3  N   UNK N   1      24.626  16.403   3.498  0.00  0.00    -0.337 N 
HETATM    4  C   UNK N   1      24.141  15.189   2.901  0.00  0.00     0.127 C 
HETATM    5  C   UNK N   1      25.892  16.852   2.911  0.00  0.00     0.179 C 
HETATM    6  C   UNK N   1      26.416  15.610   2.210  0.00  0.00     0.037 C 
HETATM    7  C   UNK N   1      25.164  14.832   1.832  0.00  0.00     0.022 C 
ENDROOT
BRANCH   5   8
HETATM    8  C   UNK N   1      26.912  17.506   3.830  0.00  0.00     0.245 C 
HETATM    9  O   UNK N   1      27.196  18.693   3.735  0.00  0.00    -0.271 OA
HETATM   10  N   UNK N   1      27.437  16.739   4.812  0.00  0.00    -0.325 N 
HETATM   11  H   UNK N   1      27.108  15.812   4.819  0.00  0.00     0.169 HD
BRANCH  10  12
HETATM   12  C   UNK N   1      28.374  17.028   5.828  0.00  0.00     0.035 A 
HETATM   13  C   UNK N   1      29.719  16.960   5.471  0.00  0.00     0.042 A 
HETATM   14  C   UNK N   1      30.716  17.222   6.396  0.00  0.00    -0.024 A 
HETATM   15  C   UNK N   1      30.370  17.549   7.723  0.00  0.00    -0.026 A 
HETATM   16  C   UNK N   1      32.057  17.161   6.009  0.00  0.00     0.012 A 
HETATM   17  C   UNK N   1      31.382  17.804   8.654  0.00  0.00     0.012 A 
HETATM   18  C   UNK N   1      29.018  17.617   8.094  0.00  0.00     0.014 A 
HETATM   19  C   UNK N   1      32.726  17.738   8.262  0.00  0.00     0.001 A 
HETATM   20  C   UNK N   1      33.062  17.422   6.941  0.00  0.00     0.001 A 
HETATM   21  C   UNK N   1      28.013  17.362   7.143  0.00  0.00     0.030 A 
ENDBRANCH  10  12
ENDBRANCH   5   8
BRANCH   1  22
HETATM   22  C   UNK N   1      22.471  16.648   4.824  0.00  0.00     0.172 C 
HETATM   23  C   UNK N   1      22.371  16.411   6.319  0.00  0.00     0.042 C 
BRANCH  22  24
HETATM   24  N   UNK N   1      21.517  17.686   4.458  0.00  0.00    -0.347 N 
HETATM   25  C   UNK N   1      20.788  17.695   3.314  0.00  0.00     0.235 C 
HETATM   26  O   UNK N   1      20.799  16.739   2.554  0.00  0.00    -0.272 OA
HETATM   27  H   UNK N   1      21.392  18.434   5.085  0.00  0.00     0.163 HD
BRANCH  25  28
HETATM   28  C   UNK N   1      19.969  18.899   2.970  0.00  0.00     0.214 C 
BRANCH  28  29
HETATM   29  N   UNK N   1      18.743  18.507   2.298  0.00  0.00    -0.422 N 
HETATM   30  H   UNK N   1      17.764  18.254   2.173  0.00  0.00     0.150 HD
HETATM   31  H   UNK N   1      19.074  18.447   1.334  0.00  0.00     0.150 HD
ENDBRANCH  28  29
ENDBRANCH  25  28
ENDBRANCH  22  24
ENDBRANCH   1  22
TORSDOF 6
ENDMDL
MODEL 6
REMARK VINA RESULT:      -7.2      3.959      9.241
REMARK  6 active torsions:
REMARK  status: ('A' for Active; 'I' for Inactive)
REMARK    1  A    between atoms: N_1  and  C_2 
REMARK    2  A    between atoms: C_2  and  C_3 
REMARK       I    between atoms: C_3  and  N_5 
REMARK    3  A    between atoms: N_5  and  C_6 
REMARK    4  A    between atoms: C_6  and  C_8 
REMARK       I    between atoms: C_8  and  N_10 
REMARK    5  A    between atoms: C_12  and  C_15 
REMARK       I    between atoms: C_15  and  N_17 
REMARK    6  A    between atoms: N_17  and  C_18 
ROOT
HETATM    1  C   UNK N   1      23.086  17.392   4.356  0.00  0.00     0.243 C 
HETATM    2  O   UNK N   1      24.004  17.916   4.952  0.00  0.00    -0.271 OA
HETATM    3  N   UNK N   1      23.308  16.290   3.550  0.00  0.00    -0.337 N 
HETATM    4  C   UNK N   1      22.227  15.652   2.849  0.00  0.00     0.127 C 
HETATM    5  C   UNK N   1      24.616  15.737   3.190  0.00  0.00     0.179 C 
HETATM    6  C   UNK N   1      24.271  14.402   2.550  0.00  0.00     0.037 C 
HETATM    7  C   UNK N   1      22.887  14.616   1.952  0.00  0.00     0.022 C 
ENDROOT
BRANCH   5   8
HETATM    8  C   UNK N   1      25.672  15.632   4.280  0.00  0.00     0.245 C 
HETATM    9  O   UNK N   1      25.694  14.694   5.066  0.00  0.00    -0.271 OA
HETATM   10  N   UNK N   1      26.635  16.580   4.297  0.00  0.00    -0.325 N 
HETATM   11  H   UNK N   1      26.541  17.263   3.595  0.00  0.00     0.169 HD
BRANCH  10  12
HETATM   12  C   UNK N   1      27.752  16.767   5.141  0.00  0.00     0.035 A 
HETATM   13  C   UNK N   1      27.519  17.440   6.339  0.00  0.00     0.042 A 
HETATM   14  C   UNK N   1      28.549  17.678   7.235  0.00  0.00    -0.024 A 
HETATM   15  C   UNK N   1      29.856  17.248   6.926  0.00  0.00    -0.026 A 
HETATM   16  C   UNK N   1      28.286  18.342   8.435  0.00  0.00     0.012 A 
HETATM   17  C   UNK N   1      30.892  17.499   7.831  0.00  0.00     0.012 A 
HETATM   18  C   UNK N   1      30.101  16.572   5.721  0.00  0.00     0.014 A 
HETATM   19  C   UNK N   1      30.625  18.169   9.033  0.00  0.00     0.001 A 
HETATM   20  C   UNK N   1      29.324  18.585   9.336  0.00  0.00     0.001 A 
HETATM   21  C   UNK N   1      29.046  16.325   4.825  0.00  0.00     0.030 A 
ENDBRANCH  10  12
ENDBRANCH   5   8
BRANCH   1  22
HETATM   22  C   UNK N   1      21.707  18.014   4.514  0.00  0.00     0.172 C 
HETATM   23  C   UNK N   1      21.382  18.288   5.969  0.00  0.00     0.042 C 
BRANCH  22  24
HETATM   24  N   UNK N   1      21.674  19.277   3.789  0.00  0.00    -0.347 N 
HETATM   25  C   UNK N   1      20.728  19.619   2.877  0.00  0.00     0.235 C 
HETATM   26  O   UNK N   1      19.748  18.914   2.695  0.00  0.00    -0.272 OA
HETATM   27  H   UNK N   1      22.388  19.929   3.973  0.00  0.00     0.163 HD
BRANCH  25  28
HETATM   28  C   UNK N   1      20.895  20.870   2.075  0.00  0.00     0.214 C 
BRANCH  28  29
HETATM   29  N   UNK N   1      20.425  20.672   0.716  0.00  0.00    -0.422 N 
HETATM   30  H   UNK N   1      20.209  20.193  -0.158  0.00  0.00     0.150 HD
HETATM   31  H   UNK N   1      20.108  21.616   0.492  0.00  0.00     0.150 HD
ENDBRANCH  28  29
ENDBRANCH  25  28
ENDBRANCH  22  24
ENDBRANCH   1  22
TORSDOF 6
ENDMDL
MODEL 7
REMARK VINA RESULT:      -7.2      3.398      4.724
REMARK  6 active torsions:
REMARK  status: ('A' for Active; 'I' for Inactive)
REMARK    1  A    between atoms: N_1  and  C_2 
REMARK    2  A    between atoms: C_2  and  C_3 
REMARK       I    between atoms: C_3  and  N_5 
REMARK    3  A    between atoms: N_5  and  C_6 
REMARK    4  A    between atoms: C_6  and  C_8 
REMARK       I    between atoms: C_8  and  N_10 
REMARK    5  A    between atoms: C_12  and  C_15 
REMARK       I    between atoms: C_15  and  N_17 
REMARK    6  A    between atoms: N_17  and  C_18 
ROOT
HETATM    1  C   UNK N   1      28.481  17.680   6.817  0.00  0.00     0.243 C 
HETATM    2  O   UNK N   1      28.515  16.533   6.424  0.00  0.00    -0.271 OA
HETATM    3  N   UNK N   1      27.878  18.667   6.059  0.00  0.00    -0.337 N 
HETATM    4  C   UNK N   1      27.819  20.027   6.520  0.00  0.00     0.127 C 
HETATM    5  C   UNK N   1      27.377  18.515   4.691  0.00  0.00     0.179 C 
HETATM    6  C   UNK N   1      26.577  19.787   4.463  0.00  0.00     0.037 C 
HETATM    7  C   UNK N   1      27.252  20.821   5.354  0.00  0.00     0.022 C 
ENDROOT
BRANCH   5   8
HETATM    8  C   UNK N   1      26.611  17.247   4.348  0.00  0.00     0.245 C 
HETATM    9  O   UNK N   1      25.511  17.009   4.830  0.00  0.00    -0.271 OA
HETATM   10  N   UNK N   1      27.160  16.426   3.424  0.00  0.00    -0.325 N 
HETATM   11  H   UNK N   1      28.026  16.736   3.074  0.00  0.00     0.169 HD
BRANCH  10  12
HETATM   12  C   UNK N   1      26.715  15.205   2.871  0.00  0.00     0.035 A 
HETATM   13  C   UNK N   1      25.585  15.267   2.057  0.00  0.00     0.042 A 
HETATM   14  C   UNK N   1      25.067  14.124   1.470  0.00  0.00    -0.024 A 
HETATM   15  C   UNK N   1      25.679  12.877   1.710  0.00  0.00    -0.026 A 
HETATM   16  C   UNK N   1      23.942  14.215   0.647  0.00  0.00     0.012 A 
HETATM   17  C   UNK N   1      25.145  11.726   1.121  0.00  0.00     0.012 A 
HETATM   18  C   UNK N   1      26.816  12.804   2.530  0.00  0.00     0.014 A 
HETATM   19  C   UNK N   1      24.014  11.821   0.298  0.00  0.00     0.001 A 
HETATM   20  C   UNK N   1      23.417  13.063   0.059  0.00  0.00     0.001 A 
HETATM   21  C   UNK N   1      27.341  13.972   3.110  0.00  0.00     0.030 A 
ENDBRANCH  10  12
ENDBRANCH   5   8
BRANCH   1  22
HETATM   22  C   UNK N   1      29.149  17.980   8.151  0.00  0.00     0.172 C 
HETATM   23  C   UNK N   1      28.136  18.056   9.278  0.00  0.00     0.042 C 
BRANCH  22  24
HETATM   24  N   UNK N   1      30.095  16.915   8.454  0.00  0.00    -0.347 N 
HETATM   25  C   UNK N   1      31.441  17.074   8.519  0.00  0.00     0.235 C 
HETATM   26  O   UNK N   1      31.946  18.183   8.446  0.00  0.00    -0.272 OA
HETATM   27  H   UNK N   1      29.733  16.016   8.624  0.00  0.00     0.163 HD
BRANCH  25  28
HETATM   28  C   UNK N   1      32.320  15.873   8.670  0.00  0.00     0.214 C 
BRANCH  28  29
HETATM   29  N   UNK N   1      32.038  15.189   9.919  0.00  0.00    -0.422 N 
HETATM   30  H   UNK N   1      31.507  14.701  10.641  0.00  0.00     0.150 HD
HETATM   31  H   UNK N   1      32.963  15.206  10.351  0.00  0.00     0.150 HD
ENDBRANCH  28  29
ENDBRANCH  25  28
ENDBRANCH  22  24
ENDBRANCH   1  22
TORSDOF 6
ENDMDL
MODEL 8
REMARK VINA RESULT:      -7.1      2.107      2.989
REMARK  6 active torsions:
REMARK  status: ('A' for Active; 'I' for Inactive)
REMARK    1  A    between atoms: N_1  and  C_2 
REMARK    2  A    between atoms: C_2  and  C_3 
REMARK       I    between atoms: C_3  and  N_5 
REMARK    3  A    between atoms: N_5  and  C_6 
REMARK    4  A    between atoms: C_6  and  C_8 
REMARK       I    between atoms: C_8  and  N_10 
REMARK    5  A    between atoms: C_12  and  C_15 
REMARK       I    between atoms: C_15  and  N_17 
REMARK    6  A    between atoms: N_17  and  C_18 
ROOT
HETATM    1  C   UNK N   1      33.332  16.531   6.494  0.00  0.00     0.243 C 
HETATM    2  O   UNK N   1      32.221  17.001   6.633  0.00  0.00    -0.271 OA
HETATM    3  N   UNK N   1      33.620  15.714   5.417  0.00  0.00    -0.337 N 
HETATM    4  C   UNK N   1      34.934  15.162   5.233  0.00  0.00     0.127 C 
HETATM    5  C   UNK N   1      32.651  15.193   4.448  0.00  0.00     0.179 C 
HETATM    6  C   UNK N   1      33.527  14.613   3.350  0.00  0.00     0.037 C 
HETATM    7  C   UNK N   1      34.805  14.197   4.065  0.00  0.00     0.022 C 
ENDROOT
BRANCH   5   8
HETATM    8  C   UNK N   1      31.578  16.139   3.933  0.00  0.00     0.245 C 
HETATM    9  O   UNK N   1      31.783  16.893   2.991  0.00  0.00    -0.271 OA
HETATM   10  N   UNK N   1      30.357  16.058   4.509  0.00  0.00    -0.325 N 
HETATM   11  H   UNK N   1      30.295  15.390   5.229  0.00  0.00     0.169 HD
BRANCH  10  12
HETATM   12  C   UNK N   1      29.157  16.759   4.264  0.00  0.00     0.035 A 
HETATM   13  C   UNK N   1      29.061  18.037   4.813  0.00  0.00     0.042 A 
HETATM   14  C   UNK N   1      27.922  18.806   4.634  0.00  0.00    -0.024 A 
HETATM   15  C   UNK N   1      26.837  18.286   3.899  0.00  0.00    -0.026 A 
HETATM   16  C   UNK N   1      27.858  20.089   5.182  0.00  0.00     0.012 A 
HETATM   17  C   UNK N   1      25.687  19.065   3.730  0.00  0.00     0.012 A 
HETATM   18  C   UNK N   1      26.923  16.999   3.345  0.00  0.00     0.014 A 
HETATM   19  C   UNK N   1      25.624  20.350   4.285  0.00  0.00     0.001 A 
HETATM   20  C   UNK N   1      26.709  20.862   5.005  0.00  0.00     0.001 A 
HETATM   21  C   UNK N   1      28.088  16.232   3.523  0.00  0.00     0.030 A 
ENDBRANCH  10  12
ENDBRANCH   5   8
BRANCH   1  22
HETATM   22  C   UNK N   1      34.366  16.860   7.560  0.00  0.00     0.172 C 
HETATM   23  C   UNK N   1      34.283  18.312   7.990  0.00  0.00     0.042 C 
BRANCH  22  24
HETATM   24  N   UNK N   1      34.125  16.021   8.725  0.00  0.00    -0.347 N 
HETATM   25  C   UNK N   1      34.911  14.980   9.102  0.00  0.00     0.235 C 
HETATM   26  O   UNK N   1      35.970  14.756   8.537  0.00  0.00    -0.272 OA
HETATM   27  H   UNK N   1      33.336  16.222   9.278  0.00  0.00     0.163 HD
BRANCH  25  28
HETATM   28  C   UNK N   1      34.467  14.088  10.218  0.00  0.00     0.214 C 
BRANCH  28  29
HETATM   29  N   UNK N   1      33.703  14.837  11.198  0.00  0.00    -0.422 N 
HETATM   30  H   UNK N   1      32.955  15.410  11.590  0.00  0.00     0.150 HD
HETATM   31  H   UNK N   1      34.289  14.710  12.024  0.00  0.00     0.150 HD
ENDBRANCH  28  29
ENDBRANCH  25  28
ENDBRANCH  22  24
ENDBRANCH   1  22
TORSDOF 6
ENDMDL
MODEL 9
REMARK VINA RESULT:      -7.0      7.500     12.774
REMARK  6 active torsions:
REMARK  status: ('A' for Active; 'I' for Inactive)
REMARK    1  A    between atoms: N_1  and  C_2 
REMARK    2  A    between atoms: C_2  and  C_3 
REMARK       I    between atoms: C_3  and  N_5 
REMARK    3  A    between atoms: N_5  and  C_6 
REMARK    4  A    between atoms: C_6  and  C_8 
REMARK       I    between atoms: C_8  and  N_10 
REMARK    5  A    between atoms: C_12  and  C_15 
REMARK       I    between atoms: C_15  and  N_17 
REMARK    6  A    between atoms: N_17  and  C_18 
ROOT
HETATM    1  C   UNK N   1      35.641  12.570   9.700  0.00  0.00     0.243 C 
HETATM    2  O   UNK N   1      35.528  11.678  10.515  0.00  0.00    -0.271 OA
HETATM    3  N   UNK N   1      35.448  13.888  10.068  0.00  0.00    -0.337 N 
HETATM    4  C   UNK N   1      35.592  14.955   9.115  0.00  0.00     0.127 C 
HETATM    5  C   UNK N   1      34.948  14.355  11.364  0.00  0.00     0.179 C 
HETATM    6  C   UNK N   1      35.206  15.852  11.323  0.00  0.00     0.037 C 
HETATM    7  C   UNK N   1      35.134  16.209   9.845  0.00  0.00     0.022 C 
ENDROOT
BRANCH   5   8
HETATM    8  C   UNK N   1      35.480  13.682  12.619  0.00  0.00     0.245 C 
HETATM    9  O   UNK N   1      36.637  13.833  12.990  0.00  0.00    -0.271 OA
HETATM   10  N   UNK N   1      34.598  12.968  13.356  0.00  0.00    -0.325 N 
HETATM   11  H   UNK N   1      33.688  12.947  12.985  0.00  0.00     0.169 HD
BRANCH  10  12
HETATM   12  C   UNK N   1      34.750  12.249  14.561  0.00  0.00     0.035 A 
HETATM   13  C   UNK N   1      34.895  13.005  15.722  0.00  0.00     0.042 A 
HETATM   14  C   UNK N   1      35.053  12.394  16.956  0.00  0.00    -0.024 A 
HETATM   15  C   UNK N   1      35.084  10.987  17.039  0.00  0.00    -0.026 A 
HETATM   16  C   UNK N   1      35.182  13.175  18.106  0.00  0.00     0.012 A 
HETATM   17  C   UNK N   1      35.253  10.377  18.287  0.00  0.00     0.012 A 
HETATM   18  C   UNK N   1      34.942  10.216  15.875  0.00  0.00     0.014 A 
HETATM   19  C   UNK N   1      35.386  11.164  19.439  0.00  0.00     0.001 A 
HETATM   20  C   UNK N   1      35.345  12.560  19.348  0.00  0.00     0.001 A 
HETATM   21  C   UNK N   1      34.769  10.847  14.630  0.00  0.00     0.030 A 
ENDBRANCH  10  12
ENDBRANCH   5   8
BRANCH   1  22
HETATM   22  C   UNK N   1      35.973  12.169   8.270  0.00  0.00     0.172 C 
HETATM   23  C   UNK N   1      36.799  10.898   8.224  0.00  0.00     0.042 C 
BRANCH  22  24
HETATM   24  N   UNK N   1      34.732  11.937   7.545  0.00  0.00    -0.347 N 
HETATM   25  C   UNK N   1      34.346  12.620   6.437  0.00  0.00     0.235 C 
HETATM   26  O   UNK N   1      35.101  13.411   5.893  0.00  0.00    -0.272 OA
HETATM   27  H   UNK N   1      34.129  11.237   7.882  0.00  0.00     0.163 HD
BRANCH  25  28
HETATM   28  C   UNK N   1      32.974  12.410   5.881  0.00  0.00     0.214 C 
BRANCH  28  29
HETATM   29  N   UNK N   1      32.061  13.424   6.378  0.00  0.00    -0.422 N 
HETATM   30  H   UNK N   1      31.692  14.348   6.600  0.00  0.00     0.150 HD
HETATM   31  H   UNK N   1      31.305  12.834   6.728  0.00  0.00     0.150 HD
ENDBRANCH  28  29
ENDBRANCH  25  28
ENDBRANCH  22  24
ENDBRANCH   1  22
TORSDOF 6
ENDMDL
