REMARK  3 active torsions:
REMARK  status: ('A' for Active; 'I' for Inactive)
REMARK    1  A    between atoms: C_3  and  O_4 
REMARK    2  A    between atoms: C_7  and  C_8 
REMARK    3  A    between atoms: C_8  and  O_10 
ROOT
HETATM    1  C   UNK N   1      -1.619   0.366   1.593  0.00  0.00     0.042 C 
HETATM    2  C   UNK N   1      -2.970  -0.114   1.049  0.00  0.00     0.036 C 
HETATM    3  C   UNK N   1      -2.820  -1.134  -0.091  0.00  0.00     0.136 C 
HETATM    4  C   UNK N   1      -1.685  -0.728  -1.054  0.00  0.00     0.077 C 
HETATM    5  C   UNK N   1      -0.311  -0.587  -0.359  0.00  0.00     0.057 C 
HETATM    6  C   UNK N   1       0.778  -1.336   0.446  0.00  0.00     0.101 C 
HETATM    7  C   UNK N   1       1.774  -0.132   0.644  0.00  0.00    -0.016 C 
HETATM    8  C   UNK N   1       0.807   0.963   1.164  0.00  0.00     0.031 C 
HETATM    9  C   UNK N   1      -0.560   0.671   0.483  0.00  0.00     0.081 C 
HETATM   10  C   UNK N   1       1.325   2.409   1.191  0.00  0.00     0.009 C 
HETATM   11  C   UNK N   1       2.398   2.699   0.129  0.00  0.00     0.009 C 
HETATM   12  C   UNK N   1       3.306   1.491  -0.161  0.00  0.00     0.014 C 
HETATM   13  C   UNK N   1       2.430   0.375  -0.656  0.00  0.00     0.020 C 
HETATM   14  C   UNK N   1       2.998  -0.286   1.550  0.00  0.00     0.044 C 
HETATM   15  C   UNK N   1       3.851   0.869   1.092  0.00  0.00    -0.084 C 
HETATM   16  C   UNK N   1       5.165   0.835   1.306  0.00  0.00     0.014 C 
HETATM   17  C   UNK N   1      -1.615  -1.623  -2.288  0.00  0.00     0.029 C 
HETATM   18  C   UNK N   1      -1.802   0.757  -1.361  0.00  0.00     0.271 C 
HETATM   19  O   UNK N   1      -2.574   1.246  -2.175  0.00  0.00    -0.264 OA
HETATM   20  O   UNK N   1      -1.093   1.509  -0.481  0.00  0.00    -0.308 OA
ENDROOT
BRANCH   6  21
HETATM   21  C   UNK N   1       1.378  -2.545  -0.228  0.00  0.00     0.145 C 
HETATM   22  O   UNK N   1       1.891  -2.454  -1.332  0.00  0.00    -0.650 OA
BRANCH  21  23
HETATM   23  O   UNK N   1       1.361  -3.737   0.400  0.00  0.00    -0.776 OA
HETATM   24  H   UNK N   1       0.637  -4.141   0.838  0.00  0.00     0.167 HD
ENDBRANCH  21  23
ENDBRANCH   6  21
BRANCH   3  25
HETATM   25  O   UNK N   1      -2.582  -2.405   0.434  0.00  0.00    -0.394 OA
HETATM   26  H   UNK N   1      -3.264  -2.990   0.799  0.00  0.00     0.210 HD
ENDBRANCH   3  25
TORSDOF 3
