MODEL 1
REMARK VINA RESULT:      -7.2      0.000      0.000
REMARK  3 active torsions:
REMARK  status: ('A' for Active; 'I' for Inactive)
REMARK    1  A    between atoms: C_3  and  O_4 
REMARK    2  A    between atoms: C_7  and  C_8 
REMARK    3  A    between atoms: C_8  and  O_10 
ROOT
HETATM    1  C   UNK N   1      29.404  18.026   4.790  0.00  0.00     0.042 C 
HETATM    2  C   UNK N   1      27.941  17.921   4.342  0.00  0.00     0.036 C 
HETATM    3  C   UNK N   1      26.998  17.528   5.489  0.00  0.00     0.136 C 
HETATM    4  C   UNK N   1      27.628  16.433   6.376  0.00  0.00     0.077 C 
HETATM    5  C   UNK N   1      28.982  16.849   6.996  0.00  0.00     0.057 C 
HETATM    6  C   UNK N   1      29.682  17.866   7.929  0.00  0.00     0.101 C 
HETATM    7  C   UNK N   1      31.149  17.304   7.806  0.00  0.00    -0.016 C 
HETATM    8  C   UNK N   1      31.289  17.191   6.265  0.00  0.00     0.031 C 
HETATM    9  C   UNK N   1      29.861  16.870   5.739  0.00  0.00     0.081 C 
HETATM   10  C   UNK N   1      32.476  16.383   5.720  0.00  0.00     0.009 C 
HETATM   11  C   UNK N   1      32.955  15.275   6.671  0.00  0.00     0.009 C 
HETATM   12  C   UNK N   1      32.808  15.645   8.158  0.00  0.00     0.014 C 
HETATM   13  C   UNK N   1      31.351  15.903   8.417  0.00  0.00     0.020 C 
HETATM   14  C   UNK N   1      32.321  18.068   8.428  0.00  0.00     0.044 C 
HETATM   15  C   UNK N   1      33.380  16.997   8.471  0.00  0.00    -0.084 C 
HETATM   16  C   UNK N   1      34.391  17.113   9.331  0.00  0.00     0.014 C 
HETATM   17  C   UNK N   1      26.657  15.897   7.424  0.00  0.00     0.029 C 
HETATM   18  C   UNK N   1      28.242  15.365   5.485  0.00  0.00     0.271 C 
HETATM   19  O   UNK N   1      27.619  14.465   4.937  0.00  0.00    -0.264 OA
HETATM   20  O   UNK N   1      29.540  15.638   5.195  0.00  0.00    -0.308 OA
ENDROOT
BRANCH   6  21
HETATM   21  C   UNK N   1      29.152  17.936   9.339  0.00  0.00     0.145 C 
HETATM   22  O   UNK N   1      28.210  17.242   9.688  0.00  0.00    -0.650 OA
BRANCH  21  23
HETATM   23  O   UNK N   1      29.732  18.764  10.231  0.00  0.00    -0.776 OA
HETATM   24  H   UNK N   1      29.633  19.694  10.294  0.00  0.00     0.167 HD
ENDBRANCH  21  23
ENDBRANCH   6  21
BRANCH   3  25
HETATM   25  O   UNK N   1      26.681  18.651   6.254  0.00  0.00    -0.394 OA
HETATM   26  H   UNK N   1      26.620  19.556   5.910  0.00  0.00     0.210 HD
ENDBRANCH   3  25
TORSDOF 3
ENDMDL
MODEL 2
REMARK VINA RESULT:      -7.2      1.704      5.150
REMARK  3 active torsions:
REMARK  status: ('A' for Active; 'I' for Inactive)
REMARK    1  A    between atoms: C_3  and  O_4 
REMARK    2  A    between atoms: C_7  and  C_8 
REMARK    3  A    between atoms: C_8  and  O_10 
ROOT
HETATM    1  C   UNK N   1      31.539  14.746   6.801  0.00  0.00     0.042 C 
HETATM    2  C   UNK N   1      32.905  14.807   7.494  0.00  0.00     0.036 C 
HETATM    3  C   UNK N   1      33.072  16.063   8.364  0.00  0.00     0.136 C 
HETATM    4  C   UNK N   1      32.493  17.308   7.659  0.00  0.00     0.077 C 
HETATM    5  C   UNK N   1      30.995  17.171   7.305  0.00  0.00     0.057 C 
HETATM    6  C   UNK N   1      29.575  16.965   7.885  0.00  0.00     0.101 C 
HETATM    7  C   UNK N   1      28.777  16.973   6.527  0.00  0.00    -0.016 C 
HETATM    8  C   UNK N   1      29.608  15.962   5.696  0.00  0.00     0.031 C 
HETATM    9  C   UNK N   1      31.072  16.112   6.197  0.00  0.00     0.081 C 
HETATM   10  C   UNK N   1      29.348  15.907   4.183  0.00  0.00     0.009 C 
HETATM   11  C   UNK N   1      28.847  17.237   3.595  0.00  0.00     0.009 C 
HETATM   12  C   UNK N   1      27.960  18.034   4.568  0.00  0.00     0.014 C 
HETATM   13  C   UNK N   1      28.782  18.328   5.791  0.00  0.00     0.020 C 
HETATM   14  C   UNK N   1      27.285  16.634   6.508  0.00  0.00     0.044 C 
HETATM   15  C   UNK N   1      26.872  17.194   5.171  0.00  0.00    -0.084 C 
HETATM   16  C   UNK N   1      25.593  17.501   4.959  0.00  0.00     0.014 C 
HETATM   17  C   UNK N   1      32.789  18.600   8.415  0.00  0.00     0.029 C 
HETATM   18  C   UNK N   1      32.946  17.311   6.207  0.00  0.00     0.271 C 
HETATM   19  O   UNK N   1      34.044  17.686   5.816  0.00  0.00    -0.264 OA
HETATM   20  O   UNK N   1      32.067  16.659   5.405  0.00  0.00    -0.308 OA
ENDROOT
BRANCH   6  21
HETATM   21  C   UNK N   1      29.120  17.996   8.888  0.00  0.00     0.145 C 
HETATM   22  O   UNK N   1      29.798  18.985   9.119  0.00  0.00    -0.650 OA
BRANCH  21  23
HETATM   23  O   UNK N   1      27.945  17.833   9.528  0.00  0.00    -0.776 OA
HETATM   24  H   UNK N   1      27.386  18.501   9.874  0.00  0.00     0.167 HD
ENDBRANCH  21  23
ENDBRANCH   6  21
BRANCH   3  25
HETATM   25  O   UNK N   1      32.455  15.873   9.601  0.00  0.00    -0.394 OA
HETATM   26  H   UNK N   1      31.580  16.215   9.842  0.00  0.00     0.210 HD
ENDBRANCH   3  25
TORSDOF 3
ENDMDL
MODEL 3
REMARK VINA RESULT:      -7.1      2.102      5.726
REMARK  3 active torsions:
REMARK  status: ('A' for Active; 'I' for Inactive)
REMARK    1  A    between atoms: C_3  and  O_4 
REMARK    2  A    between atoms: C_7  and  C_8 
REMARK    3  A    between atoms: C_8  and  O_10 
ROOT
HETATM    1  C   UNK N   1      32.312  18.273   8.096  0.00  0.00     0.042 C 
HETATM    2  C   UNK N   1      33.710  17.743   8.438  0.00  0.00     0.036 C 
HETATM    3  C   UNK N   1      34.186  16.656   7.462  0.00  0.00     0.136 C 
HETATM    4  C   UNK N   1      33.040  15.683   7.113  0.00  0.00     0.077 C 
HETATM    5  C   UNK N   1      31.812  16.380   6.485  0.00  0.00     0.057 C 
HETATM    6  C   UNK N   1      31.318  17.229   5.289  0.00  0.00     0.101 C 
HETATM    7  C   UNK N   1      29.813  17.375   5.728  0.00  0.00    -0.016 C 
HETATM    8  C   UNK N   1      29.982  17.834   7.200  0.00  0.00     0.031 C 
HETATM    9  C   UNK N   1      31.290  17.158   7.700  0.00  0.00     0.081 C 
HETATM   10  C   UNK N   1      28.738  17.794   8.100  0.00  0.00     0.009 C 
HETATM   11  C   UNK N   1      27.712  16.727   7.686  0.00  0.00     0.009 C 
HETATM   12  C   UNK N   1      27.650  16.503   6.165  0.00  0.00     0.014 C 
HETATM   13  C   UNK N   1      29.013  16.057   5.718  0.00  0.00     0.020 C 
HETATM   14  C   UNK N   1      28.870  18.297   4.951  0.00  0.00     0.044 C 
HETATM   15  C   UNK N   1      27.524  17.789   5.401  0.00  0.00    -0.084 C 
HETATM   16  C   UNK N   1      26.454  18.015   4.641  0.00  0.00     0.014 C 
HETATM   17  C   UNK N   1      33.514  14.494   6.281  0.00  0.00     0.029 C 
HETATM   18  C   UNK N   1      32.306  15.302   8.389  0.00  0.00     0.271 C 
HETATM   19  O   UNK N   1      32.685  14.459   9.192  0.00  0.00    -0.264 OA
HETATM   20  O   UNK N   1      31.278  16.150   8.648  0.00  0.00    -0.308 OA
ENDROOT
BRANCH   6  21
HETATM   21  C   UNK N   1      31.519  16.620   3.923  0.00  0.00     0.145 C 
HETATM   22  O   UNK N   1      31.561  15.408   3.781  0.00  0.00    -0.650 OA
BRANCH  21  23
HETATM   23  O   UNK N   1      31.640  17.420   2.846  0.00  0.00    -0.776 OA
HETATM   24  H   UNK N   1      31.012  18.034   2.518  0.00  0.00     0.167 HD
ENDBRANCH  21  23
ENDBRANCH   6  21
BRANCH   3  25
HETATM   25  O   UNK N   1      34.695  17.244   6.303  0.00  0.00    -0.394 OA
HETATM   26  H   UNK N   1      35.617  17.519   6.181  0.00  0.00     0.210 HD
ENDBRANCH   3  25
TORSDOF 3
ENDMDL
MODEL 4
REMARK VINA RESULT:      -7.0      8.549     11.125
REMARK  3 active torsions:
REMARK  status: ('A' for Active; 'I' for Inactive)
REMARK    1  A    between atoms: C_3  and  O_4 
REMARK    2  A    between atoms: C_7  and  C_8 
REMARK    3  A    between atoms: C_8  and  O_10 
ROOT
HETATM    1  C   UNK N   1      38.001  10.208  13.375  0.00  0.00     0.042 C 
HETATM    2  C   UNK N   1      37.970   9.531  12.000  0.00  0.00     0.036 C 
HETATM    3  C   UNK N   1      36.987  10.206  11.030  0.00  0.00     0.136 C 
HETATM    4  C   UNK N   1      35.675  10.588  11.746  0.00  0.00     0.077 C 
HETATM    5  C   UNK N   1      35.886  11.540  12.947  0.00  0.00     0.057 C 
HETATM    6  C   UNK N   1      36.407  12.932  13.376  0.00  0.00     0.101 C 
HETATM    7  C   UNK N   1      36.125  12.807  14.921  0.00  0.00    -0.016 C 
HETATM    8  C   UNK N   1      36.767  11.428  15.223  0.00  0.00     0.031 C 
HETATM    9  C   UNK N   1      36.587  10.590  13.926  0.00  0.00     0.081 C 
HETATM   10  C   UNK N   1      36.439  10.776  16.575  0.00  0.00     0.009 C 
HETATM   11  C   UNK N   1      35.068  11.185  17.140  0.00  0.00     0.009 C 
HETATM   12  C   UNK N   1      34.676  12.631  16.792  0.00  0.00     0.014 C 
HETATM   13  C   UNK N   1      34.630  12.740  15.294  0.00  0.00     0.020 C 
HETATM   14  C   UNK N   1      36.620  13.888  15.885  0.00  0.00     0.044 C 
HETATM   15  C   UNK N   1      35.771  13.612  17.099  0.00  0.00    -0.084 C 
HETATM   16  C   UNK N   1      35.570  14.582  17.989  0.00  0.00     0.014 C 
HETATM   17  C   UNK N   1      34.611  11.107  10.783  0.00  0.00     0.029 C 
HETATM   18  C   UNK N   1      35.224   9.422  12.612  0.00  0.00     0.271 C 
HETATM   19  O   UNK N   1      34.631   8.433  12.202  0.00  0.00    -0.264 OA
HETATM   20  O   UNK N   1      35.733   9.503  13.868  0.00  0.00    -0.308 OA
ENDROOT
BRANCH   6  21
HETATM   21  C   UNK N   1      35.749  14.114  12.710  0.00  0.00     0.145 C 
HETATM   22  O   UNK N   1      34.598  14.044  12.310  0.00  0.00    -0.650 OA
BRANCH  21  23
HETATM   23  O   UNK N   1      36.432  15.266  12.566  0.00  0.00    -0.776 OA
HETATM   24  H   UNK N   1      37.021  15.498  11.874  0.00  0.00     0.167 HD
ENDBRANCH  21  23
ENDBRANCH   6  21
BRANCH   3  25
HETATM   25  O   UNK N   1      37.578  11.334  10.459  0.00  0.00    -0.394 OA
HETATM   26  H   UNK N   1      37.480  12.239  10.794  0.00  0.00     0.210 HD
ENDBRANCH   3  25
TORSDOF 3
ENDMDL
MODEL 5
REMARK VINA RESULT:      -7.0     12.636     15.176
REMARK  3 active torsions:
REMARK  status: ('A' for Active; 'I' for Inactive)
REMARK    1  A    between atoms: C_3  and  O_4 
REMARK    2  A    between atoms: C_7  and  C_8 
REMARK    3  A    between atoms: C_8  and  O_10 
ROOT
HETATM    1  C   UNK N   1      28.586  28.471  -3.183  0.00  0.00     0.042 C 
HETATM    2  C   UNK N   1      27.450  29.431  -3.558  0.00  0.00     0.036 C 
HETATM    3  C   UNK N   1      26.290  28.722  -4.275  0.00  0.00     0.136 C 
HETATM    4  C   UNK N   1      26.815  27.690  -5.295  0.00  0.00     0.077 C 
HETATM    5  C   UNK N   1      27.716  26.604  -4.661  0.00  0.00     0.057 C 
HETATM    6  C   UNK N   1      27.768  25.456  -3.625  0.00  0.00     0.101 C 
HETATM    7  C   UNK N   1      29.274  25.041  -3.831  0.00  0.00    -0.016 C 
HETATM    8  C   UNK N   1      29.971  26.423  -3.739  0.00  0.00     0.031 C 
HETATM    9  C   UNK N   1      28.948  27.446  -4.307  0.00  0.00     0.081 C 
HETATM   10  C   UNK N   1      31.435  26.508  -4.198  0.00  0.00     0.009 C 
HETATM   11  C   UNK N   1      31.805  25.472  -5.272  0.00  0.00     0.009 C 
HETATM   12  C   UNK N   1      31.056  24.138  -5.111  0.00  0.00     0.014 C 
HETATM   13  C   UNK N   1      29.585  24.429  -5.212  0.00  0.00     0.020 C 
HETATM   14  C   UNK N   1      29.923  24.013  -2.901  0.00  0.00     0.044 C 
HETATM   15  C   UNK N   1      31.128  23.605  -3.709  0.00  0.00    -0.084 C 
HETATM   16  C   UNK N   1      31.708  22.430  -3.469  0.00  0.00     0.014 C 
HETATM   17  C   UNK N   1      25.701  27.087  -6.145  0.00  0.00     0.029 C 
HETATM   18  C   UNK N   1      27.948  28.314  -6.095  0.00  0.00     0.271 C 
HETATM   19  O   UNK N   1      27.801  29.074  -7.043  0.00  0.00    -0.264 OA
HETATM   20  O   UNK N   1      29.154  28.097  -5.511  0.00  0.00    -0.308 OA
ENDROOT
BRANCH   6  21
HETATM   21  C   UNK N   1      26.774  24.340  -3.831  0.00  0.00     0.145 C 
HETATM   22  O   UNK N   1      26.399  23.657  -2.891  0.00  0.00    -0.650 OA
BRANCH  21  23
HETATM   23  O   UNK N   1      26.283  24.102  -5.063  0.00  0.00    -0.776 OA
HETATM   24  H   UNK N   1      26.126  24.725  -5.745  0.00  0.00     0.167 HD
ENDBRANCH  21  23
ENDBRANCH   6  21
BRANCH   3  25
HETATM   25  O   UNK N   1      25.457  28.104  -3.342  0.00  0.00    -0.394 OA
HETATM   26  H   UNK N   1      25.413  28.335  -2.401  0.00  0.00     0.210 HD
ENDBRANCH   3  25
TORSDOF 3
ENDMDL
MODEL 6
REMARK VINA RESULT:      -6.9     11.308     14.157
REMARK  3 active torsions:
REMARK  status: ('A' for Active; 'I' for Inactive)
REMARK    1  A    between atoms: C_3  and  O_4 
REMARK    2  A    between atoms: C_7  and  C_8 
REMARK    3  A    between atoms: C_8  and  O_10 
ROOT
HETATM    1  C   UNK N   1      29.433  21.508  -6.343  0.00  0.00     0.042 C 
HETATM    2  C   UNK N   1      30.584  20.495  -6.389  0.00  0.00     0.036 C 
HETATM    3  C   UNK N   1      31.478  20.558  -5.140  0.00  0.00     0.136 C 
HETATM    4  C   UNK N   1      31.733  22.019  -4.713  0.00  0.00     0.077 C 
HETATM    5  C   UNK N   1      30.437  22.806  -4.410  0.00  0.00     0.057 C 
HETATM    6  C   UNK N   1      29.182  22.869  -3.507  0.00  0.00     0.101 C 
HETATM    7  C   UNK N   1      28.518  24.149  -4.141  0.00  0.00    -0.016 C 
HETATM    8  C   UNK N   1      28.574  23.789  -5.649  0.00  0.00     0.031 C 
HETATM    9  C   UNK N   1      29.853  22.922  -5.824  0.00  0.00     0.081 C 
HETATM   10  C   UNK N   1      28.303  24.917  -6.655  0.00  0.00     0.009 C 
HETATM   11  C   UNK N   1      28.674  26.314  -6.131  0.00  0.00     0.009 C 
HETATM   12  C   UNK N   1      28.448  26.472  -4.617  0.00  0.00     0.014 C 
HETATM   13  C   UNK N   1      29.308  25.454  -3.922  0.00  0.00     0.020 C 
HETATM   14  C   UNK N   1      27.113  24.580  -3.712  0.00  0.00     0.044 C 
HETATM   15  C   UNK N   1      27.086  26.010  -4.188  0.00  0.00    -0.084 C 
HETATM   16  C   UNK N   1      26.232  26.867  -3.631  0.00  0.00     0.014 C 
HETATM   17  C   UNK N   1      32.750  22.129  -3.581  0.00  0.00     0.029 C 
HETATM   18  C   UNK N   1      32.073  22.844  -5.945  0.00  0.00     0.271 C 
HETATM   19  O   UNK N   1      33.172  22.881  -6.483  0.00  0.00    -0.264 OA
HETATM   20  O   UNK N   1      30.963  23.383  -6.510  0.00  0.00    -0.308 OA
ENDROOT
BRANCH   6  21
HETATM   21  C   UNK N   1      29.444  22.965  -2.025  0.00  0.00     0.145 C 
HETATM   22  O   UNK N   1      30.582  23.066  -1.597  0.00  0.00    -0.650 OA
BRANCH  21  23
HETATM   23  O   UNK N   1      28.409  22.953  -1.162  0.00  0.00    -0.776 OA
HETATM   24  H   UNK N   1      27.766  23.623  -1.032  0.00  0.00     0.167 HD
ENDBRANCH  21  23
ENDBRANCH   6  21
BRANCH   3  25
HETATM   25  O   UNK N   1      30.891  19.842  -4.096  0.00  0.00    -0.394 OA
HETATM   26  H   UNK N   1      31.034  18.898  -3.923  0.00  0.00     0.210 HD
ENDBRANCH   3  25
TORSDOF 3
ENDMDL
MODEL 7
REMARK VINA RESULT:      -6.8     11.883     14.966
REMARK  3 active torsions:
REMARK  status: ('A' for Active; 'I' for Inactive)
REMARK    1  A    between atoms: C_3  and  O_4 
REMARK    2  A    between atoms: C_7  and  C_8 
REMARK    3  A    between atoms: C_8  and  O_10 
ROOT
HETATM    1  C   UNK N   1      30.193  21.378  -4.382  0.00  0.00     0.042 C 
HETATM    2  C   UNK N   1      31.284  21.609  -3.329  0.00  0.00     0.036 C 
HETATM    3  C   UNK N   1      31.245  23.027  -2.738  0.00  0.00     0.136 C 
HETATM    4  C   UNK N   1      30.978  24.079  -3.835  0.00  0.00     0.077 C 
HETATM    5  C   UNK N   1      29.654  23.846  -4.599  0.00  0.00     0.057 C 
HETATM    6  C   UNK N   1      28.115  23.752  -4.457  0.00  0.00     0.101 C 
HETATM    7  C   UNK N   1      27.772  23.450  -5.964  0.00  0.00    -0.016 C 
HETATM    8  C   UNK N   1      28.761  22.294  -6.262  0.00  0.00     0.031 C 
HETATM    9  C   UNK N   1      30.008  22.572  -5.376  0.00  0.00     0.081 C 
HETATM   10  C   UNK N   1      28.973  21.906  -7.733  0.00  0.00     0.009 C 
HETATM   11  C   UNK N   1      28.748  23.067  -8.715  0.00  0.00     0.009 C 
HETATM   12  C   UNK N   1      27.651  24.044  -8.258  0.00  0.00     0.014 C 
HETATM   13  C   UNK N   1      28.075  24.612  -6.932  0.00  0.00     0.020 C 
HETATM   14  C   UNK N   1      26.341  23.093  -6.372  0.00  0.00     0.044 C 
HETATM   15  C   UNK N   1      26.387  23.341  -7.858  0.00  0.00    -0.084 C 
HETATM   16  C   UNK N   1      25.253  23.575  -8.515  0.00  0.00     0.014 C 
HETATM   17  C   UNK N   1      31.098  25.509  -3.317  0.00  0.00     0.029 C 
HETATM   18  C   UNK N   1      31.852  23.771  -5.041  0.00  0.00     0.271 C 
HETATM   19  O   UNK N   1      33.035  24.067  -5.143  0.00  0.00    -0.264 OA
HETATM   20  O   UNK N   1      31.225  22.947  -5.918  0.00  0.00    -0.308 OA
ENDROOT
BRANCH   6  21
HETATM   21  C   UNK N   1      27.432  24.970  -3.887  0.00  0.00     0.145 C 
HETATM   22  O   UNK N   1      26.414  24.862  -3.222  0.00  0.00    -0.650 OA
BRANCH  21  23
HETATM   23  O   UNK N   1      27.958  26.192  -4.102  0.00  0.00    -0.776 OA
HETATM   24  H   UNK N   1      28.850  26.403  -4.302  0.00  0.00     0.167 HD
ENDBRANCH  21  23
ENDBRANCH   6  21
BRANCH   3  25
HETATM   25  O   UNK N   1      30.270  23.103  -1.742  0.00  0.00    -0.394 OA
HETATM   26  H   UNK N   1      30.372  22.762  -0.840  0.00  0.00     0.210 HD
ENDBRANCH   3  25
TORSDOF 3
ENDMDL
MODEL 8
REMARK VINA RESULT:      -6.8      3.169      6.262
REMARK  3 active torsions:
REMARK  status: ('A' for Active; 'I' for Inactive)
REMARK    1  A    between atoms: C_3  and  O_4 
REMARK    2  A    between atoms: C_7  and  C_8 
REMARK    3  A    between atoms: C_8  and  O_10 
ROOT
HETATM    1  C   UNK N   1      33.325  13.162   8.654  0.00  0.00     0.042 C 
HETATM    2  C   UNK N   1      34.012  13.003  10.015  0.00  0.00     0.036 C 
HETATM    3  C   UNK N   1      34.381  14.352  10.653  0.00  0.00     0.136 C 
HETATM    4  C   UNK N   1      34.942  15.330   9.599  0.00  0.00     0.077 C 
HETATM    5  C   UNK N   1      33.963  15.606   8.435  0.00  0.00     0.057 C 
HETATM    6  C   UNK N   1      32.569  16.169   8.065  0.00  0.00     0.101 C 
HETATM    7  C   UNK N   1      32.635  15.918   6.512  0.00  0.00    -0.016 C 
HETATM    8  C   UNK N   1      33.090  14.436   6.475  0.00  0.00     0.031 C 
HETATM    9  C   UNK N   1      33.983  14.242   7.733  0.00  0.00     0.081 C 
HETATM   10  C   UNK N   1      33.579  13.880   5.129  0.00  0.00     0.009 C 
HETATM   11  C   UNK N   1      34.186  14.948   4.205  0.00  0.00     0.009 C 
HETATM   12  C   UNK N   1      33.513  16.325   4.346  0.00  0.00     0.014 C 
HETATM   13  C   UNK N   1      33.685  16.769   5.771  0.00  0.00     0.020 C 
HETATM   14  C   UNK N   1      31.398  16.154   5.641  0.00  0.00     0.044 C 
HETATM   15  C   UNK N   1      32.016  16.242   4.269  0.00  0.00    -0.084 C 
HETATM   16  C   UNK N   1      31.359  16.872   3.297  0.00  0.00     0.014 C 
HETATM   17  C   UNK N   1      35.475  16.618  10.220  0.00  0.00     0.029 C 
HETATM   18  C   UNK N   1      35.944  14.593   8.723  0.00  0.00     0.271 C 
HETATM   19  O   UNK N   1      37.107  14.364   9.029  0.00  0.00    -0.264 OA
HETATM   20  O   UNK N   1      35.348  14.035   7.639  0.00  0.00    -0.308 OA
ENDROOT
BRANCH   6  21
HETATM   21  C   UNK N   1      32.313  17.601   8.462  0.00  0.00     0.145 C 
HETATM   22  O   UNK N   1      33.147  18.467   8.248  0.00  0.00    -0.650 OA
BRANCH  21  23
HETATM   23  O   UNK N   1      31.145  17.935   9.045  0.00  0.00    -0.776 OA
HETATM   24  H   UNK N   1      30.421  17.370   9.236  0.00  0.00     0.167 HD
ENDBRANCH  21  23
ENDBRANCH   6  21
BRANCH   3  25
HETATM   25  O   UNK N   1      33.264  14.904  11.283  0.00  0.00    -0.394 OA
HETATM   26  H   UNK N   1      32.906  14.608  12.134  0.00  0.00     0.210 HD
ENDBRANCH   3  25
TORSDOF 3
ENDMDL
MODEL 9
REMARK VINA RESULT:      -6.7     14.721     16.931
REMARK  3 active torsions:
REMARK  status: ('A' for Active; 'I' for Inactive)
REMARK    1  A    between atoms: C_3  and  O_4 
REMARK    2  A    between atoms: C_7  and  C_8 
REMARK    3  A    between atoms: C_8  and  O_10 
ROOT
HETATM    1  C   UNK N   1      28.489  23.537  -5.790  0.00  0.00     0.042 C 
HETATM    2  C   UNK N   1      28.323  22.219  -6.556  0.00  0.00     0.036 C 
HETATM    3  C   UNK N   1      27.556  22.394  -7.877  0.00  0.00     0.136 C 
HETATM    4  C   UNK N   1      26.363  23.357  -7.702  0.00  0.00     0.077 C 
HETATM    5  C   UNK N   1      26.775  24.761  -7.202  0.00  0.00     0.057 C 
HETATM    6  C   UNK N   1      27.612  26.021  -7.528  0.00  0.00     0.101 C 
HETATM    7  C   UNK N   1      27.274  26.852  -6.234  0.00  0.00    -0.016 C 
HETATM    8  C   UNK N   1      27.552  25.798  -5.130  0.00  0.00     0.031 C 
HETATM    9  C   UNK N   1      27.201  24.424  -5.767  0.00  0.00     0.081 C 
HETATM   10  C   UNK N   1      27.045  26.107  -3.714  0.00  0.00     0.009 C 
HETATM   11  C   UNK N   1      25.804  27.015  -3.687  0.00  0.00     0.009 C 
HETATM   12  C   UNK N   1      25.786  28.050  -4.826  0.00  0.00     0.014 C 
HETATM   13  C   UNK N   1      25.801  27.294  -6.125  0.00  0.00     0.020 C 
HETATM   14  C   UNK N   1      27.998  28.171  -5.955  0.00  0.00     0.044 C 
HETATM   15  C   UNK N   1      27.081  28.802  -4.938  0.00  0.00    -0.084 C 
HETATM   16  C   UNK N   1      27.105  30.122  -4.768  0.00  0.00     0.014 C 
HETATM   17  C   UNK N   1      25.480  23.426  -8.945  0.00  0.00     0.029 C 
HETATM   18  C   UNK N   1      25.621  23.001  -6.423  0.00  0.00     0.271 C 
HETATM   19  O   UNK N   1      24.813  22.089  -6.313  0.00  0.00    -0.264 OA
HETATM   20  O   UNK N   1      26.107  23.683  -5.355  0.00  0.00    -0.308 OA
ENDROOT
BRANCH   6  21
HETATM   21  C   UNK N   1      27.278  26.713  -8.826  0.00  0.00     0.145 C 
HETATM   22  O   UNK N   1      26.187  26.561  -9.352  0.00  0.00    -0.650 OA
BRANCH  21  23
HETATM   23  O   UNK N   1      28.188  27.521  -9.406  0.00  0.00    -0.776 OA
HETATM   24  H   UNK N   1      28.678  27.359 -10.188  0.00  0.00     0.167 HD
ENDBRANCH  21  23
ENDBRANCH   6  21
BRANCH   3  25
HETATM   25  O   UNK N   1      28.418  22.861  -8.870  0.00  0.00    -0.394 OA
HETATM   26  H   UNK N   1      28.907  23.698  -8.831  0.00  0.00     0.210 HD
ENDBRANCH   3  25
TORSDOF 3
ENDMDL
