MODEL 1
REMARK VINA RESULT:      -7.4      0.000      0.000
REMARK  7 active torsions:
REMARK  status: ('A' for Active; 'I' for Inactive)
REMARK    1  A    between atoms: C_6  and  C_7 
REMARK    2  A    between atoms: C_7  and  N_8 
REMARK    3  A    between atoms: C_7  and  C_9 
REMARK       I    between atoms: N_8  and  C_15 
REMARK       I    between atoms: C_15  and  N_22 
REMARK    4  A    between atoms: N_16  and  C_18 
REMARK    5  A    between atoms: C_18  and  C_19 
REMARK    6  A    between atoms: C_19  and  O_21 
REMARK    7  A    between atoms: N_22  and  C_23 
ROOT
HETATM    1  C   UNK N   1      37.860  13.062  10.318  0.00  0.00     0.049 A 
HETATM    2  C   UNK N   1      39.112  13.149   9.703  0.00  0.00     0.031 A 
HETATM    3  C   UNK N   1      39.716  12.002   9.201  0.00  0.00     0.025 A 
HETATM    4  C   UNK N   1      39.060  10.777   9.326  0.00  0.00     0.044 A 
HETATM    5  C   UNK N   1      39.718   9.553   9.041  0.00  0.00     0.099 C 
HETATM    6  N   UNK N   1      40.119   8.488   8.854  0.00  0.00    -0.191 NA
HETATM    7  C   UNK N   1      37.780  10.696   9.867  0.00  0.00     0.025 A 
HETATM    8  C   UNK N   1      37.174  11.836  10.343  0.00  0.00     0.031 A 
ENDROOT
BRANCH   1   9
HETATM    9  N   UNK N   1      37.251  14.224  10.834  0.00  0.00    -0.192 N 
HETATM   10  C   UNK N   1      36.562  14.190  12.080  0.00  0.00     0.675 C 
HETATM   11  N   UNK N   1      37.060  13.367  13.145  0.00  0.00    -0.214 N 
HETATM   12  N   UNK N   1      35.480  14.865  12.227  0.00  0.00    -0.216 N 
HETATM   13  H   UNK N   1      37.997  13.070  13.083  0.00  0.00     0.178 HD
ATOM     14  HN  UNK N   1      34.970  14.782  13.108  1.00  0.00     0.178 HD
HETATM   15  H   UNK N   1      37.303  15.068  10.329  0.00  0.00     0.184 HD
BRANCH  11  16
HETATM   16  C   UNK N   1      36.301  12.933  14.310  0.00  0.00     0.166 C 
BRANCH  16  17
HETATM   17  C   UNK N   1      36.298  11.425  14.452  0.00  0.00    -0.030 A 
HETATM   18  C   UNK N   1      35.199  10.694  13.979  0.00  0.00     0.009 A 
HETATM   19  C   UNK N   1      35.139   9.309  14.165  0.00  0.00     0.001 A 
HETATM   20  C   UNK N   1      36.174   8.645  14.831  0.00  0.00     0.000 A 
HETATM   21  C   UNK N   1      37.282   9.361  15.288  0.00  0.00     0.001 A 
HETATM   22  C   UNK N   1      37.345  10.742  15.096  0.00  0.00     0.009 A 
ENDBRANCH  16  17
BRANCH  16  23
HETATM   23  C   UNK N   1      36.412  13.774  15.583  0.00  0.00    -0.030 A 
HETATM   24  C   UNK N   1      35.577  13.527  16.689  0.00  0.00     0.009 A 
HETATM   25  C   UNK N   1      35.594  14.370  17.805  0.00  0.00     0.001 A 
HETATM   26  C   UNK N   1      36.427  15.490  17.816  0.00  0.00     0.000 A 
HETATM   27  C   UNK N   1      37.248  15.756  16.721  0.00  0.00     0.001 A 
HETATM   28  C   UNK N   1      37.235  14.902  15.621  0.00  0.00     0.009 A 
ENDBRANCH  16  23
ENDBRANCH  11  16
BRANCH  12  29
HETATM   29  C   UNK N   1      34.953  15.732  11.207  0.00  0.00     0.247 C 
BRANCH  29  30
HETATM   30  C   UNK N   1      33.918  14.980  10.442  0.00  0.00     0.158 C 
HETATM   31  O   UNK N   1      34.238  14.317   9.467  0.00  0.00    -0.649 OA
BRANCH  30  32
HETATM   32  O   UNK N   1      32.636  15.004  10.850  0.00  0.00    -0.775 OA
HETATM   33  H   UNK N   1      32.256  14.669  11.639  0.00  0.00     0.167 HD
ENDBRANCH  30  32
ENDBRANCH  29  30
ENDBRANCH  12  29
ENDBRANCH   1   9
TORSDOF 7
ENDMDL
MODEL 2
REMARK VINA RESULT:      -7.3      5.447      8.751
REMARK  7 active torsions:
REMARK  status: ('A' for Active; 'I' for Inactive)
REMARK    1  A    between atoms: C_6  and  C_7 
REMARK    2  A    between atoms: C_7  and  N_8 
REMARK    3  A    between atoms: C_7  and  C_9 
REMARK       I    between atoms: N_8  and  C_15 
REMARK       I    between atoms: C_15  and  N_22 
REMARK    4  A    between atoms: N_16  and  C_18 
REMARK    5  A    between atoms: C_18  and  C_19 
REMARK    6  A    between atoms: C_19  and  O_21 
REMARK    7  A    between atoms: N_22  and  C_23 
ROOT
HETATM    1  C   UNK N   1      33.802  12.538   8.303  0.00  0.00     0.049 A 
HETATM    2  C   UNK N   1      33.178  11.288   8.342  0.00  0.00     0.031 A 
HETATM    3  C   UNK N   1      33.383  10.382   7.308  0.00  0.00     0.025 A 
HETATM    4  C   UNK N   1      34.208  10.740   6.241  0.00  0.00     0.044 A 
HETATM    5  C   UNK N   1      34.273   9.957   5.061  0.00  0.00     0.099 C 
HETATM    6  N   UNK N   1      34.425   9.430   4.046  0.00  0.00    -0.191 NA
HETATM    7  C   UNK N   1      34.894  11.952   6.235  0.00  0.00     0.025 A 
HETATM    8  C   UNK N   1      34.708  12.839   7.271  0.00  0.00     0.031 A 
ENDROOT
BRANCH   1   9
HETATM    9  N   UNK N   1      33.589  13.461   9.347  0.00  0.00    -0.192 N 
HETATM   10  C   UNK N   1      33.167  14.791   9.066  0.00  0.00     0.675 C 
HETATM   11  N   UNK N   1      32.253  15.032   7.985  0.00  0.00    -0.214 N 
HETATM   12  N   UNK N   1      33.637  15.767   9.754  0.00  0.00    -0.216 N 
HETATM   13  H   UNK N   1      31.736  14.263   7.653  0.00  0.00     0.178 HD
ATOM     14  HN  UNK N   1      33.367  16.718   9.499  1.00  0.00     0.178 HD
HETATM   15  H   UNK N   1      33.733  13.183  10.281  0.00  0.00     0.184 HD
BRANCH  11  16
HETATM   16  C   UNK N   1      32.022  16.317   7.339  0.00  0.00     0.166 C 
BRANCH  16  17
HETATM   17  C   UNK N   1      32.304  16.260   5.852  0.00  0.00    -0.030 A 
HETATM   18  C   UNK N   1      32.534  15.017   5.246  0.00  0.00     0.009 A 
HETATM   19  C   UNK N   1      32.870  14.945   3.890  0.00  0.00     0.001 A 
HETATM   20  C   UNK N   1      32.986  16.114   3.132  0.00  0.00     0.000 A 
HETATM   21  C   UNK N   1      32.738  17.355   3.721  0.00  0.00     0.001 A 
HETATM   22  C   UNK N   1      32.396  17.427   5.073  0.00  0.00     0.009 A 
ENDBRANCH  16  17
BRANCH  16  23
HETATM   23  C   UNK N   1      30.824  17.144   7.811  0.00  0.00    -0.030 A 
HETATM   24  C   UNK N   1      30.945  18.050   8.881  0.00  0.00     0.009 A 
HETATM   25  C   UNK N   1      29.826  18.715   9.390  0.00  0.00     0.001 A 
HETATM   26  C   UNK N   1      28.562  18.459   8.854  0.00  0.00     0.000 A 
HETATM   27  C   UNK N   1      28.424  17.552   7.804  0.00  0.00     0.001 A 
HETATM   28  C   UNK N   1      29.548  16.907   7.294  0.00  0.00     0.009 A 
ENDBRANCH  16  23
ENDBRANCH  11  16
BRANCH  12  29
HETATM   29  C   UNK N   1      34.529  15.582  10.868  0.00  0.00     0.247 C 
BRANCH  29  30
HETATM   30  C   UNK N   1      35.710  16.471  10.675  0.00  0.00     0.158 C 
HETATM   31  O   UNK N   1      35.558  17.610  10.261  0.00  0.00    -0.649 OA
BRANCH  30  32
HETATM   32  O   UNK N   1      36.940  16.027  10.994  0.00  0.00    -0.775 OA
HETATM   33  H   UNK N   1      37.254  15.676  11.804  0.00  0.00     0.167 HD
ENDBRANCH  30  32
ENDBRANCH  29  30
ENDBRANCH  12  29
ENDBRANCH   1   9
TORSDOF 7
ENDMDL
MODEL 3
REMARK VINA RESULT:      -7.2     22.081     26.174
REMARK  7 active torsions:
REMARK  status: ('A' for Active; 'I' for Inactive)
REMARK    1  A    between atoms: C_6  and  C_7 
REMARK    2  A    between atoms: C_7  and  N_8 
REMARK    3  A    between atoms: C_7  and  C_9 
REMARK       I    between atoms: N_8  and  C_15 
REMARK       I    between atoms: C_15  and  N_22 
REMARK    4  A    between atoms: N_16  and  C_18 
REMARK    5  A    between atoms: C_18  and  C_19 
REMARK    6  A    between atoms: C_19  and  O_21 
REMARK    7  A    between atoms: N_22  and  C_23 
ROOT
HETATM    1  C   UNK N   1      28.465  22.442  -6.431  0.00  0.00     0.049 A 
HETATM    2  C   UNK N   1      28.026  23.498  -5.627  0.00  0.00     0.031 A 
HETATM    3  C   UNK N   1      28.643  23.738  -4.405  0.00  0.00     0.025 A 
HETATM    4  C   UNK N   1      29.692  22.912  -3.997  0.00  0.00     0.044 A 
HETATM    5  C   UNK N   1      30.204  22.965  -2.676  0.00  0.00     0.099 C 
HETATM    6  N   UNK N   1      30.716  22.890  -1.645  0.00  0.00    -0.191 NA
HETATM    7  C   UNK N   1      30.185  21.909  -4.827  0.00  0.00     0.025 A 
HETATM    8  C   UNK N   1      29.587  21.687  -6.047  0.00  0.00     0.031 A 
ENDROOT
BRANCH   1   9
HETATM    9  N   UNK N   1      27.835  22.192  -7.667  0.00  0.00    -0.192 N 
HETATM   10  C   UNK N   1      26.967  23.160  -8.247  0.00  0.00     0.675 C 
HETATM   11  N   UNK N   1      27.265  24.557  -8.106  0.00  0.00    -0.214 N 
HETATM   12  N   UNK N   1      25.905  22.777  -8.858  0.00  0.00    -0.216 N 
HETATM   13  H   UNK N   1      28.187  24.797  -7.858  0.00  0.00     0.178 HD
ATOM     14  HN  UNK N   1      25.266  23.487  -9.217  1.00  0.00     0.178 HD
HETATM   15  H   UNK N   1      27.998  21.341  -8.134  0.00  0.00     0.184 HD
BRANCH  11  16
HETATM   16  C   UNK N   1      26.321  25.650  -8.299  0.00  0.00     0.166 C 
BRANCH  16  17
HETATM   17  C   UNK N   1      26.305  26.596  -7.117  0.00  0.00    -0.030 A 
HETATM   18  C   UNK N   1      25.244  26.531  -6.202  0.00  0.00     0.009 A 
HETATM   19  C   UNK N   1      25.167  27.443  -5.144  0.00  0.00     0.001 A 
HETATM   20  C   UNK N   1      26.146  28.431  -4.996  0.00  0.00     0.000 A 
HETATM   21  C   UNK N   1      27.218  28.491  -5.889  0.00  0.00     0.001 A 
HETATM   22  C   UNK N   1      27.298  27.576  -6.941  0.00  0.00     0.009 A 
ENDBRANCH  16  17
BRANCH  16  23
HETATM   23  C   UNK N   1      26.209  26.252  -9.702  0.00  0.00    -0.030 A 
HETATM   24  C   UNK N   1      24.984  26.250 -10.394  0.00  0.00     0.009 A 
HETATM   25  C   UNK N   1      24.907  26.689 -11.719  0.00  0.00     0.001 A 
HETATM   26  C   UNK N   1      26.063  27.107 -12.380  0.00  0.00     0.000 A 
HETATM   27  C   UNK N   1      27.286  27.100 -11.712  0.00  0.00     0.001 A 
HETATM   28  C   UNK N   1      27.349  26.676 -10.387  0.00  0.00     0.009 A 
ENDBRANCH  16  23
ENDBRANCH  11  16
BRANCH  12  29
HETATM   29  C   UNK N   1      25.574  21.391  -9.058  0.00  0.00     0.247 C 
BRANCH  29  30
HETATM   30  C   UNK N   1      25.955  21.014 -10.449  0.00  0.00     0.158 C 
HETATM   31  O   UNK N   1      27.133  20.974 -10.772  0.00  0.00    -0.649 OA
BRANCH  30  32
HETATM   32  O   UNK N   1      25.000  20.683 -11.338  0.00  0.00    -0.775 OA
HETATM   33  H   UNK N   1      24.128  21.015 -11.425  0.00  0.00     0.167 HD
ENDBRANCH  30  32
ENDBRANCH  29  30
ENDBRANCH  12  29
ENDBRANCH   1   9
TORSDOF 7
ENDMDL
MODEL 4
REMARK VINA RESULT:      -7.2     14.564     17.856
REMARK  7 active torsions:
REMARK  status: ('A' for Active; 'I' for Inactive)
REMARK    1  A    between atoms: C_6  and  C_7 
REMARK    2  A    between atoms: C_7  and  N_8 
REMARK    3  A    between atoms: C_7  and  C_9 
REMARK       I    between atoms: N_8  and  C_15 
REMARK       I    between atoms: C_15  and  N_22 
REMARK    4  A    between atoms: N_16  and  C_18 
REMARK    5  A    between atoms: C_18  and  C_19 
REMARK    6  A    between atoms: C_19  and  O_21 
REMARK    7  A    between atoms: N_22  and  C_23 
ROOT
HETATM    1  C   UNK N   1      20.701  17.473   5.322  0.00  0.00     0.049 A 
HETATM    2  C   UNK N   1      21.567  18.197   4.499  0.00  0.00     0.031 A 
HETATM    3  C   UNK N   1      21.468  18.078   3.117  0.00  0.00     0.025 A 
HETATM    4  C   UNK N   1      20.503  17.228   2.575  0.00  0.00     0.044 A 
HETATM    5  C   UNK N   1      20.502  16.895   1.197  0.00  0.00     0.099 C 
HETATM    6  N   UNK N   1      20.379  16.530   0.109  0.00  0.00    -0.191 NA
HETATM    7  C   UNK N   1      19.587  16.565   3.387  0.00  0.00     0.025 A 
HETATM    8  C   UNK N   1      19.672  16.703   4.754  0.00  0.00     0.031 A 
ENDROOT
BRANCH   1   9
HETATM    9  N   UNK N   1      20.806  17.587   6.724  0.00  0.00    -0.192 N 
HETATM   10  C   UNK N   1      20.745  16.432   7.553  0.00  0.00     0.675 C 
HETATM   11  N   UNK N   1      21.332  15.202   7.102  0.00  0.00    -0.214 N 
HETATM   12  N   UNK N   1      20.131  16.488   8.679  0.00  0.00    -0.216 N 
HETATM   13  H   UNK N   1      21.990  15.259   6.372  0.00  0.00     0.178 HD
ATOM     14  HN  UNK N   1      20.048  15.635   9.232  1.00  0.00     0.178 HD
HETATM   15  H   UNK N   1      20.924  18.475   7.133  0.00  0.00     0.184 HD
BRANCH  11  16
HETATM   16  C   UNK N   1      21.041  13.877   7.632  0.00  0.00     0.166 C 
BRANCH  16  17
HETATM   17  C   UNK N   1      20.737  12.883   6.530  0.00  0.00    -0.030 A 
HETATM   18  C   UNK N   1      21.265  11.586   6.613  0.00  0.00     0.009 A 
HETATM   19  C   UNK N   1      21.061  10.674   5.572  0.00  0.00     0.001 A 
HETATM   20  C   UNK N   1      20.333  11.052   4.440  0.00  0.00     0.000 A 
HETATM   21  C   UNK N   1      19.786  12.334   4.358  0.00  0.00     0.001 A 
HETATM   22  C   UNK N   1      19.983  13.242   5.399  0.00  0.00     0.009 A 
ENDBRANCH  16  17
BRANCH  16  23
HETATM   23  C   UNK N   1      21.863  13.393   8.828  0.00  0.00    -0.030 A 
HETATM   24  C   UNK N   1      23.268  13.347   8.769  0.00  0.00     0.009 A 
HETATM   25  C   UNK N   1      24.014  12.793   9.815  0.00  0.00     0.001 A 
HETATM   26  C   UNK N   1      23.359  12.249  10.922  0.00  0.00     0.000 A 
HETATM   27  C   UNK N   1      21.967  12.274  10.987  0.00  0.00     0.001 A 
HETATM   28  C   UNK N   1      21.235  12.842   9.948  0.00  0.00     0.009 A 
ENDBRANCH  16  23
ENDBRANCH  11  16
BRANCH  12  29
HETATM   29  C   UNK N   1      19.553  17.700   9.195  0.00  0.00     0.247 C 
BRANCH  29  30
HETATM   30  C   UNK N   1      18.093  17.475   9.395  0.00  0.00     0.158 C 
HETATM   31  O   UNK N   1      17.559  16.475   8.939  0.00  0.00    -0.649 OA
BRANCH  30  32
HETATM   32  O   UNK N   1      17.372  18.359  10.110  0.00  0.00    -0.775 OA
HETATM   33  H   UNK N   1      17.530  19.270  10.263  0.00  0.00     0.167 HD
ENDBRANCH  30  32
ENDBRANCH  29  30
ENDBRANCH  12  29
ENDBRANCH   1   9
TORSDOF 7
ENDMDL
MODEL 5
REMARK VINA RESULT:      -7.1      9.940     14.336
REMARK  7 active torsions:
REMARK  status: ('A' for Active; 'I' for Inactive)
REMARK    1  A    between atoms: C_6  and  C_7 
REMARK    2  A    between atoms: C_7  and  N_8 
REMARK    3  A    between atoms: C_7  and  C_9 
REMARK       I    between atoms: N_8  and  C_15 
REMARK       I    between atoms: C_15  and  N_22 
REMARK    4  A    between atoms: N_16  and  C_18 
REMARK    5  A    between atoms: C_18  and  C_19 
REMARK    6  A    between atoms: C_19  and  O_21 
REMARK    7  A    between atoms: N_22  and  C_23 
ROOT
HETATM    1  C   UNK N   1      26.493  19.777   5.063  0.00  0.00     0.049 A 
HETATM    2  C   UNK N   1      25.362  18.995   5.312  0.00  0.00     0.031 A 
HETATM    3  C   UNK N   1      24.256  19.093   4.474  0.00  0.00     0.025 A 
HETATM    4  C   UNK N   1      24.295  19.980   3.398  0.00  0.00     0.044 A 
HETATM    5  C   UNK N   1      23.129  20.288   2.651  0.00  0.00     0.099 C 
HETATM    6  N   UNK N   1      22.272  20.638   1.963  0.00  0.00    -0.191 NA
HETATM    7  C   UNK N   1      25.447  20.703   3.099  0.00  0.00     0.025 A 
HETATM    8  C   UNK N   1      26.548  20.586   3.916  0.00  0.00     0.031 A 
ENDROOT
BRANCH   1   9
HETATM    9  N   UNK N   1      27.612  19.683   5.916  0.00  0.00    -0.192 N 
HETATM   10  C   UNK N   1      28.458  18.539   5.880  0.00  0.00     0.675 C 
HETATM   11  N   UNK N   1      28.725  17.891   4.627  0.00  0.00    -0.214 N 
HETATM   12  N   UNK N   1      28.944  18.073   6.973  0.00  0.00    -0.216 N 
HETATM   13  H   UNK N   1      28.546  18.406   3.808  0.00  0.00     0.178 HD
ATOM     14  HN  UNK N   1      29.502  17.219   6.934  1.00  0.00     0.178 HD
HETATM   15  H   UNK N   1      27.810  20.417   6.542  0.00  0.00     0.184 HD
BRANCH  11  16
HETATM   16  C   UNK N   1      29.238  16.538   4.463  0.00  0.00     0.166 C 
BRANCH  16  17
HETATM   17  C   UNK N   1      28.338  15.696   3.581  0.00  0.00    -0.030 A 
HETATM   18  C   UNK N   1      27.154  16.254   3.080  0.00  0.00     0.009 A 
HETATM   19  C   UNK N   1      26.271  15.475   2.326  0.00  0.00     0.001 A 
HETATM   20  C   UNK N   1      26.562  14.131   2.072  0.00  0.00     0.000 A 
HETATM   21  C   UNK N   1      27.748  13.572   2.549  0.00  0.00     0.001 A 
HETATM   22  C   UNK N   1      28.634  14.351   3.296  0.00  0.00     0.009 A 
ENDBRANCH  16  17
BRANCH  16  23
HETATM   23  C   UNK N   1      30.751  16.365   4.318  0.00  0.00    -0.030 A 
HETATM   24  C   UNK N   1      31.418  16.778   3.150  0.00  0.00     0.009 A 
HETATM   25  C   UNK N   1      32.779  16.511   2.967  0.00  0.00     0.001 A 
HETATM   26  C   UNK N   1      33.483  15.798   3.939  0.00  0.00     0.000 A 
HETATM   27  C   UNK N   1      32.832  15.369   5.094  0.00  0.00     0.001 A 
HETATM   28  C   UNK N   1      31.481  15.654   5.274  0.00  0.00     0.009 A 
ENDBRANCH  16  23
ENDBRANCH  11  16
BRANCH  12  29
HETATM   29  C   UNK N   1      28.738  18.700   8.252  0.00  0.00     0.247 C 
BRANCH  29  30
HETATM   30  C   UNK N   1      28.654  17.633   9.289  0.00  0.00     0.158 C 
HETATM   31  O   UNK N   1      27.593  17.063   9.497  0.00  0.00    -0.649 OA
BRANCH  30  32
HETATM   32  O   UNK N   1      29.758  17.273   9.969  0.00  0.00    -0.775 OA
HETATM   33  H   UNK N   1      30.369  17.808  10.437  0.00  0.00     0.167 HD
ENDBRANCH  30  32
ENDBRANCH  29  30
ENDBRANCH  12  29
ENDBRANCH   1   9
TORSDOF 7
ENDMDL
MODEL 6
REMARK VINA RESULT:      -7.1     13.162     16.812
REMARK  7 active torsions:
REMARK  status: ('A' for Active; 'I' for Inactive)
REMARK    1  A    between atoms: C_6  and  C_7 
REMARK    2  A    between atoms: C_7  and  N_8 
REMARK    3  A    between atoms: C_7  and  C_9 
REMARK       I    between atoms: N_8  and  C_15 
REMARK       I    between atoms: C_15  and  N_22 
REMARK    4  A    between atoms: N_16  and  C_18 
REMARK    5  A    between atoms: C_18  and  C_19 
REMARK    6  A    between atoms: C_19  and  O_21 
REMARK    7  A    between atoms: N_22  and  C_23 
ROOT
HETATM    1  C   UNK N   1      25.607  19.644   4.093  0.00  0.00     0.049 A 
HETATM    2  C   UNK N   1      26.522  20.382   4.849  0.00  0.00     0.031 A 
HETATM    3  C   UNK N   1      27.793  19.871   5.087  0.00  0.00     0.025 A 
HETATM    4  C   UNK N   1      28.133  18.621   4.567  0.00  0.00     0.044 A 
HETATM    5  C   UNK N   1      29.320  17.954   4.961  0.00  0.00     0.099 C 
HETATM    6  N   UNK N   1      30.238  17.293   5.188  0.00  0.00    -0.191 NA
HETATM    7  C   UNK N   1      27.253  17.917   3.748  0.00  0.00     0.025 A 
HETATM    8  C   UNK N   1      26.004  18.435   3.495  0.00  0.00     0.031 A 
ENDROOT
BRANCH   1   9
HETATM    9  N   UNK N   1      24.315  20.158   3.859  0.00  0.00    -0.192 N 
HETATM   10  C   UNK N   1      23.170  19.321   3.971  0.00  0.00     0.675 C 
HETATM   11  N   UNK N   1      23.131  18.301   4.981  0.00  0.00    -0.214 N 
HETATM   12  N   UNK N   1      22.198  19.457   3.144  0.00  0.00    -0.216 N 
HETATM   13  H   UNK N   1      23.763  18.388   5.732  0.00  0.00     0.178 HD
ATOM     14  HN  UNK N   1      21.411  18.810   3.204  1.00  0.00     0.178 HD
HETATM   15  H   UNK N   1      24.205  21.106   3.616  0.00  0.00     0.184 HD
BRANCH  11  16
HETATM   16  C   UNK N   1      22.237  17.151   4.994  0.00  0.00     0.166 C 
BRANCH  16  17
HETATM   17  C   UNK N   1      22.619  16.129   3.943  0.00  0.00    -0.030 A 
HETATM   18  C   UNK N   1      23.943  15.674   3.879  0.00  0.00     0.009 A 
HETATM   19  C   UNK N   1      24.337  14.787   2.872  0.00  0.00     0.001 A 
HETATM   20  C   UNK N   1      23.412  14.354   1.917  0.00  0.00     0.000 A 
HETATM   21  C   UNK N   1      22.086  14.785   1.984  0.00  0.00     0.001 A 
HETATM   22  C   UNK N   1      21.691  15.665   2.993  0.00  0.00     0.009 A 
ENDBRANCH  16  17
BRANCH  16  23
HETATM   23  C   UNK N   1      21.758  16.638   6.353  0.00  0.00    -0.030 A 
HETATM   24  C   UNK N   1      22.165  15.381   6.837  0.00  0.00     0.009 A 
HETATM   25  C   UNK N   1      21.633  14.861   8.021  0.00  0.00     0.001 A 
HETATM   26  C   UNK N   1      20.663  15.580   8.722  0.00  0.00     0.000 A 
HETATM   27  C   UNK N   1      20.239  16.819   8.246  0.00  0.00     0.001 A 
HETATM   28  C   UNK N   1      20.786  17.336   7.074  0.00  0.00     0.009 A 
ENDBRANCH  16  23
ENDBRANCH  11  16
BRANCH  12  29
HETATM   29  C   UNK N   1      22.168  20.482   2.134  0.00  0.00     0.247 C 
BRANCH  29  30
HETATM   30  C   UNK N   1      20.894  20.352   1.372  0.00  0.00     0.158 C 
HETATM   31  O   UNK N   1      19.897  19.902   1.917  0.00  0.00    -0.649 OA
BRANCH  30  32
HETATM   32  O   UNK N   1      20.834  20.766   0.093  0.00  0.00    -0.775 OA
HETATM   33  H   UNK N   1      21.244  20.406  -0.669  0.00  0.00     0.167 HD
ENDBRANCH  30  32
ENDBRANCH  29  30
ENDBRANCH  12  29
ENDBRANCH   1   9
TORSDOF 7
ENDMDL
MODEL 7
REMARK VINA RESULT:      -7.1     20.534     24.399
REMARK  7 active torsions:
REMARK  status: ('A' for Active; 'I' for Inactive)
REMARK    1  A    between atoms: C_6  and  C_7 
REMARK    2  A    between atoms: C_7  and  N_8 
REMARK    3  A    between atoms: C_7  and  C_9 
REMARK       I    between atoms: N_8  and  C_15 
REMARK       I    between atoms: C_15  and  N_22 
REMARK    4  A    between atoms: N_16  and  C_18 
REMARK    5  A    between atoms: C_18  and  C_19 
REMARK    6  A    between atoms: C_19  and  O_21 
REMARK    7  A    between atoms: N_22  and  C_23 
ROOT
HETATM    1  C   UNK N   1      25.665  25.490  -5.076  0.00  0.00     0.049 A 
HETATM    2  C   UNK N   1      26.286  25.647  -3.834  0.00  0.00     0.031 A 
HETATM    3  C   UNK N   1      26.422  26.919  -3.287  0.00  0.00     0.025 A 
HETATM    4  C   UNK N   1      25.940  28.020  -3.995  0.00  0.00     0.044 A 
HETATM    5  C   UNK N   1      26.248  29.346  -3.599  0.00  0.00     0.099 C 
HETATM    6  N   UNK N   1      26.418  30.471  -3.405  0.00  0.00    -0.191 NA
HETATM    7  C   UNK N   1      25.251  27.861  -5.195  0.00  0.00     0.025 A 
HETATM    8  C   UNK N   1      25.097  26.600  -5.723  0.00  0.00     0.031 A 
ENDROOT
BRANCH   1   9
HETATM    9  N   UNK N   1      25.533  24.202  -5.635  0.00  0.00    -0.192 N 
HETATM   10  C   UNK N   1      26.669  23.513  -6.147  0.00  0.00     0.675 C 
HETATM   11  N   UNK N   1      27.938  23.650  -5.490  0.00  0.00    -0.214 N 
HETATM   12  N   UNK N   1      26.558  22.807  -7.214  0.00  0.00    -0.216 N 
HETATM   13  H   UNK N   1      27.932  23.984  -4.564  0.00  0.00     0.178 HD
ATOM     14  HN  UNK N   1      27.396  22.368  -7.597  1.00  0.00     0.178 HD
HETATM   15  H   UNK N   1      24.647  23.775  -5.671  0.00  0.00     0.184 HD
BRANCH  11  16
HETATM   16  C   UNK N   1      29.235  23.335  -6.074  0.00  0.00     0.166 C 
BRANCH  16  17
HETATM   17  C   UNK N   1      30.058  24.582  -6.326  0.00  0.00    -0.030 A 
HETATM   18  C   UNK N   1      29.447  25.839  -6.218  0.00  0.00     0.009 A 
HETATM   19  C   UNK N   1      30.166  27.001  -6.518  0.00  0.00     0.001 A 
HETATM   20  C   UNK N   1      31.498  26.914  -6.934  0.00  0.00     0.000 A 
HETATM   21  C   UNK N   1      32.122  25.669  -7.024  0.00  0.00     0.001 A 
HETATM   22  C   UNK N   1      31.407  24.509  -6.718  0.00  0.00     0.009 A 
ENDBRANCH  16  17
BRANCH  16  23
HETATM   23  C   UNK N   1      29.959  22.087  -5.565  0.00  0.00    -0.030 A 
HETATM   24  C   UNK N   1      30.301  21.952  -4.207  0.00  0.00     0.009 A 
HETATM   25  C   UNK N   1      31.067  20.870  -3.763  0.00  0.00     0.001 A 
HETATM   26  C   UNK N   1      31.530  19.924  -4.679  0.00  0.00     0.000 A 
HETATM   27  C   UNK N   1      31.213  20.054  -6.031  0.00  0.00     0.001 A 
HETATM   28  C   UNK N   1      30.435  21.126  -6.460  0.00  0.00     0.009 A 
ENDBRANCH  16  23
ENDBRANCH  11  16
BRANCH  12  29
HETATM   29  C   UNK N   1      25.306  22.608  -7.894  0.00  0.00     0.247 C 
BRANCH  29  30
HETATM   30  C   UNK N   1      24.761  21.280  -7.494  0.00  0.00     0.158 C 
HETATM   31  O   UNK N   1      25.283  20.254  -7.906  0.00  0.00    -0.649 OA
BRANCH  30  32
HETATM   32  O   UNK N   1      23.716  21.213  -6.648  0.00  0.00    -0.775 OA
HETATM   33  H   UNK N   1      23.373  21.868  -6.073  0.00  0.00     0.167 HD
ENDBRANCH  30  32
ENDBRANCH  29  30
ENDBRANCH  12  29
ENDBRANCH   1   9
TORSDOF 7
ENDMDL
MODEL 8
REMARK VINA RESULT:      -6.9     19.471     23.670
REMARK  7 active torsions:
REMARK  status: ('A' for Active; 'I' for Inactive)
REMARK    1  A    between atoms: C_6  and  C_7 
REMARK    2  A    between atoms: C_7  and  N_8 
REMARK    3  A    between atoms: C_7  and  C_9 
REMARK       I    between atoms: N_8  and  C_15 
REMARK       I    between atoms: C_15  and  N_22 
REMARK    4  A    between atoms: N_16  and  C_18 
REMARK    5  A    between atoms: C_18  and  C_19 
REMARK    6  A    between atoms: C_19  and  O_21 
REMARK    7  A    between atoms: N_22  and  C_23 
ROOT
HETATM    1  C   UNK N   1      31.490  25.248  -4.477  0.00  0.00     0.049 A 
HETATM    2  C   UNK N   1      32.518  25.926  -5.138  0.00  0.00     0.031 A 
HETATM    3  C   UNK N   1      32.726  27.278  -4.889  0.00  0.00     0.025 A 
HETATM    4  C   UNK N   1      31.895  27.939  -3.982  0.00  0.00     0.044 A 
HETATM    5  C   UNK N   1      31.912  29.351  -3.858  0.00  0.00     0.099 C 
HETATM    6  N   UNK N   1      31.808  30.481  -3.652  0.00  0.00    -0.191 NA
HETATM    7  C   UNK N   1      30.921  27.251  -3.263  0.00  0.00     0.025 A 
HETATM    8  C   UNK N   1      30.732  25.907  -3.494  0.00  0.00     0.031 A 
ENDROOT
BRANCH   1   9
HETATM    9  N   UNK N   1      31.274  23.879  -4.735  0.00  0.00    -0.192 N 
HETATM   10  C   UNK N   1      29.954  23.368  -4.888  0.00  0.00     0.675 C 
HETATM   11  N   UNK N   1      28.955  24.167  -5.539  0.00  0.00    -0.214 N 
HETATM   12  N   UNK N   1      29.658  22.215  -4.409  0.00  0.00    -0.216 N 
HETATM   13  H   UNK N   1      29.270  24.915  -6.097  0.00  0.00     0.178 HD
ATOM     14  HN  UNK N   1      28.693  21.891  -4.478  1.00  0.00     0.178 HD
HETATM   15  H   UNK N   1      32.044  23.270  -4.811  0.00  0.00     0.184 HD
BRANCH  11  16
HETATM   16  C   UNK N   1      27.515  23.967  -5.446  0.00  0.00     0.166 C 
BRANCH  16  17
HETATM   17  C   UNK N   1      26.794  25.237  -5.042  0.00  0.00    -0.030 A 
HETATM   18  C   UNK N   1      26.123  25.985  -6.020  0.00  0.00     0.009 A 
HETATM   19  C   UNK N   1      25.514  27.198  -5.686  0.00  0.00     0.001 A 
HETATM   20  C   UNK N   1      25.575  27.677  -4.374  0.00  0.00     0.000 A 
HETATM   21  C   UNK N   1      26.222  26.930  -3.388  0.00  0.00     0.001 A 
HETATM   22  C   UNK N   1      26.825  25.715  -3.720  0.00  0.00     0.009 A 
ENDBRANCH  16  17
BRANCH  16  23
HETATM   23  C   UNK N   1      26.853  23.069  -6.493  0.00  0.00    -0.030 A 
HETATM   24  C   UNK N   1      25.514  22.661  -6.355  0.00  0.00     0.009 A 
HETATM   25  C   UNK N   1      24.947  21.744  -7.246  0.00  0.00     0.001 A 
HETATM   26  C   UNK N   1      25.723  21.199  -8.270  0.00  0.00     0.000 A 
HETATM   27  C   UNK N   1      27.056  21.581  -8.409  0.00  0.00     0.001 A 
HETATM   28  C   UNK N   1      27.607  22.507  -7.526  0.00  0.00     0.009 A 
ENDBRANCH  16  23
ENDBRANCH  11  16
BRANCH  12  29
HETATM   29  C   UNK N   1      30.626  21.358  -3.778  0.00  0.00     0.247 C 
BRANCH  29  30
HETATM   30  C   UNK N   1      31.140  22.048  -2.561  0.00  0.00     0.158 C 
HETATM   31  O   UNK N   1      32.313  21.933  -2.239  0.00  0.00    -0.649 OA
BRANCH  30  32
HETATM   32  O   UNK N   1      30.315  22.827  -1.837  0.00  0.00    -0.775 OA
HETATM   33  H   UNK N   1      30.223  23.760  -1.840  0.00  0.00     0.167 HD
ENDBRANCH  30  32
ENDBRANCH  29  30
ENDBRANCH  12  29
ENDBRANCH   1   9
TORSDOF 7
ENDMDL
MODEL 9
REMARK VINA RESULT:      -6.8     12.783     14.516
REMARK  7 active torsions:
REMARK  status: ('A' for Active; 'I' for Inactive)
REMARK    1  A    between atoms: C_6  and  C_7 
REMARK    2  A    between atoms: C_7  and  N_8 
REMARK    3  A    between atoms: C_7  and  C_9 
REMARK       I    between atoms: N_8  and  C_15 
REMARK       I    between atoms: C_15  and  N_22 
REMARK    4  A    between atoms: N_16  and  C_18 
REMARK    5  A    between atoms: C_18  and  C_19 
REMARK    6  A    between atoms: C_19  and  O_21 
REMARK    7  A    between atoms: N_22  and  C_23 
ROOT
HETATM    1  C   UNK N   1      24.766  16.070   5.293  0.00  0.00     0.049 A 
HETATM    2  C   UNK N   1      24.652  15.462   4.039  0.00  0.00     0.031 A 
HETATM    3  C   UNK N   1      25.792  15.237   3.274  0.00  0.00     0.025 A 
HETATM    4  C   UNK N   1      27.035  15.629   3.773  0.00  0.00     0.044 A 
HETATM    5  C   UNK N   1      28.192  15.633   2.954  0.00  0.00     0.099 C 
HETATM    6  N   UNK N   1      29.209  15.695   2.413  0.00  0.00    -0.191 NA
HETATM    7  C   UNK N   1      27.163  16.163   5.053  0.00  0.00     0.025 A 
HETATM    8  C   UNK N   1      26.037  16.364   5.818  0.00  0.00     0.031 A 
ENDROOT
BRANCH   1   9
HETATM    9  N   UNK N   1      23.611  16.306   6.065  0.00  0.00    -0.192 N 
HETATM   10  C   UNK N   1      22.994  15.247   6.790  0.00  0.00     0.675 C 
HETATM   11  N   UNK N   1      23.808  14.233   7.397  0.00  0.00    -0.214 N 
HETATM   12  N   UNK N   1      21.713  15.186   6.860  0.00  0.00    -0.216 N 
HETATM   13  H   UNK N   1      24.761  14.442   7.532  0.00  0.00     0.178 HD
ATOM     14  HN  UNK N   1      21.289  14.388   7.335  1.00  0.00     0.178 HD
HETATM   15  H   UNK N   1      23.228  17.212   6.105  0.00  0.00     0.184 HD
BRANCH  11  16
HETATM   16  C   UNK N   1      23.347  12.922   7.833  0.00  0.00     0.166 C 
BRANCH  16  17
HETATM   17  C   UNK N   1      23.889  11.812   6.955  0.00  0.00    -0.030 A 
HETATM   18  C   UNK N   1      24.848  12.118   5.980  0.00  0.00     0.009 A 
HETATM   19  C   UNK N   1      25.309  11.126   5.108  0.00  0.00     0.001 A 
HETATM   20  C   UNK N   1      24.809   9.823   5.200  0.00  0.00     0.000 A 
HETATM   21  C   UNK N   1      23.869   9.504   6.182  0.00  0.00     0.001 A 
HETATM   22  C   UNK N   1      23.415  10.492   7.057  0.00  0.00     0.009 A 
ENDBRANCH  16  17
BRANCH  16  23
HETATM   23  C   UNK N   1      23.255  12.665   9.339  0.00  0.00    -0.030 A 
HETATM   24  C   UNK N   1      24.410  12.415  10.102  0.00  0.00     0.009 A 
HETATM   25  C   UNK N   1      24.316  12.062  11.452  0.00  0.00     0.001 A 
HETATM   26  C   UNK N   1      23.061  11.925  12.049  0.00  0.00     0.000 A 
HETATM   27  C   UNK N   1      21.908  12.154  11.300  0.00  0.00     0.001 A 
HETATM   28  C   UNK N   1      22.013  12.521   9.961  0.00  0.00     0.009 A 
ENDBRANCH  16  23
ENDBRANCH  11  16
BRANCH  12  29
HETATM   29  C   UNK N   1      20.850  16.191   6.299  0.00  0.00     0.247 C 
BRANCH  29  30
HETATM   30  C   UNK N   1      20.837  17.364   7.219  0.00  0.00     0.158 C 
HETATM   31  O   UNK N   1      20.397  17.248   8.354  0.00  0.00    -0.649 OA
BRANCH  30  32
HETATM   32  O   UNK N   1      21.345  18.541   6.809  0.00  0.00    -0.775 OA
HETATM   33  H   UNK N   1      21.306  18.943   5.963  0.00  0.00     0.167 HD
ENDBRANCH  30  32
ENDBRANCH  29  30
ENDBRANCH  12  29
ENDBRANCH   1   9
TORSDOF 7
ENDMDL
