MODEL 1
REMARK VINA RESULT:      -7.7      0.000      0.000
REMARK  5 active torsions:
REMARK  status: ('A' for Active; 'I' for Inactive)
REMARK    1  A    between atoms: N_3  and  C_4 
REMARK       I    between atoms: C_15  and  N_3 
REMARK       I    between atoms: N_5  and  C_15 
REMARK    2  A    between atoms: C_16  and  N_5 
REMARK    3  A    between atoms: C_8  and  S_22 
REMARK    4  A    between atoms: N_9  and  S_22 
REMARK    5  A    between atoms: C_28  and  N_25 
ROOT
HETATM    1  C   UNK N   1      35.959  13.832   9.883  0.00  0.00     0.037 A 
HETATM    2  C   UNK N   1      36.152  11.674  10.975  0.00  0.00     0.076 A 
HETATM    3  C   UNK N   1      37.384  11.470  10.347  0.00  0.00     0.025 A 
HETATM    4  C   UNK N   1      37.906  12.440   9.495  0.00  0.00     0.004 A 
HETATM    5  C   UNK N   1      35.432  12.851  10.741  0.00  0.00     0.054 A 
HETATM    6  C   UNK N   1      37.188  13.610   9.256  0.00  0.00     0.029 A 
ENDROOT
BRANCH   2   7
HETATM    7  S   UNK N   1      35.414  10.326  11.878  0.00  0.00     0.243 S 
HETATM    8  O   UNK N   1      35.920   9.013  11.255  0.00  0.00    -0.206 OA
HETATM    9  O   UNK N   1      33.920  10.217  11.537  0.00  0.00    -0.206 OA
BRANCH   7  10
HETATM   10  N   UNK N   1      35.573  10.114  13.652  0.00  0.00    -0.203 NA
HETATM   11  C   UNK N   1      36.910  10.492  14.149  0.00  0.00     0.127 C 
HETATM   12  C   UNK N   1      37.153  12.010  14.082  0.00  0.00     0.140 C 
HETATM   13  N   UNK N   1      36.026  12.709  14.656  0.00  0.00    -0.365 N 
HETATM   14  C   UNK N   1      34.702  12.357  14.209  0.00  0.00     0.140 C 
HETATM   15  C   UNK N   1      34.524  10.847  14.377  0.00  0.00     0.127 C 
BRANCH  13  16
HETATM   16  C   UNK N   1      36.206  13.656  15.701  0.00  0.00     0.102 A 
HETATM   17  N   UNK N   1      37.109  14.668  15.563  0.00  0.00    -0.352 N 
HETATM   18  C   UNK N   1      37.321  15.574  16.556  0.00  0.00     0.089 A 
ATOM     19  HN  UNK N   1      37.639  14.747  14.695  1.00  0.00     0.166 HD
HETATM   20  C   UNK N   1      36.605  15.486  17.752  0.00  0.00     0.017 A 
HETATM   21  C   UNK N   1      35.668  14.466  17.914  0.00  0.00     0.005 A 
HETATM   22  C   UNK N   1      35.466  13.547  16.889  0.00  0.00     0.048 A 
ENDBRANCH  13  16
ENDBRANCH   7  10
ENDBRANCH   2   7
BRANCH   1  23
HETATM   23  N   UNK N   1      35.270  15.035   9.585  0.00  0.00    -0.309 N 
HETATM   24  C   UNK N   1      35.470  16.264  10.122  0.00  0.00     0.326 C 
HETATM   25  N   UNK N   1      34.691  17.313   9.749  0.00  0.00    -0.288 N 
HETATM   26  O   UNK N   1      36.363  16.450  10.939  0.00  0.00    -0.247 OA
HETATM   27  H   UNK N   1      34.875  18.186  10.165  0.00  0.00     0.172 HD
HETATM   28  H   UNK N   1      34.562  14.971   8.905  0.00  0.00     0.170 HD
BRANCH  25  29
HETATM   29  C   UNK N   1      33.626  17.248   8.798  0.00  0.00     0.152 A 
HETATM   30  N   UNK N   1      32.343  17.008   9.150  0.00  0.00    -0.346 N 
HETATM   31  C   UNK N   1      31.493  16.997   8.060  0.00  0.00     0.097 A 
ATOM     32  HN  UNK N   1      32.036  16.852  10.110  1.00  0.00     0.167 HD
HETATM   33  C   UNK N   1      32.105  17.236   6.814  0.00  0.00     0.070 A 
HETATM   34  S   UNK N   1      33.710  17.449   7.158  0.00  0.00    -0.064 SA
ENDBRANCH  25  29
ENDBRANCH   1  23
TORSDOF 5
ENDMDL
MODEL 2
REMARK VINA RESULT:      -7.5     10.110     13.805
REMARK  5 active torsions:
REMARK  status: ('A' for Active; 'I' for Inactive)
REMARK    1  A    between atoms: N_3  and  C_4 
REMARK       I    between atoms: C_15  and  N_3 
REMARK       I    between atoms: N_5  and  C_15 
REMARK    2  A    between atoms: C_16  and  N_5 
REMARK    3  A    between atoms: C_8  and  S_22 
REMARK    4  A    between atoms: N_9  and  S_22 
REMARK    5  A    between atoms: C_28  and  N_25 
ROOT
HETATM    1  C   UNK N   1      24.638  16.767   5.013  0.00  0.00     0.037 A 
HETATM    2  C   UNK N   1      22.398  15.843   4.880  0.00  0.00     0.076 A 
HETATM    3  C   UNK N   1      22.715  15.262   3.649  0.00  0.00     0.025 A 
HETATM    4  C   UNK N   1      23.984  15.425   3.102  0.00  0.00     0.004 A 
HETATM    5  C   UNK N   1      23.355  16.603   5.564  0.00  0.00     0.054 A 
HETATM    6  C   UNK N   1      24.936  16.186   3.777  0.00  0.00     0.029 A 
ENDROOT
BRANCH   2   7
HETATM    7  S   UNK N   1      20.707  15.800   5.443  0.00  0.00     0.243 S 
HETATM    8  O   UNK N   1      19.801  15.778   4.199  0.00  0.00    -0.206 OA
HETATM    9  O   UNK N   1      20.310  17.163   6.029  0.00  0.00    -0.206 OA
BRANCH   7  10
HETATM   10  N   UNK N   1      20.056  14.537   6.538  0.00  0.00    -0.203 NA
HETATM   11  C   UNK N   1      20.771  13.253   6.409  0.00  0.00     0.127 C 
HETATM   12  C   UNK N   1      22.203  13.319   6.968  0.00  0.00     0.140 C 
HETATM   13  N   UNK N   1      22.185  13.922   8.281  0.00  0.00    -0.365 N 
HETATM   14  C   UNK N   1      21.483  15.169   8.453  0.00  0.00     0.140 C 
HETATM   15  C   UNK N   1      20.054  14.991   7.937  0.00  0.00     0.127 C 
BRANCH  13  16
HETATM   16  C   UNK N   1      22.764  13.262   9.399  0.00  0.00     0.102 A 
HETATM   17  N   UNK N   1      24.112  13.066   9.458  0.00  0.00    -0.352 N 
HETATM   18  C   UNK N   1      24.692  12.415  10.503  0.00  0.00     0.089 A 
ATOM     19  HN  UNK N   1      24.699  13.416   8.701  1.00  0.00     0.166 HD
HETATM   20  C   UNK N   1      23.908  11.930  11.551  0.00  0.00     0.017 A 
HETATM   21  C   UNK N   1      22.528  12.125  11.519  0.00  0.00     0.005 A 
HETATM   22  C   UNK N   1      21.951  12.791  10.442  0.00  0.00     0.048 A 
ENDBRANCH  13  16
ENDBRANCH   7  10
ENDBRANCH   2   7
BRANCH   1  23
HETATM   23  N   UNK N   1      25.644  17.543   5.641  0.00  0.00    -0.309 N 
HETATM   24  C   UNK N   1      25.965  18.840   5.405  0.00  0.00     0.326 C 
HETATM   25  N   UNK N   1      26.990  19.428   6.075  0.00  0.00    -0.288 N 
HETATM   26  O   UNK N   1      25.328  19.502   4.595  0.00  0.00    -0.247 OA
HETATM   27  H   UNK N   1      27.184  20.371   5.871  0.00  0.00     0.172 HD
HETATM   28  H   UNK N   1      26.173  17.087   6.334  0.00  0.00     0.170 HD
BRANCH  25  29
HETATM   29  C   UNK N   1      27.807  18.785   7.056  0.00  0.00     0.152 A 
HETATM   30  N   UNK N   1      27.620  18.946   8.385  0.00  0.00    -0.346 N 
HETATM   31  C   UNK N   1      28.529  18.222   9.134  0.00  0.00     0.097 A 
ATOM     32  HN  UNK N   1      26.892  19.535   8.790  1.00  0.00     0.167 HD
HETATM   33  C   UNK N   1      29.458  17.467   8.393  0.00  0.00     0.070 A 
HETATM   34  S   UNK N   1      29.079  17.757   6.808  0.00  0.00    -0.064 SA
ENDBRANCH  25  29
ENDBRANCH   1  23
TORSDOF 5
ENDMDL
MODEL 3
REMARK VINA RESULT:      -7.2      5.989     12.037
REMARK  5 active torsions:
REMARK  status: ('A' for Active; 'I' for Inactive)
REMARK    1  A    between atoms: N_3  and  C_4 
REMARK       I    between atoms: C_15  and  N_3 
REMARK       I    between atoms: N_5  and  C_15 
REMARK    2  A    between atoms: C_16  and  N_5 
REMARK    3  A    between atoms: C_8  and  S_22 
REMARK    4  A    between atoms: N_9  and  S_22 
REMARK    5  A    between atoms: C_28  and  N_25 
ROOT
HETATM    1  C   UNK N   1      33.007  16.828   6.831  0.00  0.00     0.037 A 
HETATM    2  C   UNK N   1      30.928  17.088   5.606  0.00  0.00     0.076 A 
HETATM    3  C   UNK N   1      31.648  17.198   4.414  0.00  0.00     0.025 A 
HETATM    4  C   UNK N   1      33.038  17.120   4.424  0.00  0.00     0.004 A 
HETATM    5  C   UNK N   1      31.603  16.909   6.819  0.00  0.00     0.054 A 
HETATM    6  C   UNK N   1      33.713  16.948   5.631  0.00  0.00     0.029 A 
ENDROOT
BRANCH   2   7
HETATM    7  S   UNK N   1      29.175  17.413   5.586  0.00  0.00     0.243 S 
HETATM    8  O   UNK N   1      28.888  18.493   6.643  0.00  0.00    -0.206 OA
HETATM    9  O   UNK N   1      28.412  16.233   6.206  0.00  0.00    -0.206 OA
BRANCH   7  10
HETATM   10  N   UNK N   1      28.276  17.919   4.119  0.00  0.00    -0.203 NA
HETATM   11  C   UNK N   1      27.293  16.908   3.681  0.00  0.00     0.127 C 
HETATM   12  C   UNK N   1      26.101  16.792   4.647  0.00  0.00     0.140 C 
HETATM   13  N   UNK N   1      25.588  18.109   4.946  0.00  0.00    -0.365 N 
HETATM   14  C   UNK N   1      26.517  19.130   5.360  0.00  0.00     0.140 C 
HETATM   15  C   UNK N   1      27.626  19.224   4.311  0.00  0.00     0.127 C 
BRANCH  13  16
HETATM   16  C   UNK N   1      24.215  18.422   4.750  0.00  0.00     0.102 A 
HETATM   17  N   UNK N   1      23.270  17.934   5.602  0.00  0.00    -0.352 N 
HETATM   18  C   UNK N   1      21.946  18.196   5.425  0.00  0.00     0.089 A 
ATOM     19  HN  UNK N   1      23.563  17.357   6.392  1.00  0.00     0.166 HD
HETATM   20  C   UNK N   1      21.524  18.984   4.353  0.00  0.00     0.017 A 
HETATM   21  C   UNK N   1      22.470  19.504   3.472  0.00  0.00     0.005 A 
HETATM   22  C   UNK N   1      23.820  19.225   3.667  0.00  0.00     0.048 A 
ENDBRANCH  13  16
ENDBRANCH   7  10
ENDBRANCH   2   7
BRANCH   1  23
HETATM   23  N   UNK N   1      33.751  16.672   8.026  0.00  0.00    -0.309 N 
HETATM   24  C   UNK N   1      34.376  17.634   8.751  0.00  0.00     0.326 C 
HETATM   25  N   UNK N   1      35.085  17.307   9.862  0.00  0.00    -0.288 N 
HETATM   26  O   UNK N   1      34.300  18.811   8.420  0.00  0.00    -0.247 OA
HETATM   27  H   UNK N   1      35.520  18.040  10.355  0.00  0.00     0.172 HD
HETATM   28  H   UNK N   1      33.824  15.755   8.375  0.00  0.00     0.170 HD
BRANCH  25  29
HETATM   29  C   UNK N   1      35.247  15.983  10.374  0.00  0.00     0.152 A 
HETATM   30  N   UNK N   1      34.378  15.422  11.245  0.00  0.00    -0.346 N 
HETATM   31  C   UNK N   1      34.743  14.134  11.592  0.00  0.00     0.097 A 
ATOM     32  HN  UNK N   1      33.549  15.894  11.605  1.00  0.00     0.167 HD
HETATM   33  C   UNK N   1      35.921  13.655  10.988  0.00  0.00     0.070 A 
HETATM   34  S   UNK N   1      36.450  14.899  10.035  0.00  0.00    -0.064 SA
ENDBRANCH  25  29
ENDBRANCH   1  23
TORSDOF 5
ENDMDL
MODEL 4
REMARK VINA RESULT:      -7.1     18.243     22.525
REMARK  5 active torsions:
REMARK  status: ('A' for Active; 'I' for Inactive)
REMARK    1  A    between atoms: N_3  and  C_4 
REMARK       I    between atoms: C_15  and  N_3 
REMARK       I    between atoms: N_5  and  C_15 
REMARK    2  A    between atoms: C_16  and  N_5 
REMARK    3  A    between atoms: C_8  and  S_22 
REMARK    4  A    between atoms: N_9  and  S_22 
REMARK    5  A    between atoms: C_28  and  N_25 
ROOT
HETATM    1  C   UNK N   1      30.410  25.012  -3.800  0.00  0.00     0.037 A 
HETATM    2  C   UNK N   1      28.785  26.797  -4.061  0.00  0.00     0.076 A 
HETATM    3  C   UNK N   1      29.775  27.737  -3.761  0.00  0.00     0.025 A 
HETATM    4  C   UNK N   1      31.075  27.323  -3.487  0.00  0.00     0.004 A 
HETATM    5  C   UNK N   1      29.096  25.432  -4.076  0.00  0.00     0.054 A 
HETATM    6  C   UNK N   1      31.386  25.965  -3.494  0.00  0.00     0.029 A 
ENDROOT
BRANCH   2   7
HETATM    7  S   UNK N   1      27.093  27.340  -4.189  0.00  0.00     0.243 S 
HETATM    8  O   UNK N   1      27.065  28.852  -3.905  0.00  0.00    -0.206 OA
HETATM    9  O   UNK N   1      26.282  26.835  -2.986  0.00  0.00    -0.206 OA
BRANCH   7  10
HETATM   10  N   UNK N   1      26.081  27.103  -5.651  0.00  0.00    -0.203 NA
HETATM   11  C   UNK N   1      26.876  26.721  -6.834  0.00  0.00     0.127 C 
HETATM   12  C   UNK N   1      27.446  25.296  -6.722  0.00  0.00     0.140 C 
HETATM   13  N   UNK N   1      26.400  24.384  -6.322  0.00  0.00    -0.365 N 
HETATM   14  C   UNK N   1      25.589  24.729  -5.181  0.00  0.00     0.140 C 
HETATM   15  C   UNK N   1      25.009  26.125  -5.409  0.00  0.00     0.127 C 
BRANCH  13  16
HETATM   16  C   UNK N   1      26.112  23.219  -7.084  0.00  0.00     0.102 A 
HETATM   17  N   UNK N   1      25.039  22.439  -6.767  0.00  0.00    -0.352 N 
HETATM   18  C   UNK N   1      24.753  21.305  -7.462  0.00  0.00     0.089 A 
ATOM     19  HN  UNK N   1      24.437  22.713  -5.991  1.00  0.00     0.166 HD
HETATM   20  C   UNK N   1      25.562  20.912  -8.530  0.00  0.00     0.017 A 
HETATM   21  C   UNK N   1      26.660  21.697  -8.881  0.00  0.00     0.005 A 
HETATM   22  C   UNK N   1      26.939  22.853  -8.158  0.00  0.00     0.048 A 
ENDBRANCH  13  16
ENDBRANCH   7  10
ENDBRANCH   2   7
BRANCH   1  23
HETATM   23  N   UNK N   1      30.784  23.646  -3.775  0.00  0.00    -0.309 N 
HETATM   24  C   UNK N   1      30.821  22.812  -2.706  0.00  0.00     0.326 C 
HETATM   25  N   UNK N   1      31.243  21.529  -2.848  0.00  0.00    -0.288 N 
HETATM   26  O   UNK N   1      30.462  23.199  -1.601  0.00  0.00    -0.247 OA
HETATM   27  H   UNK N   1      31.251  20.961  -2.044  0.00  0.00     0.172 HD
HETATM   28  H   UNK N   1      31.049  23.253  -4.637  0.00  0.00     0.170 HD
BRANCH  25  29
HETATM   29  C   UNK N   1      31.675  20.937  -4.075  0.00  0.00     0.152 A 
HETATM   30  N   UNK N   1      30.820  20.593  -5.064  0.00  0.00    -0.346 N 
HETATM   31  C   UNK N   1      31.472  20.043  -6.153  0.00  0.00     0.097 A 
ATOM     32  HN  UNK N   1      29.810  20.723  -5.014  1.00  0.00     0.167 HD
HETATM   33  C   UNK N   1      32.872  19.948  -6.035  0.00  0.00     0.070 A 
HETATM   34  S   UNK N   1      33.220  20.569  -4.542  0.00  0.00    -0.064 SA
ENDBRANCH  25  29
ENDBRANCH   1  23
TORSDOF 5
ENDMDL
MODEL 5
REMARK VINA RESULT:      -7.1      6.335     12.434
REMARK  5 active torsions:
REMARK  status: ('A' for Active; 'I' for Inactive)
REMARK    1  A    between atoms: N_3  and  C_4 
REMARK       I    between atoms: C_15  and  N_3 
REMARK       I    between atoms: N_5  and  C_15 
REMARK    2  A    between atoms: C_16  and  N_5 
REMARK    3  A    between atoms: C_8  and  S_22 
REMARK    4  A    between atoms: N_9  and  S_22 
REMARK    5  A    between atoms: C_28  and  N_25 
ROOT
HETATM    1  C   UNK N   1      31.089  17.364   8.492  0.00  0.00     0.037 A 
HETATM    2  C   UNK N   1      29.177  17.164   7.010  0.00  0.00     0.076 A 
HETATM    3  C   UNK N   1      28.478  18.087   7.794  0.00  0.00     0.025 A 
HETATM    4  C   UNK N   1      29.077  18.650   8.918  0.00  0.00     0.004 A 
HETATM    5  C   UNK N   1      30.481  16.794   7.359  0.00  0.00     0.054 A 
HETATM    6  C   UNK N   1      30.373  18.278   9.270  0.00  0.00     0.029 A 
ENDROOT
BRANCH   2   7
HETATM    7  S   UNK N   1      28.307  16.302   5.716  0.00  0.00     0.243 S 
HETATM    8  O   UNK N   1      26.955  15.841   6.288  0.00  0.00    -0.206 OA
HETATM    9  O   UNK N   1      28.960  14.935   5.460  0.00  0.00    -0.206 OA
BRANCH   7  10
HETATM   10  N   UNK N   1      27.935  17.024   4.116  0.00  0.00    -0.203 NA
HETATM   11  C   UNK N   1      26.818  16.342   3.434  0.00  0.00     0.127 C 
HETATM   12  C   UNK N   1      25.465  16.604   4.119  0.00  0.00     0.140 C 
HETATM   13  N   UNK N   1      25.310  18.019   4.362  0.00  0.00    -0.365 N 
HETATM   14  C   UNK N   1      26.385  18.726   5.012  0.00  0.00     0.140 C 
HETATM   15  C   UNK N   1      27.672  18.466   4.227  0.00  0.00     0.127 C 
BRANCH  13  16
HETATM   16  C   UNK N   1      24.166  18.723   3.894  0.00  0.00     0.102 A 
HETATM   17  N   UNK N   1      24.307  19.936   3.288  0.00  0.00    -0.352 N 
HETATM   18  C   UNK N   1      23.230  20.644   2.852  0.00  0.00     0.089 A 
ATOM     19  HN  UNK N   1      25.242  20.322   3.158  1.00  0.00     0.166 HD
HETATM   20  C   UNK N   1      21.941  20.134   3.017  0.00  0.00     0.017 A 
HETATM   21  C   UNK N   1      21.769  18.891   3.625  0.00  0.00     0.005 A 
HETATM   22  C   UNK N   1      22.882  18.181   4.066  0.00  0.00     0.048 A 
ENDBRANCH  13  16
ENDBRANCH   7  10
ENDBRANCH   2   7
BRANCH   1  23
HETATM   23  N   UNK N   1      32.396  17.015   8.912  0.00  0.00    -0.309 N 
HETATM   24  C   UNK N   1      33.562  17.642   8.617  0.00  0.00     0.326 C 
HETATM   25  N   UNK N   1      34.743  17.151   9.075  0.00  0.00    -0.288 N 
HETATM   26  O   UNK N   1      33.566  18.666   7.945  0.00  0.00    -0.247 OA
HETATM   27  H   UNK N   1      35.562  17.642   8.835  0.00  0.00     0.172 HD
HETATM   28  H   UNK N   1      32.468  16.221   9.489  0.00  0.00     0.170 HD
BRANCH  25  29
HETATM   29  C   UNK N   1      34.890  15.979   9.878  0.00  0.00     0.152 A 
HETATM   30  N   UNK N   1      34.826  16.003  11.228  0.00  0.00    -0.346 N 
HETATM   31  C   UNK N   1      34.992  14.748  11.784  0.00  0.00     0.097 A 
ATOM     32  HN  UNK N   1      34.674  16.850  11.776  1.00  0.00     0.167 HD
HETATM   33  C   UNK N   1      35.189  13.700  10.864  0.00  0.00     0.070 A 
HETATM   34  S   UNK N   1      35.145  14.424   9.376  0.00  0.00    -0.064 SA
ENDBRANCH  25  29
ENDBRANCH   1  23
TORSDOF 5
ENDMDL
MODEL 6
REMARK VINA RESULT:      -7.1     17.860     23.080
REMARK  5 active torsions:
REMARK  status: ('A' for Active; 'I' for Inactive)
REMARK    1  A    between atoms: N_3  and  C_4 
REMARK       I    between atoms: C_15  and  N_3 
REMARK       I    between atoms: N_5  and  C_15 
REMARK    2  A    between atoms: C_16  and  N_5 
REMARK    3  A    between atoms: C_8  and  S_22 
REMARK    4  A    between atoms: N_9  and  S_22 
REMARK    5  A    between atoms: C_28  and  N_25 
ROOT
HETATM    1  C   UNK N   1      30.632  23.992  -4.127  0.00  0.00     0.037 A 
HETATM    2  C   UNK N   1      28.450  25.051  -4.207  0.00  0.00     0.076 A 
HETATM    3  C   UNK N   1      29.064  26.297  -4.361  0.00  0.00     0.025 A 
HETATM    4  C   UNK N   1      30.452  26.394  -4.403  0.00  0.00     0.004 A 
HETATM    5  C   UNK N   1      29.230  23.895  -4.083  0.00  0.00     0.054 A 
HETATM    6  C   UNK N   1      31.231  25.246  -4.273  0.00  0.00     0.029 A 
ENDROOT
BRANCH   2   7
HETATM    7  S   UNK N   1      26.689  24.987  -3.937  0.00  0.00     0.243 S 
HETATM    8  O   UNK N   1      26.298  26.225  -3.111  0.00  0.00    -0.206 OA
HETATM    9  O   UNK N   1      26.349  23.883  -2.924  0.00  0.00    -0.206 OA
BRANCH   7  10
HETATM   10  N   UNK N   1      25.483  24.886  -5.261  0.00  0.00    -0.203 NA
HETATM   11  C   UNK N   1      25.095  26.214  -5.774  0.00  0.00     0.127 C 
HETATM   12  C   UNK N   1      26.231  26.897  -6.556  0.00  0.00     0.140 C 
HETATM   13  N   UNK N   1      26.788  25.969  -7.513  0.00  0.00    -0.365 N 
HETATM   14  C   UNK N   1      27.165  24.655  -7.056  0.00  0.00     0.140 C 
HETATM   15  C   UNK N   1      25.959  24.027  -6.356  0.00  0.00     0.127 C 
BRANCH  13  16
HETATM   16  C   UNK N   1      26.879  26.305  -8.892  0.00  0.00     0.102 A 
HETATM   17  N   UNK N   1      27.987  26.938  -9.373  0.00  0.00    -0.352 N 
HETATM   18  C   UNK N   1      28.092  27.294 -10.682  0.00  0.00     0.089 A 
ATOM     19  HN  UNK N   1      28.755  27.149  -8.735  1.00  0.00     0.166 HD
HETATM   20  C   UNK N   1      27.055  27.013 -11.572  0.00  0.00     0.017 A 
HETATM   21  C   UNK N   1      25.915  26.357 -11.108  0.00  0.00     0.005 A 
HETATM   22  C   UNK N   1      25.823  26.002  -9.766  0.00  0.00     0.048 A 
ENDBRANCH  13  16
ENDBRANCH   7  10
ENDBRANCH   2   7
BRANCH   1  23
HETATM   23  N   UNK N   1      31.479  22.865  -3.983  0.00  0.00    -0.309 N 
HETATM   24  C   UNK N   1      31.736  22.153  -2.857  0.00  0.00     0.326 C 
HETATM   25  N   UNK N   1      32.609  21.114  -2.883  0.00  0.00    -0.288 N 
HETATM   26  O   UNK N   1      31.175  22.430  -1.804  0.00  0.00    -0.247 OA
HETATM   27  H   UNK N   1      32.762  20.627  -2.041  0.00  0.00     0.172 HD
HETATM   28  H   UNK N   1      31.936  22.559  -4.799  0.00  0.00     0.170 HD
BRANCH  25  29
HETATM   29  C   UNK N   1      33.323  20.669  -4.039  0.00  0.00     0.152 A 
HETATM   30  N   UNK N   1      32.775  19.860  -4.973  0.00  0.00    -0.346 N 
HETATM   31  C   UNK N   1      33.656  19.570  -5.998  0.00  0.00     0.097 A 
ATOM     32  HN  UNK N   1      31.821  19.503  -4.927  1.00  0.00     0.167 HD
HETATM   33  C   UNK N   1      34.930  20.159  -5.885  0.00  0.00     0.070 A 
HETATM   34  S   UNK N   1      34.878  21.026  -4.476  0.00  0.00    -0.064 SA
ENDBRANCH  25  29
ENDBRANCH   1  23
TORSDOF 5
ENDMDL
MODEL 7
REMARK VINA RESULT:      -7.1      2.787      3.570
REMARK  5 active torsions:
REMARK  status: ('A' for Active; 'I' for Inactive)
REMARK    1  A    between atoms: N_3  and  C_4 
REMARK       I    between atoms: C_15  and  N_3 
REMARK       I    between atoms: N_5  and  C_15 
REMARK    2  A    between atoms: C_16  and  N_5 
REMARK    3  A    between atoms: C_8  and  S_22 
REMARK    4  A    between atoms: N_9  and  S_22 
REMARK    5  A    between atoms: C_28  and  N_25 
ROOT
HETATM    1  C   UNK N   1      34.992  14.499  10.265  0.00  0.00     0.037 A 
HETATM    2  C   UNK N   1      35.810  13.243  12.173  0.00  0.00     0.076 A 
HETATM    3  C   UNK N   1      36.354  12.290  11.307  0.00  0.00     0.025 A 
HETATM    4  C   UNK N   1      36.224  12.438   9.929  0.00  0.00     0.004 A 
HETATM    5  C   UNK N   1      35.121  14.347  11.656  0.00  0.00     0.054 A 
HETATM    6  C   UNK N   1      35.534  13.533   9.413  0.00  0.00     0.029 A 
ENDROOT
BRANCH   2   7
HETATM    7  S   UNK N   1      35.801  12.910  13.924  0.00  0.00     0.243 S 
HETATM    8  O   UNK N   1      36.513  14.080  14.625  0.00  0.00    -0.206 OA
HETATM    9  O   UNK N   1      36.785  11.776  14.251  0.00  0.00    -0.206 OA
BRANCH   7  10
HETATM   10  N   UNK N   1      34.308  12.611  14.871  0.00  0.00    -0.203 NA
HETATM   11  C   UNK N   1      33.953  11.180  14.932  0.00  0.00     0.127 C 
HETATM   12  C   UNK N   1      34.933  10.369  15.796  0.00  0.00     0.140 C 
HETATM   13  N   UNK N   1      35.139  11.040  17.059  0.00  0.00    -0.365 N 
HETATM   14  C   UNK N   1      35.471  12.443  17.044  0.00  0.00     0.140 C 
HETATM   15  C   UNK N   1      34.409  13.178  16.225  0.00  0.00     0.127 C 
BRANCH  13  16
HETATM   16  C   UNK N   1      34.930  10.363  18.291  0.00  0.00     0.102 A 
HETATM   17  N   UNK N   1      34.204   9.209  18.327  0.00  0.00    -0.352 N 
HETATM   18  C   UNK N   1      33.966   8.553  19.495  0.00  0.00     0.089 A 
ATOM     19  HN  UNK N   1      33.830   8.830  17.457  1.00  0.00     0.166 HD
HETATM   20  C   UNK N   1      34.470   9.053  20.697  0.00  0.00     0.017 A 
HETATM   21  C   UNK N   1      35.224  10.226  20.688  0.00  0.00     0.005 A 
HETATM   22  C   UNK N   1      35.456  10.885  19.484  0.00  0.00     0.048 A 
ENDBRANCH  13  16
ENDBRANCH   7  10
ENDBRANCH   2   7
BRANCH   1  23
HETATM   23  N   UNK N   1      34.287  15.580   9.678  0.00  0.00    -0.309 N 
HETATM   24  C   UNK N   1      34.611  16.897   9.704  0.00  0.00     0.326 C 
HETATM   25  N   UNK N   1      33.800  17.817   9.118  0.00  0.00    -0.288 N 
HETATM   26  O   UNK N   1      35.643  17.275  10.243  0.00  0.00    -0.247 OA
HETATM   27  H   UNK N   1      34.077  18.760   9.162  0.00  0.00     0.172 HD
HETATM   28  H   UNK N   1      33.464  15.348   9.193  0.00  0.00     0.170 HD
BRANCH  25  29
HETATM   29  C   UNK N   1      32.576  17.521   8.442  0.00  0.00     0.152 A 
HETATM   30  N   UNK N   1      31.374  17.538   9.061  0.00  0.00    -0.346 N 
HETATM   31  C   UNK N   1      30.338  17.224   8.202  0.00  0.00     0.097 A 
ATOM     32  HN  UNK N   1      31.246  17.756  10.049  1.00  0.00     0.167 HD
HETATM   33  C   UNK N   1      30.715  16.954   6.872  0.00  0.00     0.070 A 
HETATM   34  S   UNK N   1      32.360  17.127   6.850  0.00  0.00    -0.064 SA
ENDBRANCH  25  29
ENDBRANCH   1  23
TORSDOF 5
ENDMDL
MODEL 8
REMARK VINA RESULT:      -7.0      2.812      8.498
REMARK  5 active torsions:
REMARK  status: ('A' for Active; 'I' for Inactive)
REMARK    1  A    between atoms: N_3  and  C_4 
REMARK       I    between atoms: C_15  and  N_3 
REMARK       I    between atoms: N_5  and  C_15 
REMARK    2  A    between atoms: C_16  and  N_5 
REMARK    3  A    between atoms: C_8  and  S_22 
REMARK    4  A    between atoms: N_9  and  S_22 
REMARK    5  A    between atoms: C_28  and  N_25 
ROOT
HETATM    1  C   UNK N   1      35.084  12.999   9.678  0.00  0.00     0.037 A 
HETATM    2  C   UNK N   1      34.587  14.043   7.545  0.00  0.00     0.076 A 
HETATM    3  C   UNK N   1      33.651  13.041   7.276  0.00  0.00     0.025 A 
HETATM    4  C   UNK N   1      33.427  12.025   8.201  0.00  0.00     0.004 A 
HETATM    5  C   UNK N   1      35.312  14.023   8.742  0.00  0.00     0.054 A 
HETATM    6  C   UNK N   1      34.151  11.999   9.391  0.00  0.00     0.029 A 
ENDROOT
BRANCH   2   7
HETATM    7  S   UNK N   1      35.008  15.197   6.252  0.00  0.00     0.243 S 
HETATM    8  O   UNK N   1      34.531  14.597   4.918  0.00  0.00    -0.206 OA
HETATM    9  O   UNK N   1      36.525  15.191   6.012  0.00  0.00    -0.206 OA
BRANCH   7  10
HETATM   10  N   UNK N   1      34.470  16.908   6.234  0.00  0.00    -0.203 NA
HETATM   11  C   UNK N   1      33.324  17.131   5.331  0.00  0.00     0.127 C 
HETATM   12  C   UNK N   1      32.027  16.494   5.860  0.00  0.00     0.140 C 
HETATM   13  N   UNK N   1      31.840  16.853   7.247  0.00  0.00    -0.365 N 
HETATM   14  C   UNK N   1      32.941  16.666   8.159  0.00  0.00     0.140 C 
HETATM   15  C   UNK N   1      34.163  17.388   7.590  0.00  0.00     0.127 C 
BRANCH  13  16
HETATM   16  C   UNK N   1      30.634  17.461   7.690  0.00  0.00     0.102 A 
HETATM   17  N   UNK N   1      29.543  17.498   6.874  0.00  0.00    -0.352 N 
HETATM   18  C   UNK N   1      28.383  18.096   7.261  0.00  0.00     0.089 A 
ATOM     19  HN  UNK N   1      29.598  17.066   5.951  1.00  0.00     0.166 HD
HETATM   20  C   UNK N   1      28.286  18.690   8.520  0.00  0.00     0.017 A 
HETATM   21  C   UNK N   1      29.384  18.658   9.378  0.00  0.00     0.005 A 
HETATM   22  C   UNK N   1      30.563  18.044   8.966  0.00  0.00     0.048 A 
ENDBRANCH  13  16
ENDBRANCH   7  10
ENDBRANCH   2   7
BRANCH   1  23
HETATM   23  N   UNK N   1      35.801  12.907  10.898  0.00  0.00    -0.309 N 
HETATM   24  C   UNK N   1      37.126  12.675  11.070  0.00  0.00     0.326 C 
HETATM   25  N   UNK N   1      37.651  12.580  12.319  0.00  0.00    -0.288 N 
HETATM   26  O   UNK N   1      37.870  12.561  10.104  0.00  0.00    -0.247 OA
HETATM   27  H   UNK N   1      38.619  12.412  12.393  0.00  0.00     0.172 HD
HETATM   28  H   UNK N   1      35.274  13.028  11.720  0.00  0.00     0.170 HD
BRANCH  25  29
HETATM   29  C   UNK N   1      36.910  12.707  13.534  0.00  0.00     0.152 A 
HETATM   30  N   UNK N   1      37.033  13.770  14.360  0.00  0.00    -0.346 N 
HETATM   31  C   UNK N   1      36.213  13.671  15.468  0.00  0.00     0.097 A 
ATOM     32  HN  UNK N   1      37.659  14.556  14.186  1.00  0.00     0.167 HD
HETATM   33  C   UNK N   1      35.418  12.510  15.531  0.00  0.00     0.070 A 
HETATM   34  S   UNK N   1      35.798  11.657  14.164  0.00  0.00    -0.064 SA
ENDBRANCH  25  29
ENDBRANCH   1  23
TORSDOF 5
ENDMDL
MODEL 9
REMARK VINA RESULT:      -6.9      4.859      8.063
REMARK  5 active torsions:
REMARK  status: ('A' for Active; 'I' for Inactive)
REMARK    1  A    between atoms: N_3  and  C_4 
REMARK       I    between atoms: C_15  and  N_3 
REMARK       I    between atoms: N_5  and  C_15 
REMARK    2  A    between atoms: C_16  and  N_5 
REMARK    3  A    between atoms: C_8  and  S_22 
REMARK    4  A    between atoms: N_9  and  S_22 
REMARK    5  A    between atoms: C_28  and  N_25 
ROOT
HETATM    1  C   UNK N   1      28.813  17.776   7.343  0.00  0.00     0.037 A 
HETATM    2  C   UNK N   1      31.189  17.404   7.665  0.00  0.00     0.076 A 
HETATM    3  C   UNK N   1      31.141  18.146   8.849  0.00  0.00     0.025 A 
HETATM    4  C   UNK N   1      29.939  18.697   9.283  0.00  0.00     0.004 A 
HETATM    5  C   UNK N   1      30.028  17.222   6.905  0.00  0.00     0.054 A 
HETATM    6  C   UNK N   1      28.783  18.522   8.525  0.00  0.00     0.029 A 
ENDROOT
BRANCH   2   7
HETATM    7  S   UNK N   1      32.777  16.904   7.027  0.00  0.00     0.243 S 
HETATM    8  O   UNK N   1      33.828  17.891   7.565  0.00  0.00    -0.206 OA
HETATM    9  O   UNK N   1      32.867  17.221   5.527  0.00  0.00    -0.206 OA
BRANCH   7  10
HETATM   10  N   UNK N   1      33.475  15.270   7.272  0.00  0.00    -0.203 NA
HETATM   11  C   UNK N   1      34.909  15.314   7.619  0.00  0.00     0.127 C 
HETATM   12  C   UNK N   1      35.153  15.876   9.031  0.00  0.00     0.140 C 
HETATM   13  N   UNK N   1      34.277  15.220   9.974  0.00  0.00    -0.365 N 
HETATM   14  C   UNK N   1      32.871  15.141   9.663  0.00  0.00     0.140 C 
HETATM   15  C   UNK N   1      32.721  14.509   8.279  0.00  0.00     0.127 C 
BRANCH  13  16
HETATM   16  C   UNK N   1      34.794  14.586  11.136  0.00  0.00     0.102 A 
HETATM   17  N   UNK N   1      34.451  13.299  11.426  0.00  0.00    -0.352 N 
HETATM   18  C   UNK N   1      34.910  12.674  12.544  0.00  0.00     0.089 A 
ATOM     19  HN  UNK N   1      33.835  12.793  10.789  1.00  0.00     0.166 HD
HETATM   20  C   UNK N   1      35.755  13.347  13.428  0.00  0.00     0.017 A 
HETATM   21  C   UNK N   1      36.129  14.660  13.150  0.00  0.00     0.005 A 
HETATM   22  C   UNK N   1      35.649  15.285  12.003  0.00  0.00     0.048 A 
ENDBRANCH  13  16
ENDBRANCH   7  10
ENDBRANCH   2   7
BRANCH   1  23
HETATM   23  N   UNK N   1      27.608  17.649   6.608  0.00  0.00    -0.309 N 
HETATM   24  C   UNK N   1      26.705  16.637   6.656  0.00  0.00     0.326 C 
HETATM   25  N   UNK N   1      25.611  16.652   5.852  0.00  0.00    -0.288 N 
HETATM   26  O   UNK N   1      26.857  15.703   7.434  0.00  0.00    -0.247 OA
HETATM   27  H   UNK N   1      24.984  15.896   5.923  0.00  0.00     0.172 HD
HETATM   28  H   UNK N   1      27.399  18.384   5.989  0.00  0.00     0.170 HD
BRANCH  25  29
HETATM   29  C   UNK N   1      25.297  17.680   4.910  0.00  0.00     0.152 A 
HETATM   30  N   UNK N   1      24.419  18.673   5.174  0.00  0.00    -0.346 N 
HETATM   31  C   UNK N   1      24.284  19.549   4.114  0.00  0.00     0.097 A 
ATOM     32  HN  UNK N   1      23.913  18.765   6.054  1.00  0.00     0.167 HD
HETATM   33  C   UNK N   1      25.069  19.255   2.982  0.00  0.00     0.070 A 
HETATM   34  S   UNK N   1      25.904  17.884   3.384  0.00  0.00    -0.064 SA
ENDBRANCH  25  29
ENDBRANCH   1  23
TORSDOF 5
ENDMDL
