MODEL 1
REMARK VINA RESULT:      -6.1      0.000      0.000
REMARK  3 active torsions:
REMARK  status: ('A' for Active; 'I' for Inactive)
REMARK    1  A    between atoms: C_2  and  C_5 
REMARK       I    between atoms: C_2  and  N_3 
REMARK    2  A    between atoms: N_3  and  O_4 
REMARK    3  A    between atoms: C_6  and  C_7 
ROOT
HETATM    1  C   UNK N   1      30.863  17.371   7.773  0.00  0.00    -0.014 A 
HETATM    2  C   UNK N   1      29.609  17.774   8.307  0.00  0.00     0.045 A 
HETATM    3 Cl   UNK N   1      29.434  18.598   9.852  0.00  0.00    -0.083 Cl
HETATM    4  C   UNK N   1      28.440  17.511   7.584  0.00  0.00     0.048 A 
HETATM    5  C   UNK N   1      30.899  16.721   6.536  0.00  0.00     0.015 A 
HETATM    6  C   UNK N   1      29.729  16.466   5.827  0.00  0.00     0.024 A 
HETATM    7  C   UNK N   1      28.500  16.860   6.349  0.00  0.00     0.035 A 
HETATM    8 Cl   UNK N   1      27.035  16.536   5.453  0.00  0.00    -0.084 Cl
ENDROOT
BRANCH   1   9
HETATM    9  C   UNK N   1      32.168  17.582   8.422  0.00  0.00     0.018 C 
HETATM   10  C   UNK N   1      33.269  18.072   7.854  0.00  0.00     0.077 C 
BRANCH  10  11
HETATM   11  C   UNK N   1      34.492  18.215   8.654  0.00  0.00     0.264 C 
HETATM   12  O   UNK N   1      35.284  19.109   8.394  0.00  0.00    -0.266 OA
HETATM   13  N   UNK N   1      34.739  17.359   9.675  0.00  0.00    -0.234 N 
HETATM   14  H   UNK N   1      34.092  16.644   9.872  0.00  0.00     0.197 HD
BRANCH  13  15
HETATM   15  O   UNK N   1      35.846  17.467  10.419  0.00  0.00    -0.287 OA
HETATM   16  H   UNK N   1      36.705  17.618   9.993  0.00  0.00     0.244 HD
ENDBRANCH  13  15
ENDBRANCH  10  11
ENDBRANCH   1   9
TORSDOF 3
ENDMDL
MODEL 2
REMARK VINA RESULT:      -6.0      7.363      8.985
REMARK  3 active torsions:
REMARK  status: ('A' for Active; 'I' for Inactive)
REMARK    1  A    between atoms: C_2  and  C_5 
REMARK       I    between atoms: C_2  and  N_3 
REMARK    2  A    between atoms: N_3  and  O_4 
REMARK    3  A    between atoms: C_6  and  C_7 
ROOT
HETATM    1  C   UNK N   1      35.745  13.555  13.859  0.00  0.00    -0.014 A 
HETATM    2  C   UNK N   1      36.177  13.563  15.212  0.00  0.00     0.045 A 
HETATM    3 Cl   UNK N   1      37.165  14.844  15.907  0.00  0.00    -0.083 Cl
HETATM    4  C   UNK N   1      35.808  12.508  16.055  0.00  0.00     0.048 A 
HETATM    5  C   UNK N   1      34.962  12.492  13.400  0.00  0.00     0.015 A 
HETATM    6  C   UNK N   1      34.603  11.449  14.248  0.00  0.00     0.024 A 
HETATM    7  C   UNK N   1      35.025  11.456  15.575  0.00  0.00     0.035 A 
HETATM    8 Cl   UNK N   1      34.570  10.143  16.635  0.00  0.00    -0.084 Cl
ENDROOT
BRANCH   1   9
HETATM    9  C   UNK N   1      36.056  14.594  12.863  0.00  0.00     0.018 C 
HETATM   10  C   UNK N   1      35.277  14.992  11.858  0.00  0.00     0.077 C 
BRANCH  10  11
HETATM   11  C   UNK N   1      35.748  16.049  10.953  0.00  0.00     0.264 C 
HETATM   12  O   UNK N   1      36.925  16.083  10.625  0.00  0.00    -0.266 OA
HETATM   13  N   UNK N   1      34.882  16.980  10.487  0.00  0.00    -0.234 N 
HETATM   14  H   UNK N   1      33.937  16.939  10.761  0.00  0.00     0.197 HD
BRANCH  13  15
HETATM   15  O   UNK N   1      35.285  17.953   9.662  0.00  0.00    -0.287 OA
HETATM   16  H   UNK N   1      35.212  17.836   8.702  0.00  0.00     0.244 HD
ENDBRANCH  13  15
ENDBRANCH  10  11
ENDBRANCH   1   9
TORSDOF 3
ENDMDL
MODEL 3
REMARK VINA RESULT:      -5.9     10.101     11.691
REMARK  3 active torsions:
REMARK  status: ('A' for Active; 'I' for Inactive)
REMARK    1  A    between atoms: C_2  and  C_5 
REMARK       I    between atoms: C_2  and  N_3 
REMARK    2  A    between atoms: N_3  and  O_4 
REMARK    3  A    between atoms: C_6  and  C_7 
ROOT
HETATM    1  C   UNK N   1      35.163  12.444  17.144  0.00  0.00    -0.014 A 
HETATM    2  C   UNK N   1      35.218  13.154  18.373  0.00  0.00     0.045 A 
HETATM    3 Cl   UNK N   1      35.184  14.912  18.479  0.00  0.00    -0.083 Cl
HETATM    4  C   UNK N   1      35.305  12.441  19.574  0.00  0.00     0.048 A 
HETATM    5  C   UNK N   1      35.196  11.047  17.164  0.00  0.00     0.015 A 
HETATM    6  C   UNK N   1      35.282  10.349  18.364  0.00  0.00     0.024 A 
HETATM    7  C   UNK N   1      35.337  11.045  19.569  0.00  0.00     0.035 A 
HETATM    8 Cl   UNK N   1      35.445  10.162  21.074  0.00  0.00    -0.084 Cl
ENDROOT
BRANCH   1   9
HETATM    9  C   UNK N   1      35.070  13.062  15.810  0.00  0.00     0.018 C 
HETATM   10  C   UNK N   1      36.076  13.288  14.967  0.00  0.00     0.077 C 
BRANCH  10  11
HETATM   11  C   UNK N   1      35.802  13.917  13.668  0.00  0.00     0.264 C 
HETATM   12  O   UNK N   1      34.788  13.620  13.055  0.00  0.00    -0.266 OA
HETATM   13  N   UNK N   1      36.670  14.822  13.156  0.00  0.00    -0.234 N 
HETATM   14  H   UNK N   1      37.483  15.052  13.663  0.00  0.00     0.197 HD
BRANCH  13  15
HETATM   15  O   UNK N   1      36.444  15.410  11.976  0.00  0.00    -0.287 OA
HETATM   16  H   UNK N   1      36.703  14.964  11.154  0.00  0.00     0.244 HD
ENDBRANCH  13  15
ENDBRANCH  10  11
ENDBRANCH   1   9
TORSDOF 3
ENDMDL
MODEL 4
REMARK VINA RESULT:      -5.8     13.226     14.304
REMARK  3 active torsions:
REMARK  status: ('A' for Active; 'I' for Inactive)
REMARK    1  A    between atoms: C_2  and  C_5 
REMARK       I    between atoms: C_2  and  N_3 
REMARK    2  A    between atoms: N_3  and  O_4 
REMARK    3  A    between atoms: C_6  and  C_7 
ROOT
HETATM    1  C   UNK N   1      27.586  24.513  -3.983  0.00  0.00    -0.014 A 
HETATM    2  C   UNK N   1      27.211  24.250  -5.328  0.00  0.00     0.045 A 
HETATM    3 Cl   UNK N   1      27.876  22.925  -6.277  0.00  0.00    -0.083 Cl
HETATM    4  C   UNK N   1      26.266  25.074  -5.950  0.00  0.00     0.048 A 
HETATM    5  C   UNK N   1      27.001  25.591  -3.312  0.00  0.00     0.015 A 
HETATM    6  C   UNK N   1      26.062  26.403  -3.941  0.00  0.00     0.024 A 
HETATM    7  C   UNK N   1      25.694  26.145  -5.260  0.00  0.00     0.035 A 
HETATM    8 Cl   UNK N   1      24.515  27.168  -6.045  0.00  0.00    -0.084 Cl
ENDROOT
BRANCH   1   9
HETATM    9  C   UNK N   1      28.563  23.733  -3.206  0.00  0.00     0.018 C 
HETATM   10  C   UNK N   1      29.889  23.761  -3.337  0.00  0.00     0.077 C 
BRANCH  10  11
HETATM   11  C   UNK N   1      30.718  22.911  -2.472  0.00  0.00     0.264 C 
HETATM   12  O   UNK N   1      30.536  22.917  -1.264  0.00  0.00    -0.266 OA
HETATM   13  N   UNK N   1      31.679  22.125  -3.014  0.00  0.00    -0.234 N 
HETATM   14  H   UNK N   1      31.815  22.131  -3.989  0.00  0.00     0.197 HD
BRANCH  13  15
HETATM   15  O   UNK N   1      32.448  21.342  -2.249  0.00  0.00    -0.287 OA
HETATM   16  H   UNK N   1      33.151  21.733  -1.706  0.00  0.00     0.244 HD
ENDBRANCH  13  15
ENDBRANCH  10  11
ENDBRANCH   1   9
TORSDOF 3
ENDMDL
MODEL 5
REMARK VINA RESULT:      -5.8      1.426      2.010
REMARK  3 active torsions:
REMARK  status: ('A' for Active; 'I' for Inactive)
REMARK    1  A    between atoms: C_2  and  C_5 
REMARK       I    between atoms: C_2  and  N_3 
REMARK    2  A    between atoms: N_3  and  O_4 
REMARK    3  A    between atoms: C_6  and  C_7 
ROOT
HETATM    1  C   UNK N   1      30.817  17.167   7.646  0.00  0.00    -0.014 A 
HETATM    2  C   UNK N   1      30.582  16.265   6.574  0.00  0.00     0.045 A 
HETATM    3 Cl   UNK N   1      31.836  15.249   5.871  0.00  0.00    -0.083 Cl
HETATM    4  C   UNK N   1      29.295  16.163   6.034  0.00  0.00     0.048 A 
HETATM    5  C   UNK N   1      29.755  17.933   8.136  0.00  0.00     0.015 A 
HETATM    6  C   UNK N   1      28.480  17.822   7.590  0.00  0.00     0.024 A 
HETATM    7  C   UNK N   1      28.249  16.937   6.539  0.00  0.00     0.035 A 
HETATM    8 Cl   UNK N   1      26.645  16.802   5.857  0.00  0.00    -0.084 Cl
ENDROOT
BRANCH   1   9
HETATM    9  C   UNK N   1      32.115  17.378   8.309  0.00  0.00     0.018 C 
HETATM   10  C   UNK N   1      33.150  18.066   7.831  0.00  0.00     0.077 C 
BRANCH  10  11
HETATM   11  C   UNK N   1      34.377  18.175   8.633  0.00  0.00     0.264 C 
HETATM   12  O   UNK N   1      35.198  19.039   8.365  0.00  0.00    -0.266 OA
HETATM   13  N   UNK N   1      34.593  17.322   9.662  0.00  0.00    -0.234 N 
HETATM   14  H   UNK N   1      33.922  16.631   9.865  0.00  0.00     0.197 HD
BRANCH  13  15
HETATM   15  O   UNK N   1      35.701  17.400  10.408  0.00  0.00    -0.287 OA
HETATM   16  H   UNK N   1      35.943  16.667  10.996  0.00  0.00     0.244 HD
ENDBRANCH  13  15
ENDBRANCH  10  11
ENDBRANCH   1   9
TORSDOF 3
ENDMDL
MODEL 6
REMARK VINA RESULT:      -5.7      9.957     11.584
REMARK  3 active torsions:
REMARK  status: ('A' for Active; 'I' for Inactive)
REMARK    1  A    between atoms: C_2  and  C_5 
REMARK       I    between atoms: C_2  and  N_3 
REMARK    2  A    between atoms: N_3  and  O_4 
REMARK    3  A    between atoms: C_6  and  C_7 
ROOT
HETATM    1  C   UNK N   1      35.113  12.329  16.788  0.00  0.00    -0.014 A 
HETATM    2  C   UNK N   1      35.113  10.914  16.915  0.00  0.00     0.045 A 
HETATM    3 Cl   UNK N   1      34.992   9.818  15.543  0.00  0.00    -0.083 Cl
HETATM    4  C   UNK N   1      35.213  10.340  18.188  0.00  0.00     0.048 A 
HETATM    5  C   UNK N   1      35.213  13.116  17.940  0.00  0.00     0.015 A 
HETATM    6  C   UNK N   1      35.312  12.533  19.199  0.00  0.00     0.024 A 
HETATM    7  C   UNK N   1      35.312  11.146  19.324  0.00  0.00     0.035 A 
HETATM    8 Cl   UNK N   1      35.437  10.420  20.909  0.00  0.00    -0.084 Cl
ENDROOT
BRANCH   1   9
HETATM    9  C   UNK N   1      35.014  13.067  15.518  0.00  0.00     0.018 C 
HETATM   10  C   UNK N   1      35.967  13.195  14.596  0.00  0.00     0.077 C 
BRANCH  10  11
HETATM   11  C   UNK N   1      35.695  13.973  13.379  0.00  0.00     0.264 C 
HETATM   12  O   UNK N   1      34.685  13.744  12.730  0.00  0.00    -0.266 OA
HETATM   13  N   UNK N   1      36.560  14.936  12.982  0.00  0.00    -0.234 N 
HETATM   14  H   UNK N   1      37.369  15.108  13.516  0.00  0.00     0.197 HD
BRANCH  13  15
HETATM   15  O   UNK N   1      36.335  15.659  11.879  0.00  0.00    -0.287 OA
HETATM   16  H   UNK N   1      35.441  15.981  11.683  0.00  0.00     0.244 HD
ENDBRANCH  13  15
ENDBRANCH  10  11
ENDBRANCH   1   9
TORSDOF 3
ENDMDL
MODEL 7
REMARK VINA RESULT:      -5.5      9.491     10.742
REMARK  3 active torsions:
REMARK  status: ('A' for Active; 'I' for Inactive)
REMARK    1  A    between atoms: C_2  and  C_5 
REMARK       I    between atoms: C_2  and  N_3 
REMARK    2  A    between atoms: N_3  and  O_4 
REMARK    3  A    between atoms: C_6  and  C_7 
ROOT
HETATM    1  C   UNK N   1      35.251  12.901  15.140  0.00  0.00    -0.014 A 
HETATM    2  C   UNK N   1      34.622  12.008  14.233  0.00  0.00     0.045 A 
HETATM    3 Cl   UNK N   1      33.481  10.763  14.732  0.00  0.00    -0.083 Cl
HETATM    4  C   UNK N   1      34.908  12.105  12.866  0.00  0.00     0.048 A 
HETATM    5  C   UNK N   1      36.144  13.857  14.646  0.00  0.00     0.015 A 
HETATM    6  C   UNK N   1      36.420  13.943  13.285  0.00  0.00     0.024 A 
HETATM    7  C   UNK N   1      35.803  13.068  12.395  0.00  0.00     0.035 A 
HETATM    8 Cl   UNK N   1      36.154  13.181  10.686  0.00  0.00    -0.084 Cl
ENDROOT
BRANCH   1   9
HETATM    9  C   UNK N   1      35.045  12.914  16.598  0.00  0.00     0.018 C 
HETATM   10  C   UNK N   1      35.500  12.019  17.474  0.00  0.00     0.077 C 
BRANCH  10  11
HETATM   11  C   UNK N   1      35.199  12.188  18.902  0.00  0.00     0.264 C 
HETATM   12  O   UNK N   1      35.160  11.209  19.632  0.00  0.00    -0.266 OA
HETATM   13  N   UNK N   1      34.964  13.424  19.404  0.00  0.00    -0.234 N 
HETATM   14  H   UNK N   1      34.999  14.204  18.804  0.00  0.00     0.197 HD
BRANCH  13  15
HETATM   15  O   UNK N   1      34.687  13.606  20.701  0.00  0.00    -0.287 OA
HETATM   16  H   UNK N   1      34.435  12.849  21.254  0.00  0.00     0.244 HD
ENDBRANCH  13  15
ENDBRANCH  10  11
ENDBRANCH   1   9
TORSDOF 3
ENDMDL
MODEL 8
REMARK VINA RESULT:      -5.4      7.243      8.887
REMARK  3 active torsions:
REMARK  status: ('A' for Active; 'I' for Inactive)
REMARK    1  A    between atoms: C_2  and  C_5 
REMARK       I    between atoms: C_2  and  N_3 
REMARK    2  A    between atoms: N_3  and  O_4 
REMARK    3  A    between atoms: C_6  and  C_7 
ROOT
HETATM    1  C   UNK N   1      35.607  13.189  13.525  0.00  0.00    -0.014 A 
HETATM    2  C   UNK N   1      35.069  11.932  13.140  0.00  0.00     0.045 A 
HETATM    3 Cl   UNK N   1      34.759  11.481  11.467  0.00  0.00    -0.083 Cl
HETATM    4  C   UNK N   1      34.763  10.987  14.127  0.00  0.00     0.048 A 
HETATM    5  C   UNK N   1      35.818  13.454  14.881  0.00  0.00     0.015 A 
HETATM    6  C   UNK N   1      35.509  12.506  15.852  0.00  0.00     0.024 A 
HETATM    7  C   UNK N   1      34.982  11.273  15.476  0.00  0.00     0.035 A 
HETATM    8 Cl   UNK N   1      34.596  10.087  16.701  0.00  0.00    -0.084 Cl
ENDROOT
BRANCH   1   9
HETATM    9  C   UNK N   1      35.975  14.274  12.599  0.00  0.00     0.018 C 
HETATM   10  C   UNK N   1      35.139  15.049  11.909  0.00  0.00     0.077 C 
BRANCH  10  11
HETATM   11  C   UNK N   1      35.682  16.090  11.026  0.00  0.00     0.264 C 
HETATM   12  O   UNK N   1      36.878  16.108  10.778  0.00  0.00    -0.266 OA
HETATM   13  N   UNK N   1      34.859  17.022  10.490  0.00  0.00    -0.234 N 
HETATM   14  H   UNK N   1      33.897  16.994  10.699  0.00  0.00     0.197 HD
BRANCH  13  15
HETATM   15  O   UNK N   1      35.328  17.980   9.682  0.00  0.00    -0.287 OA
HETATM   16  H   UNK N   1      35.612  17.760   8.781  0.00  0.00     0.244 HD
ENDBRANCH  13  15
ENDBRANCH  10  11
ENDBRANCH   1   9
TORSDOF 3
ENDMDL
MODEL 9
REMARK VINA RESULT:      -5.4      9.249     10.986
REMARK  3 active torsions:
REMARK  status: ('A' for Active; 'I' for Inactive)
REMARK    1  A    between atoms: C_2  and  C_5 
REMARK       I    between atoms: C_2  and  N_3 
REMARK    2  A    between atoms: N_3  and  O_4 
REMARK    3  A    between atoms: C_6  and  C_7 
ROOT
HETATM    1  C   UNK N   1      36.100  12.718  15.878  0.00  0.00    -0.014 A 
HETATM    2  C   UNK N   1      36.327  11.337  16.117  0.00  0.00     0.045 A 
HETATM    3 Cl   UNK N   1      37.077  10.261  14.943  0.00  0.00    -0.083 Cl
HETATM    4  C   UNK N   1      35.942  10.781  17.343  0.00  0.00     0.048 A 
HETATM    5  C   UNK N   1      35.496  13.492  16.874  0.00  0.00     0.015 A 
HETATM    6  C   UNK N   1      35.118  12.928  18.089  0.00  0.00     0.024 A 
HETATM    7  C   UNK N   1      35.341  11.573  18.324  0.00  0.00     0.035 A 
HETATM    8 Cl   UNK N   1      34.864  10.870  19.851  0.00  0.00    -0.084 Cl
ENDROOT
BRANCH   1   9
HETATM    9  C   UNK N   1      36.451  13.435  14.640  0.00  0.00     0.018 C 
HETATM   10  C   UNK N   1      35.687  13.577  13.559  0.00  0.00     0.077 C 
BRANCH  10  11
HETATM   11  C   UNK N   1      36.200  14.328  12.405  0.00  0.00     0.264 C 
HETATM   12  O   UNK N   1      35.693  15.398  12.107  0.00  0.00    -0.266 OA
HETATM   13  N   UNK N   1      37.231  13.834  11.678  0.00  0.00    -0.234 N 
HETATM   14  H   UNK N   1      37.630  12.970  11.930  0.00  0.00     0.197 HD
BRANCH  13  15
HETATM   15  O   UNK N   1      37.717  14.498  10.623  0.00  0.00    -0.287 OA
HETATM   16  H   UNK N   1      38.652  14.756  10.600  0.00  0.00     0.244 HD
ENDBRANCH  13  15
ENDBRANCH  10  11
ENDBRANCH   1   9
TORSDOF 3
ENDMDL
