MODEL 1
REMARK VINA RESULT:      -6.0      0.000      0.000
REMARK  3 active torsions:
REMARK  status: ('A' for Active; 'I' for Inactive)
REMARK    1  A    between atoms: C_2  and  C_5 
REMARK       I    between atoms: C_2  and  N_3 
REMARK    2  A    between atoms: N_3  and  O_4 
REMARK    3  A    between atoms: C_6  and  C_7 
ROOT
HETATM    1  C   UNK N   1      33.337  18.000   7.714  0.00  0.00     0.077 C 
HETATM    2  C   UNK N   1      33.535  17.603   6.456  0.00  0.00     0.017 C 
ENDROOT
BRANCH   2   3
HETATM    3  C   UNK N   1      32.472  17.301   5.490  0.00  0.00    -0.036 A 
HETATM    4  C   UNK N   1      32.832  17.202   4.144  0.00  0.00     0.013 A 
HETATM    5  C   UNK N   1      31.884  16.848   3.184  0.00  0.00     0.024 A 
HETATM    6  C   UNK N   1      30.567  16.590   3.566  0.00  0.00     0.034 A 
HETATM    7  C   UNK N   1      30.194  16.697   4.911  0.00  0.00     0.024 A 
HETATM    8 Cl   UNK N   1      29.397  16.111   2.357  0.00  0.00    -0.084 Cl
HETATM    9  C   UNK N   1      31.146  17.051   5.878  0.00  0.00     0.013 A 
ENDBRANCH   2   3
BRANCH   1  10
HETATM   10  C   UNK N   1      34.498  18.174   8.609  0.00  0.00     0.264 C 
HETATM   11  O   UNK N   1      35.269  19.100   8.429  0.00  0.00    -0.266 OA
HETATM   12  N   UNK N   1      34.684  17.318   9.645  0.00  0.00    -0.234 N 
HETATM   13  H   UNK N   1      34.053  16.574   9.777  0.00  0.00     0.197 HD
BRANCH  12  14
HETATM   14  O   UNK N   1      35.713  17.470  10.491  0.00  0.00    -0.287 OA
HETATM   15  H   UNK N   1      35.551  17.752  11.405  0.00  0.00     0.244 HD
ENDBRANCH  12  14
ENDBRANCH   1  10
TORSDOF 3
ENDMDL
MODEL 2
REMARK VINA RESULT:      -5.7      2.068      2.925
REMARK  3 active torsions:
REMARK  status: ('A' for Active; 'I' for Inactive)
REMARK    1  A    between atoms: C_2  and  C_5 
REMARK       I    between atoms: C_2  and  N_3 
REMARK    2  A    between atoms: N_3  and  O_4 
REMARK    3  A    between atoms: C_6  and  C_7 
ROOT
HETATM    1  C   UNK N   1      33.199  17.990   7.769  0.00  0.00     0.077 C 
HETATM    2  C   UNK N   1      32.049  17.630   8.342  0.00  0.00     0.017 C 
ENDROOT
BRANCH   2   3
HETATM    3  C   UNK N   1      30.759  17.529   7.650  0.00  0.00    -0.036 A 
HETATM    4  C   UNK N   1      29.635  18.047   8.299  0.00  0.00     0.013 A 
HETATM    5  C   UNK N   1      28.392  18.048   7.667  0.00  0.00     0.024 A 
HETATM    6  C   UNK N   1      28.264  17.529   6.379  0.00  0.00     0.034 A 
HETATM    7  C   UNK N   1      29.381  16.996   5.724  0.00  0.00     0.024 A 
HETATM    8 Cl   UNK N   1      26.706  17.569   5.585  0.00  0.00    -0.084 Cl
HETATM    9  C   UNK N   1      30.632  16.997   6.357  0.00  0.00     0.013 A 
ENDBRANCH   2   3
BRANCH   1  10
HETATM   10  C   UNK N   1      34.405  18.147   8.605  0.00  0.00     0.264 C 
HETATM   11  O   UNK N   1      35.189  19.052   8.376  0.00  0.00    -0.266 OA
HETATM   12  N   UNK N   1      34.620  17.300   9.643  0.00  0.00    -0.234 N 
HETATM   13  H   UNK N   1      33.979  16.573   9.815  0.00  0.00     0.197 HD
BRANCH  12  14
HETATM   14  O   UNK N   1      35.691  17.437  10.437  0.00  0.00    -0.287 OA
HETATM   15  H   UNK N   1      35.599  17.855  11.307  0.00  0.00     0.244 HD
ENDBRANCH  12  14
ENDBRANCH   1  10
TORSDOF 3
ENDMDL
MODEL 3
REMARK VINA RESULT:      -5.7     10.835     13.029
REMARK  3 active torsions:
REMARK  status: ('A' for Active; 'I' for Inactive)
REMARK    1  A    between atoms: C_2  and  C_5 
REMARK       I    between atoms: C_2  and  N_3 
REMARK    2  A    between atoms: N_3  and  O_4 
REMARK    3  A    between atoms: C_6  and  C_7 
ROOT
HETATM    1  C   UNK N   1      36.103  13.230  15.035  0.00  0.00     0.077 C 
HETATM    2  C   UNK N   1      35.176  13.192  15.993  0.00  0.00     0.017 C 
ENDROOT
BRANCH   2   3
HETATM    3  C   UNK N   1      35.322  12.500  17.280  0.00  0.00    -0.036 A 
HETATM    4  C   UNK N   1      35.712  11.159  17.252  0.00  0.00     0.013 A 
HETATM    5  C   UNK N   1      35.939  10.465  18.440  0.00  0.00     0.024 A 
HETATM    6  C   UNK N   1      35.775  11.109  19.666  0.00  0.00     0.034 A 
HETATM    7  C   UNK N   1      35.374  12.450  19.706  0.00  0.00     0.024 A 
HETATM    8 Cl   UNK N   1      36.097  10.235  21.148  0.00  0.00    -0.084 Cl
HETATM    9  C   UNK N   1      35.149  13.150  18.512  0.00  0.00     0.013 A 
ENDBRANCH   2   3
BRANCH   1  10
HETATM   10  C   UNK N   1      35.786  13.879  13.748  0.00  0.00     0.264 C 
HETATM   11  O   UNK N   1      34.733  13.631  13.186  0.00  0.00    -0.266 OA
HETATM   12  N   UNK N   1      36.655  14.772  13.212  0.00  0.00    -0.234 N 
HETATM   13  H   UNK N   1      37.502  14.963  13.676  0.00  0.00     0.197 HD
BRANCH  12  14
HETATM   14  O   UNK N   1      36.379  15.400  12.059  0.00  0.00    -0.287 OA
HETATM   15  H   UNK N   1      35.873  14.945  11.369  0.00  0.00     0.244 HD
ENDBRANCH  12  14
ENDBRANCH   1  10
TORSDOF 3
ENDMDL
MODEL 4
REMARK VINA RESULT:      -5.7     12.032     13.248
REMARK  3 active torsions:
REMARK  status: ('A' for Active; 'I' for Inactive)
REMARK    1  A    between atoms: C_2  and  C_5 
REMARK       I    between atoms: C_2  and  N_3 
REMARK    2  A    between atoms: N_3  and  O_4 
REMARK    3  A    between atoms: C_6  and  C_7 
ROOT
HETATM    1  C   UNK N   1      29.768  23.413  -3.445  0.00  0.00     0.077 C 
HETATM    2  C   UNK N   1      28.671  24.001  -2.965  0.00  0.00     0.017 C 
ENDROOT
BRANCH   2   3
HETATM    3  C   UNK N   1      27.723  24.792  -3.759  0.00  0.00    -0.036 A 
HETATM    4  C   UNK N   1      26.573  24.148  -4.222  0.00  0.00     0.013 A 
HETATM    5  C   UNK N   1      25.598  24.860  -4.920  0.00  0.00     0.024 A 
HETATM    6  C   UNK N   1      25.768  26.224  -5.161  0.00  0.00     0.034 A 
HETATM    7  C   UNK N   1      26.922  26.876  -4.711  0.00  0.00     0.024 A 
HETATM    8 Cl   UNK N   1      24.520  27.112  -6.007  0.00  0.00    -0.084 Cl
HETATM    9  C   UNK N   1      27.902  26.163  -4.006  0.00  0.00     0.013 A 
ENDBRANCH   2   3
BRANCH   1  10
HETATM   10  C   UNK N   1      30.688  22.729  -2.515  0.00  0.00     0.264 C 
HETATM   11  O   UNK N   1      30.570  22.897  -1.313  0.00  0.00    -0.266 OA
HETATM   12  N   UNK N   1      31.640  21.894  -3.000  0.00  0.00    -0.234 N 
HETATM   13  H   UNK N   1      31.724  21.769  -3.974  0.00  0.00     0.197 HD
BRANCH  12  14
HETATM   14  O   UNK N   1      32.469  21.237  -2.177  0.00  0.00    -0.287 OA
HETATM   15  H   UNK N   1      33.407  21.480  -2.138  0.00  0.00     0.244 HD
ENDBRANCH  12  14
ENDBRANCH   1  10
TORSDOF 3
ENDMDL
MODEL 5
REMARK VINA RESULT:      -5.6     10.548     12.750
REMARK  3 active torsions:
REMARK  status: ('A' for Active; 'I' for Inactive)
REMARK    1  A    between atoms: C_2  and  C_5 
REMARK       I    between atoms: C_2  and  N_3 
REMARK    2  A    between atoms: N_3  and  O_4 
REMARK    3  A    between atoms: C_6  and  C_7 
ROOT
HETATM    1  C   UNK N   1      35.880  12.954  14.547  0.00  0.00     0.077 C 
HETATM    2  C   UNK N   1      35.420  13.370  15.729  0.00  0.00     0.017 C 
ENDROOT
BRANCH   2   3
HETATM    3  C   UNK N   1      35.451  12.586  16.969  0.00  0.00    -0.036 A 
HETATM    4  C   UNK N   1      35.219  13.264  18.168  0.00  0.00     0.013 A 
HETATM    5  C   UNK N   1      35.164  12.566  19.374  0.00  0.00     0.024 A 
HETATM    6  C   UNK N   1      35.342  11.182  19.389  0.00  0.00     0.034 A 
HETATM    7  C   UNK N   1      35.587  10.495  18.194  0.00  0.00     0.024 A 
HETATM    8 Cl   UNK N   1      35.235  10.316  20.905  0.00  0.00    -0.084 Cl
HETATM    9  C   UNK N   1      35.639  11.194  16.980  0.00  0.00     0.013 A 
ENDBRANCH   2   3
BRANCH   1  10
HETATM   10  C   UNK N   1      35.694  13.808  13.358  0.00  0.00     0.264 C 
HETATM   11  O   UNK N   1      34.654  13.751  12.726  0.00  0.00    -0.266 OA
HETATM   12  N   UNK N   1      36.672  14.674  12.992  0.00  0.00    -0.234 N 
HETATM   13  H   UNK N   1      37.508  14.709  13.512  0.00  0.00     0.197 HD
BRANCH  12  14
HETATM   14  O   UNK N   1      36.519  15.484  11.934  0.00  0.00    -0.287 OA
HETATM   15  H   UNK N   1      37.142  16.212  11.787  0.00  0.00     0.244 HD
ENDBRANCH  12  14
ENDBRANCH   1  10
TORSDOF 3
ENDMDL
MODEL 6
REMARK VINA RESULT:      -5.4      9.512     10.963
REMARK  3 active torsions:
REMARK  status: ('A' for Active; 'I' for Inactive)
REMARK    1  A    between atoms: C_2  and  C_5 
REMARK       I    between atoms: C_2  and  N_3 
REMARK    2  A    between atoms: N_3  and  O_4 
REMARK    3  A    between atoms: C_6  and  C_7 
ROOT
HETATM    1  C   UNK N   1      22.641  19.758   3.105  0.00  0.00     0.077 C 
HETATM    2  C   UNK N   1      23.839  20.307   2.902  0.00  0.00     0.017 C 
ENDROOT
BRANCH   2   3
HETATM    3  C   UNK N   1      25.104  19.791   3.438  0.00  0.00    -0.036 A 
HETATM    4  C   UNK N   1      25.170  18.428   3.740  0.00  0.00     0.013 A 
HETATM    5  C   UNK N   1      26.364  17.860   4.185  0.00  0.00     0.024 A 
HETATM    6  C   UNK N   1      27.502  18.653   4.331  0.00  0.00     0.034 A 
HETATM    7  C   UNK N   1      27.444  20.022   4.042  0.00  0.00     0.024 A 
HETATM    8 Cl   UNK N   1      29.001  17.920   4.856  0.00  0.00    -0.084 Cl
HETATM    9  C   UNK N   1      26.245  20.594   3.592  0.00  0.00     0.013 A 
ENDBRANCH   2   3
BRANCH   1  10
HETATM   10  C   UNK N   1      21.437  20.438   2.588  0.00  0.00     0.264 C 
HETATM   11  O   UNK N   1      20.666  20.979   3.362  0.00  0.00    -0.266 OA
HETATM   12  N   UNK N   1      21.210  20.484   1.251  0.00  0.00    -0.234 N 
HETATM   13  H   UNK N   1      21.841  20.041   0.638  0.00  0.00     0.197 HD
BRANCH  12  14
HETATM   14  O   UNK N   1      20.142  21.120   0.752  0.00  0.00    -0.287 OA
HETATM   15  H   UNK N   1      20.073  22.085   0.827  0.00  0.00     0.244 HD
ENDBRANCH  12  14
ENDBRANCH   1  10
TORSDOF 3
ENDMDL
MODEL 7
REMARK VINA RESULT:      -5.2      9.740     11.253
REMARK  3 active torsions:
REMARK  status: ('A' for Active; 'I' for Inactive)
REMARK    1  A    between atoms: C_2  and  C_5 
REMARK       I    between atoms: C_2  and  N_3 
REMARK    2  A    between atoms: N_3  and  O_4 
REMARK    3  A    between atoms: C_6  and  C_7 
ROOT
HETATM    1  C   UNK N   1      35.386  13.191  17.063  0.00  0.00     0.077 C 
HETATM    2  C   UNK N   1      36.200  13.766  16.176  0.00  0.00     0.017 C 
ENDROOT
BRANCH   2   3
HETATM    3  C   UNK N   1      36.545  13.208  14.863  0.00  0.00    -0.036 A 
HETATM    4  C   UNK N   1      36.251  13.979  13.736  0.00  0.00     0.013 A 
HETATM    5  C   UNK N   1      36.618  13.539  12.464  0.00  0.00     0.024 A 
HETATM    6  C   UNK N   1      37.283  12.323  12.312  0.00  0.00     0.034 A 
HETATM    7  C   UNK N   1      37.572  11.537  13.434  0.00  0.00     0.024 A 
HETATM    8 Cl   UNK N   1      37.768  11.801  10.714  0.00  0.00    -0.084 Cl
HETATM    9  C   UNK N   1      37.207  11.979  14.713  0.00  0.00     0.013 A 
ENDBRANCH   2   3
BRANCH   1  10
HETATM   10  C   UNK N   1      35.203  13.815  18.388  0.00  0.00     0.264 C 
HETATM   11  O   UNK N   1      35.273  15.027  18.502  0.00  0.00    -0.266 OA
HETATM   12  N   UNK N   1      34.929  13.039  19.466  0.00  0.00    -0.234 N 
HETATM   13  H   UNK N   1      34.877  12.062  19.358  0.00  0.00     0.197 HD
BRANCH  12  14
HETATM   14  O   UNK N   1      34.729  13.582  20.676  0.00  0.00    -0.287 OA
HETATM   15  H   UNK N   1      34.594  13.009  21.447  0.00  0.00     0.244 HD
ENDBRANCH  12  14
ENDBRANCH   1  10
TORSDOF 3
ENDMDL
MODEL 8
REMARK VINA RESULT:      -5.1     17.650     18.315
REMARK  3 active torsions:
REMARK  status: ('A' for Active; 'I' for Inactive)
REMARK    1  A    between atoms: C_2  and  C_5 
REMARK       I    between atoms: C_2  and  N_3 
REMARK    2  A    between atoms: N_3  and  O_4 
REMARK    3  A    between atoms: C_6  and  C_7 
ROOT
HETATM    1  C   UNK N   1      25.644  24.762  -7.457  0.00  0.00     0.077 C 
HETATM    2  C   UNK N   1      25.894  26.051  -7.692  0.00  0.00     0.017 C 
ENDROOT
BRANCH   2   3
HETATM    3  C   UNK N   1      26.116  27.068  -6.657  0.00  0.00    -0.036 A 
HETATM    4  C   UNK N   1      25.233  27.091  -5.574  0.00  0.00     0.013 A 
HETATM    5  C   UNK N   1      25.431  27.985  -4.522  0.00  0.00     0.024 A 
HETATM    6  C   UNK N   1      26.514  28.863  -4.546  0.00  0.00     0.034 A 
HETATM    7  C   UNK N   1      27.398  28.856  -5.632  0.00  0.00     0.024 A 
HETATM    8 Cl   UNK N   1      26.769  29.954  -3.202  0.00  0.00    -0.084 Cl
HETATM    9  C   UNK N   1      27.203  27.956  -6.689  0.00  0.00     0.013 A 
ENDBRANCH   2   3
BRANCH   1  10
HETATM   10  C   UNK N   1      25.342  23.866  -8.591  0.00  0.00     0.264 C 
HETATM   11  O   UNK N   1      24.514  22.981  -8.461  0.00  0.00    -0.266 OA
HETATM   12  N   UNK N   1      25.964  24.053  -9.782  0.00  0.00    -0.234 N 
HETATM   13  H   UNK N   1      26.631  24.772  -9.872  0.00  0.00     0.197 HD
BRANCH  12  14
HETATM   14  O   UNK N   1      25.686  23.274 -10.837  0.00  0.00    -0.287 OA
HETATM   15  H   UNK N   1      24.999  23.539 -11.468  0.00  0.00     0.244 HD
ENDBRANCH  12  14
ENDBRANCH   1  10
TORSDOF 3
ENDMDL
MODEL 9
REMARK VINA RESULT:      -5.1      7.593      9.724
REMARK  3 active torsions:
REMARK  status: ('A' for Active; 'I' for Inactive)
REMARK    1  A    between atoms: C_2  and  C_5 
REMARK       I    between atoms: C_2  and  N_3 
REMARK    2  A    between atoms: N_3  and  O_4 
REMARK    3  A    between atoms: C_6  and  C_7 
ROOT
HETATM    1  C   UNK N   1      34.850  14.789  11.417  0.00  0.00     0.077 C 
HETATM    2  C   UNK N   1      35.798  14.719  12.354  0.00  0.00     0.017 C 
ENDROOT
BRANCH   2   3
HETATM    3  C   UNK N   1      35.742  13.865  13.546  0.00  0.00    -0.036 A 
HETATM    4  C   UNK N   1      36.532  14.228  14.639  0.00  0.00     0.013 A 
HETATM    5  C   UNK N   1      36.472  13.501  15.827  0.00  0.00     0.024 A 
HETATM    6  C   UNK N   1      35.620  12.401  15.930  0.00  0.00     0.034 A 
HETATM    7  C   UNK N   1      34.832  12.021  14.836  0.00  0.00     0.024 A 
HETATM    8 Cl   UNK N   1      35.528  11.519  17.438  0.00  0.00    -0.084 Cl
HETATM    9  C   UNK N   1      34.889  12.754  13.642  0.00  0.00     0.013 A 
ENDBRANCH   2   3
BRANCH   1  10
HETATM   10  C   UNK N   1      34.990  15.767  10.320  0.00  0.00     0.264 C 
HETATM   11  O   UNK N   1      34.926  15.391   9.162  0.00  0.00    -0.266 OA
HETATM   12  N   UNK N   1      35.158  17.082  10.606  0.00  0.00    -0.234 N 
HETATM   13  H   UNK N   1      35.208  17.370  11.547  0.00  0.00     0.197 HD
BRANCH  12  14
HETATM   14  O   UNK N   1      35.257  17.995   9.630  0.00  0.00    -0.287 OA
HETATM   15  H   UNK N   1      35.395  18.929   9.852  0.00  0.00     0.244 HD
ENDBRANCH  12  14
ENDBRANCH   1  10
TORSDOF 3
ENDMDL
