MODEL 1
REMARK VINA RESULT:      -6.1      0.000      0.000
REMARK  6 active torsions:
REMARK  status: ('A' for Active; 'I' for Inactive)
REMARK    1  A    between atoms: C_1  and  C_9 
REMARK    2  A    between atoms: C_9  and  C_10 
REMARK    3  A    between atoms: C_11  and  C_12 
REMARK    4  A    between atoms: N_17  and  C_21 
REMARK    5  A    between atoms: C_21  and  O_22 
REMARK    6  A    between atoms: O_22  and  C_23 
ROOT
HETATM    1  C   UNK N   1      30.137  22.671  -5.197  0.00  0.00     0.035 A 
HETATM    2  C   UNK N   1      30.738  21.401  -5.453  0.00  0.00     0.037 A 
HETATM    3  C   UNK N   1      31.291  20.693  -4.358  0.00  0.00     0.257 A 
HETATM    4  O   UNK N   1      31.836  19.615  -4.508  0.00  0.00    -0.267 OA
HETATM    5  N   UNK N   1      30.050  23.130  -3.894  0.00  0.00    -0.280 N 
HETATM    6  C   UNK N   1      30.603  22.402  -2.858  0.00  0.00     0.331 A 
HETATM    7  O   UNK N   1      30.544  22.809  -1.711  0.00  0.00    -0.246 OA
HETATM    8  N   UNK N   1      31.222  21.215  -3.106  0.00  0.00    -0.275 N 
HETATM    9  H   UNK N   1      31.630  20.723  -2.357  0.00  0.00     0.173 HD
ENDROOT
BRANCH   1  10
HETATM   10  C   UNK N   1      29.649  23.455  -6.428  0.00  0.00     0.097 C 
BRANCH  10  11
HETATM   11  C   UNK N   1      28.264  23.539  -7.010  0.00  0.00    -0.051 A 
HETATM   12  C   UNK N   1      27.347  22.484  -6.917  0.00  0.00     0.014 A 
HETATM   13  C   UNK N   1      26.054  22.620  -7.429  0.00  0.00    -0.061 A 
HETATM   14  C   UNK N   1      25.641  23.840  -7.966  0.00  0.00     0.013 A 
HETATM   15  C   UNK N   1      25.124  21.462  -7.410  0.00  0.00     0.048 C 
HETATM   16  C   UNK N   1      26.528  24.919  -8.006  0.00  0.00    -0.061 A 
HETATM   17  C   UNK N   1      27.839  24.765  -7.539  0.00  0.00     0.014 A 
HETATM   18  C   UNK N   1      26.073  26.234  -8.526  0.00  0.00     0.048 C 
ENDBRANCH  10  11
ENDBRANCH   1  10
BRANCH   2  19
HETATM   19  C   UNK N   1      30.753  20.845  -6.890  0.00  0.00     0.018 C 
HETATM   20  C   UNK N   1      32.089  20.355  -7.430  0.00  0.00     0.015 C 
HETATM   21  C   UNK N   1      29.780  19.684  -7.034  0.00  0.00     0.015 C 
ENDBRANCH   2  19
BRANCH   5  22
HETATM   22  C   UNK N   1      29.345  24.363  -3.556  0.00  0.00     0.303 C 
BRANCH  22  23
HETATM   23  O   UNK N   1      28.004  24.113  -3.258  0.00  0.00    -0.372 OA
BRANCH  23  24
HETATM   24  C   UNK N   1      27.329  25.215  -3.784  0.00  0.00     0.165 C 
HETATM   25  C   UNK N   1      25.981  24.781  -4.321  0.00  0.00     0.033 C 
ENDBRANCH  23  24
ENDBRANCH  22  23
ENDBRANCH   5  22
TORSDOF 6
ENDMDL
MODEL 2
REMARK VINA RESULT:      -6.0     15.567     17.485
REMARK  6 active torsions:
REMARK  status: ('A' for Active; 'I' for Inactive)
REMARK    1  A    between atoms: C_1  and  C_9 
REMARK    2  A    between atoms: C_9  and  C_10 
REMARK    3  A    between atoms: C_11  and  C_12 
REMARK    4  A    between atoms: N_17  and  C_21 
REMARK    5  A    between atoms: C_21  and  O_22 
REMARK    6  A    between atoms: O_22  and  C_23 
ROOT
HETATM    1  C   UNK N   1      22.184  15.567   6.656  0.00  0.00     0.035 A 
HETATM    2  C   UNK N   1      23.436  15.695   5.979  0.00  0.00     0.037 A 
HETATM    3  C   UNK N   1      23.775  16.960   5.441  0.00  0.00     0.257 A 
HETATM    4  O   UNK N   1      24.817  17.135   4.835  0.00  0.00    -0.267 OA
HETATM    5  N   UNK N   1      21.387  16.686   6.825  0.00  0.00    -0.280 N 
HETATM    6  C   UNK N   1      21.762  17.900   6.283  0.00  0.00     0.331 A 
HETATM    7  O   UNK N   1      21.057  18.884   6.414  0.00  0.00    -0.246 OA
HETATM    8  N   UNK N   1      22.930  18.013   5.593  0.00  0.00    -0.275 N 
HETATM    9  H   UNK N   1      23.168  18.882   5.195  0.00  0.00     0.173 HD
ENDROOT
BRANCH   1  10
HETATM   10  C   UNK N   1      21.806  14.152   7.128  0.00  0.00     0.097 C 
BRANCH  10  11
HETATM   11  C   UNK N   1      22.093  13.484   8.446  0.00  0.00    -0.051 A 
HETATM   12  C   UNK N   1      23.397  13.298   8.923  0.00  0.00     0.014 A 
HETATM   13  C   UNK N   1      23.618  12.716  10.175  0.00  0.00    -0.061 A 
HETATM   14  C   UNK N   1      22.535  12.390  10.993  0.00  0.00     0.013 A 
HETATM   15  C   UNK N   1      25.005  12.437  10.626  0.00  0.00     0.048 C 
HETATM   16  C   UNK N   1      21.231  12.631  10.552  0.00  0.00    -0.061 A 
HETATM   17  C   UNK N   1      21.011  13.166   9.277  0.00  0.00     0.014 A 
HETATM   18  C   UNK N   1      20.081  12.336  11.445  0.00  0.00     0.048 C 
ENDBRANCH  10  11
ENDBRANCH   1  10
BRANCH   2  19
HETATM   19  C   UNK N   1      24.367  14.473   5.871  0.00  0.00     0.018 C 
HETATM   20  C   UNK N   1      24.670  13.953   4.472  0.00  0.00     0.015 C 
HETATM   21  C   UNK N   1      25.713  14.755   6.524  0.00  0.00     0.015 C 
ENDBRANCH   2  19
BRANCH   5  22
HETATM   22  C   UNK N   1      20.156  16.644   7.607  0.00  0.00     0.303 C 
BRANCH  22  23
HETATM   23  O   UNK N   1      20.375  17.067   8.920  0.00  0.00    -0.372 OA
BRANCH  23  24
HETATM   24  C   UNK N   1      19.303  17.920   9.186  0.00  0.00     0.165 C 
HETATM   25  C   UNK N   1      18.008  17.136   9.160  0.00  0.00     0.033 C 
ENDBRANCH  23  24
ENDBRANCH  22  23
ENDBRANCH   5  22
TORSDOF 6
ENDMDL
MODEL 3
REMARK VINA RESULT:      -5.9      1.875      4.580
REMARK  6 active torsions:
REMARK  status: ('A' for Active; 'I' for Inactive)
REMARK    1  A    between atoms: C_1  and  C_9 
REMARK    2  A    between atoms: C_9  and  C_10 
REMARK    3  A    between atoms: C_11  and  C_12 
REMARK    4  A    between atoms: N_17  and  C_21 
REMARK    5  A    between atoms: C_21  and  O_22 
REMARK    6  A    between atoms: O_22  and  C_23 
ROOT
HETATM    1  C   UNK N   1      29.403  23.471  -4.773  0.00  0.00     0.035 A 
HETATM    2  C   UNK N   1      28.079  23.882  -4.429  0.00  0.00     0.037 A 
HETATM    3  C   UNK N   1      27.708  23.854  -3.063  0.00  0.00     0.257 A 
HETATM    4  O   UNK N   1      26.589  24.172  -2.701  0.00  0.00    -0.267 OA
HETATM    5  N   UNK N   1      30.292  23.133  -3.768  0.00  0.00    -0.280 N 
HETATM    6  C   UNK N   1      29.883  23.124  -2.448  0.00  0.00     0.331 A 
HETATM    7  O   UNK N   1      30.656  22.811  -1.560  0.00  0.00    -0.246 OA
HETATM    8  N   UNK N   1      28.607  23.465  -2.122  0.00  0.00    -0.275 N 
HETATM    9  H   UNK N   1      28.328  23.430  -1.177  0.00  0.00     0.173 HD
ENDROOT
BRANCH   1  10
HETATM   10  C   UNK N   1      29.729  23.410  -6.276  0.00  0.00     0.097 C 
BRANCH  10  11
HETATM   11  C   UNK N   1      29.348  22.362  -7.287  0.00  0.00    -0.051 A 
HETATM   12  C   UNK N   1      29.478  20.991  -7.030  0.00  0.00     0.014 A 
HETATM   13  C   UNK N   1      29.069  20.049  -7.977  0.00  0.00    -0.061 A 
HETATM   14  C   UNK N   1      28.451  20.469  -9.156  0.00  0.00     0.013 A 
HETATM   15  C   UNK N   1      29.301  18.603  -7.732  0.00  0.00     0.048 C 
HETATM   16  C   UNK N   1      28.259  21.832  -9.394  0.00  0.00    -0.061 A 
HETATM   17  C   UNK N   1      28.717  22.776  -8.467  0.00  0.00     0.014 A 
HETATM   18  C   UNK N   1      27.551  22.278 -10.622  0.00  0.00     0.048 C 
ENDBRANCH  10  11
ENDBRANCH   1  10
BRANCH   2  19
HETATM   19  C   UNK N   1      27.117  24.347  -5.538  0.00  0.00     0.018 C 
HETATM   20  C   UNK N   1      25.887  23.488  -5.796  0.00  0.00     0.015 C 
HETATM   21  C   UNK N   1      26.606  25.754  -5.261  0.00  0.00     0.015 C 
ENDBRANCH   2  19
BRANCH   5  22
HETATM   22  C   UNK N   1      31.689  22.819  -4.047  0.00  0.00     0.303 C 
BRANCH  22  23
HETATM   23  O   UNK N   1      31.842  21.483  -4.422  0.00  0.00    -0.372 OA
BRANCH  23  24
HETATM   24  C   UNK N   1      33.205  21.236  -4.249  0.00  0.00     0.165 C 
HETATM   25  C   UNK N   1      33.492  20.958  -2.789  0.00  0.00     0.033 C 
ENDBRANCH  23  24
ENDBRANCH  22  23
ENDBRANCH   5  22
TORSDOF 6
ENDMDL
MODEL 4
REMARK VINA RESULT:      -5.7      1.969      3.916
REMARK  6 active torsions:
REMARK  status: ('A' for Active; 'I' for Inactive)
REMARK    1  A    between atoms: C_1  and  C_9 
REMARK    2  A    between atoms: C_9  and  C_10 
REMARK    3  A    between atoms: C_11  and  C_12 
REMARK    4  A    between atoms: N_17  and  C_21 
REMARK    5  A    between atoms: C_21  and  O_22 
REMARK    6  A    between atoms: O_22  and  C_23 
ROOT
HETATM    1  C   UNK N   1      29.071  23.396  -4.965  0.00  0.00     0.035 A 
HETATM    2  C   UNK N   1      30.037  22.930  -4.022  0.00  0.00     0.037 A 
HETATM    3  C   UNK N   1      29.744  23.073  -2.644  0.00  0.00     0.257 A 
HETATM    4  O   UNK N   1      30.531  22.715  -1.787  0.00  0.00    -0.267 OA
HETATM    5  N   UNK N   1      27.864  23.898  -4.509  0.00  0.00    -0.280 N 
HETATM    6  C   UNK N   1      27.624  24.016  -3.154  0.00  0.00     0.331 A 
HETATM    7  O   UNK N   1      26.571  24.473  -2.746  0.00  0.00    -0.246 OA
HETATM    8  N   UNK N   1      28.564  23.620  -2.253  0.00  0.00    -0.275 N 
HETATM    9  H   UNK N   1      28.383  23.733  -1.291  0.00  0.00     0.173 HD
ENDROOT
BRANCH   1  10
HETATM   10  C   UNK N   1      29.475  23.324  -6.448  0.00  0.00     0.097 C 
BRANCH  10  11
HETATM   11  C   UNK N   1      29.121  22.284  -7.478  0.00  0.00    -0.051 A 
HETATM   12  C   UNK N   1      28.787  22.619  -8.796  0.00  0.00     0.014 A 
HETATM   13  C   UNK N   1      28.511  21.620  -9.734  0.00  0.00    -0.061 A 
HETATM   14  C   UNK N   1      28.647  20.276  -9.382  0.00  0.00     0.013 A 
HETATM   15  C   UNK N   1      28.064  21.990 -11.101  0.00  0.00     0.048 C 
HETATM   16  C   UNK N   1      29.043  19.932  -8.086  0.00  0.00    -0.061 A 
HETATM   17  C   UNK N   1      29.268  20.934  -7.134  0.00  0.00     0.014 A 
HETATM   18  C   UNK N   1      29.243  18.505  -7.726  0.00  0.00     0.048 C 
ENDBRANCH  10  11
ENDBRANCH   1  10
BRANCH   2  19
HETATM   19  C   UNK N   1      31.341  22.285  -4.529  0.00  0.00     0.018 C 
HETATM   20  C   UNK N   1      32.647  22.968  -4.146  0.00  0.00     0.015 C 
HETATM   21  C   UNK N   1      31.455  20.844  -4.054  0.00  0.00     0.015 C 
ENDBRANCH   2  19
BRANCH   5  22
HETATM   22  C   UNK N   1      26.793  24.280  -5.423  0.00  0.00     0.303 C 
BRANCH  22  23
HETATM   23  O   UNK N   1      25.907  23.222  -5.636  0.00  0.00    -0.372 OA
BRANCH  23  24
HETATM   24  C   UNK N   1      25.658  23.258  -7.009  0.00  0.00     0.165 C 
HETATM   25  C   UNK N   1      25.409  21.856  -7.521  0.00  0.00     0.033 C 
ENDBRANCH  23  24
ENDBRANCH  22  23
ENDBRANCH   5  22
TORSDOF 6
ENDMDL
MODEL 5
REMARK VINA RESULT:      -5.7     25.088     28.271
REMARK  6 active torsions:
REMARK  status: ('A' for Active; 'I' for Inactive)
REMARK    1  A    between atoms: C_1  and  C_9 
REMARK    2  A    between atoms: C_9  and  C_10 
REMARK    3  A    between atoms: C_11  and  C_12 
REMARK    4  A    between atoms: N_17  and  C_21 
REMARK    5  A    between atoms: C_21  and  O_22 
REMARK    6  A    between atoms: O_22  and  C_23 
ROOT
HETATM    1  C   UNK N   1      35.173  10.676  17.806  0.00  0.00     0.035 A 
HETATM    2  C   UNK N   1      34.968  11.227  16.504  0.00  0.00     0.037 A 
HETATM    3  C   UNK N   1      34.813  12.630  16.392  0.00  0.00     0.257 A 
HETATM    4  O   UNK N   1      34.617  13.164  15.316  0.00  0.00    -0.267 OA
HETATM    5  N   UNK N   1      35.284  11.526  18.893  0.00  0.00    -0.280 N 
HETATM    6  C   UNK N   1      35.128  12.890  18.733  0.00  0.00     0.331 A 
HETATM    7  O   UNK N   1      35.207  13.641  19.688  0.00  0.00    -0.246 OA
HETATM    8  N   UNK N   1      34.882  13.413  17.500  0.00  0.00    -0.275 N 
HETATM    9  H   UNK N   1      34.750  14.385  17.411  0.00  0.00     0.173 HD
ENDROOT
BRANCH   1  10
HETATM   10  C   UNK N   1      35.225   9.141  17.896  0.00  0.00     0.097 C 
BRANCH  10  11
HETATM   11  C   UNK N   1      34.281   8.200  18.596  0.00  0.00    -0.051 A 
HETATM   12  C   UNK N   1      33.087   8.636  19.184  0.00  0.00     0.014 A 
HETATM   13  C   UNK N   1      32.215   7.722  19.782  0.00  0.00    -0.061 A 
HETATM   14  C   UNK N   1      32.491   6.354  19.724  0.00  0.00     0.013 A 
HETATM   15  C   UNK N   1      31.002   8.208  20.486  0.00  0.00     0.048 C 
HETATM   16  C   UNK N   1      33.648   5.904  19.084  0.00  0.00    -0.061 A 
HETATM   17  C   UNK N   1      34.546   6.825  18.531  0.00  0.00     0.014 A 
HETATM   18  C   UNK N   1      33.915   4.447  18.973  0.00  0.00     0.048 C 
ENDBRANCH  10  11
ENDBRANCH   1  10
BRANCH   2  19
HETATM   19  C   UNK N   1      34.938  10.291  15.281  0.00  0.00     0.018 C 
HETATM   20  C   UNK N   1      33.827  10.514  14.264  0.00  0.00     0.015 C 
HETATM   21  C   UNK N   1      36.246  10.362  14.508  0.00  0.00     0.015 C 
ENDBRANCH   2  19
BRANCH   5  22
HETATM   22  C   UNK N   1      35.609  11.033  20.227  0.00  0.00     0.303 C 
BRANCH  22  23
HETATM   23  O   UNK N   1      36.973  10.762  20.349  0.00  0.00    -0.372 OA
BRANCH  23  24
HETATM   24  C   UNK N   1      37.021   9.611  21.137  0.00  0.00     0.165 C 
HETATM   25  C   UNK N   1      35.684   9.397  21.812  0.00  0.00     0.033 C 
ENDBRANCH  23  24
ENDBRANCH  22  23
ENDBRANCH   5  22
TORSDOF 6
ENDMDL
MODEL 6
REMARK VINA RESULT:      -5.7      2.298      5.276
REMARK  6 active torsions:
REMARK  status: ('A' for Active; 'I' for Inactive)
REMARK    1  A    between atoms: C_1  and  C_9 
REMARK    2  A    between atoms: C_9  and  C_10 
REMARK    3  A    between atoms: C_11  and  C_12 
REMARK    4  A    between atoms: N_17  and  C_21 
REMARK    5  A    between atoms: C_21  and  O_22 
REMARK    6  A    between atoms: O_22  and  C_23 
ROOT
HETATM    1  C   UNK N   1      28.313  25.447  -4.444  0.00  0.00     0.035 A 
HETATM    2  C   UNK N   1      27.659  26.651  -4.848  0.00  0.00     0.037 A 
HETATM    3  C   UNK N   1      28.303  27.882  -4.571  0.00  0.00     0.257 A 
HETATM    4  O   UNK N   1      27.794  28.947  -4.870  0.00  0.00    -0.267 OA
HETATM    5  N   UNK N   1      29.569  25.516  -3.869  0.00  0.00    -0.280 N 
HETATM    6  C   UNK N   1      30.158  26.742  -3.621  0.00  0.00     0.331 A 
HETATM    7  O   UNK N   1      31.257  26.810  -3.100  0.00  0.00    -0.246 OA
HETATM    8  N   UNK N   1      29.515  27.893  -3.958  0.00  0.00    -0.275 N 
HETATM    9  H   UNK N   1      29.941  28.757  -3.752  0.00  0.00     0.173 HD
ENDROOT
BRANCH   1  10
HETATM   10  C   UNK N   1      27.530  24.140  -4.664  0.00  0.00     0.097 C 
BRANCH  10  11
HETATM   11  C   UNK N   1      27.508  23.239  -5.869  0.00  0.00    -0.051 A 
HETATM   12  C   UNK N   1      28.649  22.561  -6.318  0.00  0.00     0.014 A 
HETATM   13  C   UNK N   1      28.575  21.696  -7.414  0.00  0.00    -0.061 A 
HETATM   14  C   UNK N   1      27.343  21.440  -8.019  0.00  0.00     0.013 A 
HETATM   15  C   UNK N   1      29.810  21.059  -7.939  0.00  0.00     0.048 C 
HETATM   16  C   UNK N   1      26.189  22.063  -7.538  0.00  0.00    -0.061 A 
HETATM   17  C   UNK N   1      26.273  22.969  -6.473  0.00  0.00     0.014 A 
HETATM   18  C   UNK N   1      24.869  21.749  -8.144  0.00  0.00     0.048 C 
ENDBRANCH  10  11
ENDBRANCH   1  10
BRANCH   2  19
HETATM   19  C   UNK N   1      26.303  26.571  -5.573  0.00  0.00     0.018 C 
HETATM   20  C   UNK N   1      25.187  27.471  -5.058  0.00  0.00     0.015 C 
HETATM   21  C   UNK N   1      26.457  26.885  -7.054  0.00  0.00     0.015 C 
ENDBRANCH   2  19
BRANCH   5  22
HETATM   22  C   UNK N   1      30.336  24.318  -3.543  0.00  0.00     0.303 C 
BRANCH  22  23
HETATM   23  O   UNK N   1      30.144  23.940  -2.212  0.00  0.00    -0.372 OA
BRANCH  23  24
HETATM   24  C   UNK N   1      29.872  22.574  -2.283  0.00  0.00     0.165 C 
HETATM   25  C   UNK N   1      30.740  21.934  -3.346  0.00  0.00     0.033 C 
ENDBRANCH  23  24
ENDBRANCH  22  23
ENDBRANCH   5  22
TORSDOF 6
ENDMDL
MODEL 7
REMARK VINA RESULT:      -5.6      2.189      5.313
REMARK  6 active torsions:
REMARK  status: ('A' for Active; 'I' for Inactive)
REMARK    1  A    between atoms: C_1  and  C_9 
REMARK    2  A    between atoms: C_9  and  C_10 
REMARK    3  A    between atoms: C_11  and  C_12 
REMARK    4  A    between atoms: N_17  and  C_21 
REMARK    5  A    between atoms: C_21  and  O_22 
REMARK    6  A    between atoms: O_22  and  C_23 
ROOT
HETATM    1  C   UNK N   1      27.943  25.386  -4.394  0.00  0.00     0.035 A 
HETATM    2  C   UNK N   1      27.986  26.811  -4.306  0.00  0.00     0.037 A 
HETATM    3  C   UNK N   1      29.183  27.414  -3.850  0.00  0.00     0.257 A 
HETATM    4  O   UNK N   1      29.282  28.622  -3.731  0.00  0.00    -0.267 OA
HETATM    5  N   UNK N   1      29.082  24.654  -4.106  0.00  0.00    -0.280 N 
HETATM    6  C   UNK N   1      30.228  25.288  -3.667  0.00  0.00     0.331 A 
HETATM    7  O   UNK N   1      31.228  24.648  -3.395  0.00  0.00    -0.246 OA
HETATM    8  N   UNK N   1      30.255  26.642  -3.532  0.00  0.00    -0.275 N 
HETATM    9  H   UNK N   1      31.074  27.073  -3.195  0.00  0.00     0.173 HD
ENDROOT
BRANCH   1  10
HETATM   10  C   UNK N   1      26.590  24.768  -4.787  0.00  0.00     0.097 C 
BRANCH  10  11
HETATM   11  C   UNK N   1      26.105  24.334  -6.145  0.00  0.00    -0.051 A 
HETATM   12  C   UNK N   1      26.057  25.208  -7.238  0.00  0.00     0.014 A 
HETATM   13  C   UNK N   1      25.644  24.753  -8.494  0.00  0.00    -0.061 A 
HETATM   14  C   UNK N   1      25.355  23.401  -8.684  0.00  0.00     0.013 A 
HETATM   15  C   UNK N   1      25.506  25.711  -9.620  0.00  0.00     0.048 C 
HETATM   16  C   UNK N   1      25.461  22.508  -7.615  0.00  0.00    -0.061 A 
HETATM   17  C   UNK N   1      25.824  22.976  -6.346  0.00  0.00     0.014 A 
HETATM   18  C   UNK N   1      25.208  21.060  -7.830  0.00  0.00     0.048 C 
ENDBRANCH  10  11
ENDBRANCH   1  10
BRANCH   2  19
HETATM   19  C   UNK N   1      26.750  27.634  -4.716  0.00  0.00     0.018 C 
HETATM   20  C   UNK N   1      26.107  28.503  -3.643  0.00  0.00     0.015 C 
HETATM   21  C   UNK N   1      27.073  28.559  -5.879  0.00  0.00     0.015 C 
ENDBRANCH   2  19
BRANCH   5  22
HETATM   22  C   UNK N   1      29.136  23.208  -4.291  0.00  0.00     0.303 C 
BRANCH  22  23
HETATM   23  O   UNK N   1      29.402  22.876  -5.621  0.00  0.00    -0.372 OA
BRANCH  23  24
HETATM   24  C   UNK N   1      30.181  21.722  -5.534  0.00  0.00     0.165 C 
HETATM   25  C   UNK N   1      30.297  21.291  -4.088  0.00  0.00     0.033 C 
ENDBRANCH  23  24
ENDBRANCH  22  23
ENDBRANCH   5  22
TORSDOF 6
ENDMDL
MODEL 8
REMARK VINA RESULT:      -5.6      2.140      3.422
REMARK  6 active torsions:
REMARK  status: ('A' for Active; 'I' for Inactive)
REMARK    1  A    between atoms: C_1  and  C_9 
REMARK    2  A    between atoms: C_9  and  C_10 
REMARK    3  A    between atoms: C_11  and  C_12 
REMARK    4  A    between atoms: N_17  and  C_21 
REMARK    5  A    between atoms: C_21  and  O_22 
REMARK    6  A    between atoms: O_22  and  C_23 
ROOT
HETATM    1  C   UNK N   1      29.090  23.383  -4.942  0.00  0.00     0.035 A 
HETATM    2  C   UNK N   1      30.106  22.940  -4.041  0.00  0.00     0.037 A 
HETATM    3  C   UNK N   1      29.864  23.068  -2.651  0.00  0.00     0.257 A 
HETATM    4  O   UNK N   1      30.694  22.729  -1.828  0.00  0.00    -0.267 OA
HETATM    5  N   UNK N   1      27.890  23.850  -4.436  0.00  0.00    -0.280 N 
HETATM    6  C   UNK N   1      27.700  23.954  -3.071  0.00  0.00     0.331 A 
HETATM    7  O   UNK N   1      26.653  24.381  -2.619  0.00  0.00    -0.246 OA
HETATM    8  N   UNK N   1      28.686  23.581  -2.210  0.00  0.00    -0.275 N 
HETATM    9  H   UNK N   1      28.541  23.685  -1.242  0.00  0.00     0.173 HD
ENDROOT
BRANCH   1  10
HETATM   10  C   UNK N   1      29.437  23.328  -6.440  0.00  0.00     0.097 C 
BRANCH  10  11
HETATM   11  C   UNK N   1      29.149  22.241  -7.441  0.00  0.00    -0.051 A 
HETATM   12  C   UNK N   1      29.357  20.885  -7.155  0.00  0.00     0.014 A 
HETATM   13  C   UNK N   1      29.032  19.904  -8.095  0.00  0.00    -0.061 A 
HETATM   14  C   UNK N   1      28.421  20.264  -9.297  0.00  0.00     0.013 A 
HETATM   15  C   UNK N   1      29.346  18.479  -7.816  0.00  0.00     0.048 C 
HETATM   16  C   UNK N   1      28.152  21.609  -9.565  0.00  0.00    -0.061 A 
HETATM   17  C   UNK N   1      28.525  22.595  -8.644  0.00  0.00     0.014 A 
HETATM   18  C   UNK N   1      27.451  21.989 -10.819  0.00  0.00     0.048 C 
ENDBRANCH  10  11
ENDBRANCH   1  10
BRANCH   2  19
HETATM   19  C   UNK N   1      31.405  22.333  -4.602  0.00  0.00     0.018 C 
HETATM   20  C   UNK N   1      32.698  23.091  -4.333  0.00  0.00     0.015 C 
HETATM   21  C   UNK N   1      31.619  20.921  -4.075  0.00  0.00     0.015 C 
ENDBRANCH   2  19
BRANCH   5  22
HETATM   22  C   UNK N   1      26.773  24.206  -5.304  0.00  0.00     0.303 C 
BRANCH  22  23
HETATM   23  O   UNK N   1      26.824  25.554  -5.669  0.00  0.00    -0.372 OA
BRANCH  23  24
HETATM   24  C   UNK N   1      25.617  25.772  -6.333  0.00  0.00     0.165 C 
HETATM   25  C   UNK N   1      24.878  26.924  -5.687  0.00  0.00     0.033 C 
ENDBRANCH  23  24
ENDBRANCH  22  23
ENDBRANCH   5  22
TORSDOF 6
ENDMDL
MODEL 9
REMARK VINA RESULT:      -5.6     11.211     13.140
REMARK  6 active torsions:
REMARK  status: ('A' for Active; 'I' for Inactive)
REMARK    1  A    between atoms: C_1  and  C_9 
REMARK    2  A    between atoms: C_9  and  C_10 
REMARK    3  A    between atoms: C_11  and  C_12 
REMARK    4  A    between atoms: N_17  and  C_21 
REMARK    5  A    between atoms: C_21  and  O_22 
REMARK    6  A    between atoms: O_22  and  C_23 
ROOT
HETATM    1  C   UNK N   1      30.785  16.838   6.349  0.00  0.00     0.035 A 
HETATM    2  C   UNK N   1      31.361  16.539   5.077  0.00  0.00     0.037 A 
HETATM    3  C   UNK N   1      32.737  16.817   4.889  0.00  0.00     0.257 A 
HETATM    4  O   UNK N   1      33.288  16.605   3.824  0.00  0.00    -0.267 OA
HETATM    5  N   UNK N   1      31.593  17.315   7.366  0.00  0.00    -0.280 N 
HETATM    6  C   UNK N   1      32.932  17.568   7.134  0.00  0.00     0.331 A 
HETATM    7  O   UNK N   1      33.645  18.005   8.020  0.00  0.00    -0.246 OA
HETATM    8  N   UNK N   1      33.473  17.333   5.907  0.00  0.00    -0.275 N 
HETATM    9  H   UNK N   1      34.423  17.543   5.755  0.00  0.00     0.173 HD
ENDROOT
BRANCH   1  10
HETATM   10  C   UNK N   1      29.266  16.624   6.477  0.00  0.00     0.097 C 
BRANCH  10  11
HETATM   11  C   UNK N   1      28.142  17.530   6.050  0.00  0.00    -0.051 A 
HETATM   12  C   UNK N   1      28.171  18.914   6.269  0.00  0.00     0.014 A 
HETATM   13  C   UNK N   1      27.128  19.726   5.815  0.00  0.00    -0.061 A 
HETATM   14  C   UNK N   1      26.089  19.172   5.066  0.00  0.00     0.013 A 
HETATM   15  C   UNK N   1      27.124  21.175   6.138  0.00  0.00     0.048 C 
HETATM   16  C   UNK N   1      26.083  17.803   4.787  0.00  0.00    -0.061 A 
HETATM   17  C   UNK N   1      27.102  16.983   5.287  0.00  0.00     0.014 A 
HETATM   18  C   UNK N   1      25.008  17.223   3.943  0.00  0.00     0.048 C 
ENDBRANCH  10  11
ENDBRANCH   1  10
BRANCH   2  19
HETATM   19  C   UNK N   1      30.483  15.920   3.973  0.00  0.00     0.018 C 
HETATM   20  C   UNK N   1      30.339  16.707   2.678  0.00  0.00     0.015 C 
HETATM   21  C   UNK N   1      30.993  14.541   3.582  0.00  0.00     0.015 C 
ENDBRANCH   2  19
BRANCH   5  22
HETATM   22  C   UNK N   1      31.088  17.528   8.718  0.00  0.00     0.303 C 
BRANCH  22  23
HETATM   23  O   UNK N   1      30.619  18.832   8.884  0.00  0.00    -0.372 OA
BRANCH  23  24
HETATM   24  C   UNK N   1      29.507  18.690   9.714  0.00  0.00     0.165 C 
HETATM   25  C   UNK N   1      29.294  17.227  10.039  0.00  0.00     0.033 C 
ENDBRANCH  23  24
ENDBRANCH  22  23
ENDBRANCH   5  22
TORSDOF 6
ENDMDL
