REMARK  6 active torsions:
REMARK  status: ('A' for Active; 'I' for Inactive)
REMARK    1  A    between atoms: C_1  and  C_9 
REMARK    2  A    between atoms: C_9  and  C_10 
REMARK    3  A    between atoms: C_11  and  C_12 
REMARK    4  A    between atoms: N_17  and  C_21 
REMARK    5  A    between atoms: C_21  and  O_22 
REMARK    6  A    between atoms: O_22  and  C_23 
ROOT
HETATM    1  C   UNK N   1      -0.043   1.270   0.184  0.00  0.00     0.035 A 
HETATM    2  C   UNK N   1      -0.265   2.674   0.326  0.00  0.00     0.037 A 
HETATM    3  C   UNK N   1       0.836   3.544   0.135  0.00  0.00     0.257 A 
HETATM    4  O   UNK N   1       0.722   4.750   0.260  0.00  0.00    -0.267 OA
HETATM    5  N   UNK N   1       1.206   0.816  -0.202  0.00  0.00    -0.280 N 
HETATM    6  C   UNK N   1       2.249   1.705  -0.379  0.00  0.00     0.331 A 
HETATM    7  O   UNK N   1       3.355   1.310  -0.702  0.00  0.00    -0.246 OA
HETATM    8  N   UNK N   1       2.053   3.039  -0.194  0.00  0.00    -0.275 N 
HETATM    9  H   UNK N   1       2.815   3.654  -0.302  0.00  0.00     0.173 HD
ENDROOT
BRANCH   1  10
HETATM   10  C   UNK N   1      -1.237   0.355   0.508  0.00  0.00     0.097 C 
BRANCH  10  11
HETATM   11  C   UNK N   1      -1.391  -1.123   0.268  0.00  0.00    -0.051 A 
HETATM   12  C   UNK N   1      -0.491  -2.064   0.785  0.00  0.00     0.014 A 
HETATM   13  C   UNK N   1      -0.697  -3.431   0.579  0.00  0.00    -0.061 A 
HETATM   14  C   UNK N   1      -1.848  -3.872  -0.076  0.00  0.00     0.013 A 
HETATM   15  C   UNK N   1       0.315  -4.411   1.049  0.00  0.00     0.048 C 
HETATM   16  C   UNK N   1      -2.784  -2.944  -0.540  0.00  0.00    -0.061 A 
HETATM   17  C   UNK N   1      -2.550  -1.573  -0.378  0.00  0.00     0.014 A 
HETATM   18  C   UNK N   1      -4.036  -3.414  -1.187  0.00  0.00     0.048 C 
ENDBRANCH  10  11
ENDBRANCH   1  10
BRANCH   2  19
HETATM   19  C   UNK N   1      -1.677   3.188   0.664  0.00  0.00     0.018 C 
HETATM   20  C   UNK N   1      -1.847   4.692   0.829  0.00  0.00     0.015 C 
HETATM   21  C   UNK N   1      -2.681   2.757  -0.395  0.00  0.00     0.015 C 
ENDBRANCH   2  19
BRANCH   5  22
HETATM   22  C   UNK N   1       1.463  -0.594  -0.477  0.00  0.00     0.303 C 
BRANCH  22  23
HETATM   23  O   UNK N   1       2.429  -1.111   0.389  0.00  0.00    -0.372 OA
BRANCH  23  24
HETATM   24  C   UNK N   1       3.210  -1.932  -0.425  0.00  0.00     0.165 C 
HETATM   25  C   UNK N   1       4.550  -2.180   0.234  0.00  0.00     0.033 C 
ENDBRANCH  23  24
ENDBRANCH  22  23
ENDBRANCH   5  22
TORSDOF 6
