MODEL 1
REMARK VINA RESULT:      -4.0      0.000      0.000
REMARK  3 active torsions:
REMARK  status: ('A' for Active; 'I' for Inactive)
REMARK    1  A    between atoms: C_5  and  C_6 
REMARK    2  A    between atoms: C_5  and  O_8 
REMARK    3  A    between atoms: O_8  and  P_9 
ROOT
HETATM    1  C   UNK N   1      26.338  24.769  -4.084  0.00  0.00     0.040 C 
HETATM    2  C   UNK N   1      26.246  25.540  -5.400  0.00  0.00     0.132 C 
ENDROOT
BRANCH   2   3
HETATM    3  C   UNK N   1      25.877  27.024  -5.162  0.00  0.00    -0.025 C 
HETATM    4  C   UNK N   1      24.461  27.305  -5.640  0.00  0.00     0.017 C 
HETATM    5  C   UNK N   1      26.829  27.962  -5.887  0.00  0.00     0.017 C 
HETATM    6  C   UNK N   1      25.937  27.341  -3.677  0.00  0.00     0.017 C 
ENDBRANCH   2   3
BRANCH   2   7
HETATM    7  O   UNK N   1      25.275  24.930  -6.226  0.00  0.00    -0.330 OA
BRANCH   7   8
HETATM    8  P   UNK N   1      26.033  24.364  -7.703  0.00  0.00     0.185 P 
HETATM    9  C   UNK N   1      25.895  25.831  -8.833  0.00  0.00     0.114 C 
HETATM   10  O   UNK N   1      24.849  23.510  -8.227  0.00  0.00    -0.295 OA
HETATM   11  H   UNK N   1      27.149  23.445  -7.536  0.00  0.00     0.128 HD
ENDBRANCH   7   8
ENDBRANCH   2   7
TORSDOF 3
ENDMDL
MODEL 2
REMARK VINA RESULT:      -3.8     18.340     19.955
REMARK  3 active torsions:
REMARK  status: ('A' for Active; 'I' for Inactive)
REMARK    1  A    between atoms: C_5  and  C_6 
REMARK    2  A    between atoms: C_5  and  O_8 
REMARK    3  A    between atoms: O_8  and  P_9 
ROOT
HETATM    1  C   UNK N   1      35.038  15.407   7.675  0.00  0.00     0.040 C 
HETATM    2  C   UNK N   1      33.891  16.108   8.401  0.00  0.00     0.132 C 
ENDROOT
BRANCH   2   3
HETATM    3  C   UNK N   1      33.573  17.481   7.763  0.00  0.00    -0.025 C 
HETATM    4  C   UNK N   1      32.211  17.980   8.220  0.00  0.00     0.017 C 
HETATM    5  C   UNK N   1      33.576  17.409   6.244  0.00  0.00     0.017 C 
HETATM    6  C   UNK N   1      34.611  18.505   8.192  0.00  0.00     0.017 C 
ENDBRANCH   2   3
BRANCH   2   7
HETATM    7  O   UNK N   1      34.239  16.280   9.760  0.00  0.00    -0.330 OA
BRANCH   7   8
HETATM    8  P   UNK N   1      35.616  15.263  10.145  0.00  0.00     0.185 P 
HETATM    9  C   UNK N   1      35.087  14.416  11.711  0.00  0.00     0.114 C 
HETATM   10  O   UNK N   1      36.529  16.371  10.736  0.00  0.00    -0.295 OA
HETATM   11  H   UNK N   1      36.338  14.710   9.010  0.00  0.00     0.128 HD
ENDBRANCH   7   8
ENDBRANCH   2   7
TORSDOF 3
ENDMDL
MODEL 3
REMARK VINA RESULT:      -3.7     24.821     26.484
REMARK  3 active torsions:
REMARK  status: ('A' for Active; 'I' for Inactive)
REMARK    1  A    between atoms: C_5  and  C_6 
REMARK    2  A    between atoms: C_5  and  O_8 
REMARK    3  A    between atoms: O_8  and  P_9 
ROOT
HETATM    1  C   UNK N   1      36.690  13.851  15.246  0.00  0.00     0.040 C 
HETATM    2  C   UNK N   1      35.316  13.185  15.299  0.00  0.00     0.132 C 
ENDROOT
BRANCH   2   3
HETATM    3  C   UNK N   1      35.405  11.747  15.864  0.00  0.00    -0.025 C 
HETATM    4  C   UNK N   1      34.308  10.873  15.277  0.00  0.00     0.017 C 
HETATM    5  C   UNK N   1      35.279  11.731  17.380  0.00  0.00     0.017 C 
HETATM    6  C   UNK N   1      36.742  11.126  15.492  0.00  0.00     0.017 C 
ENDBRANCH   2   3
BRANCH   2   7
HETATM    7  O   UNK N   1      34.766  13.155  13.997  0.00  0.00    -0.330 OA
BRANCH   7   8
HETATM    8  P   UNK N   1      35.921  13.822  12.857  0.00  0.00     0.185 P 
HETATM    9  C   UNK N   1      34.834  14.634  11.588  0.00  0.00     0.114 C 
HETATM   10  O   UNK N   1      36.260  12.503  12.114  0.00  0.00    -0.295 OA
HETATM   11  H   UNK N   1      37.173  14.299  13.423  0.00  0.00     0.128 HD
ENDBRANCH   7   8
ENDBRANCH   2   7
TORSDOF 3
ENDMDL
MODEL 4
REMARK VINA RESULT:      -3.7     25.165     26.281
REMARK  3 active torsions:
REMARK  status: ('A' for Active; 'I' for Inactive)
REMARK    1  A    between atoms: C_5  and  C_6 
REMARK    2  A    between atoms: C_5  and  O_8 
REMARK    3  A    between atoms: O_8  and  P_9 
ROOT
HETATM    1  C   UNK N   1      33.808  11.016  14.579  0.00  0.00     0.040 C 
HETATM    2  C   UNK N   1      34.993  11.945  14.319  0.00  0.00     0.132 C 
ENDROOT
BRANCH   2   3
HETATM    3  C   UNK N   1      35.629  12.434  15.642  0.00  0.00    -0.025 C 
HETATM    4  C   UNK N   1      34.603  13.169  16.489  0.00  0.00     0.017 C 
HETATM    5  C   UNK N   1      36.805  13.365  15.390  0.00  0.00     0.017 C 
HETATM    6  C   UNK N   1      36.129  11.245  16.447  0.00  0.00     0.017 C 
ENDBRANCH   2   3
BRANCH   2   7
HETATM    7  O   UNK N   1      34.554  13.053  13.560  0.00  0.00    -0.330 OA
BRANCH   7   8
HETATM    8  P   UNK N   1      35.222  12.955  11.940  0.00  0.00     0.185 P 
HETATM    9  C   UNK N   1      36.463  11.581  12.081  0.00  0.00     0.114 C 
HETATM   10  O   UNK N   1      36.167  14.181  12.034  0.00  0.00    -0.295 OA
HETATM   11  H   UNK N   1      34.299  13.241  10.851  0.00  0.00     0.128 HD
ENDBRANCH   7   8
ENDBRANCH   2   7
TORSDOF 3
ENDMDL
MODEL 5
REMARK VINA RESULT:      -3.6     15.816     17.391
REMARK  3 active torsions:
REMARK  status: ('A' for Active; 'I' for Inactive)
REMARK    1  A    between atoms: C_5  and  C_6 
REMARK    2  A    between atoms: C_5  and  O_8 
REMARK    3  A    between atoms: O_8  and  P_9 
ROOT
HETATM    1  C   UNK N   1      33.133  17.556   5.071  0.00  0.00     0.040 C 
HETATM    2  C   UNK N   1      32.505  16.957   6.328  0.00  0.00     0.132 C 
ENDROOT
BRANCH   2   3
HETATM    3  C   UNK N   1      30.976  16.784   6.170  0.00  0.00    -0.025 C 
HETATM    4  C   UNK N   1      30.614  15.312   6.051  0.00  0.00     0.017 C 
HETATM    5  C   UNK N   1      30.453  17.512   4.941  0.00  0.00     0.017 C 
HETATM    6  C   UNK N   1      30.262  17.340   7.391  0.00  0.00     0.017 C 
ENDBRANCH   2   3
BRANCH   2   7
HETATM    7  O   UNK N   1      32.782  17.798   7.430  0.00  0.00    -0.330 OA
BRANCH   7   8
HETATM    8  P   UNK N   1      34.470  17.638   7.881  0.00  0.00     0.185 P 
HETATM    9  C   UNK N   1      34.382  16.843   9.557  0.00  0.00     0.114 C 
HETATM   10  O   UNK N   1      34.710  19.114   8.297  0.00  0.00    -0.295 OA
HETATM   11  H   UNK N   1      35.398  17.370   6.793  0.00  0.00     0.128 HD
ENDBRANCH   7   8
ENDBRANCH   2   7
TORSDOF 3
ENDMDL
MODEL 6
REMARK VINA RESULT:      -3.5     18.107     19.618
REMARK  3 active torsions:
REMARK  status: ('A' for Active; 'I' for Inactive)
REMARK    1  A    between atoms: C_5  and  C_6 
REMARK    2  A    between atoms: C_5  and  O_8 
REMARK    3  A    between atoms: O_8  and  P_9 
ROOT
HETATM    1  C   UNK N   1      33.272  14.929   7.201  0.00  0.00     0.040 C 
HETATM    2  C   UNK N   1      33.816  15.950   8.198  0.00  0.00     0.132 C 
ENDROOT
BRANCH   2   3
HETATM    3  C   UNK N   1      33.484  17.397   7.764  0.00  0.00    -0.025 C 
HETATM    4  C   UNK N   1      33.365  17.487   6.251  0.00  0.00     0.017 C 
HETATM    5  C   UNK N   1      34.548  18.381   8.226  0.00  0.00     0.017 C 
HETATM    6  C   UNK N   1      32.152  17.824   8.360  0.00  0.00     0.017 C 
ENDBRANCH   2   3
BRANCH   2   7
HETATM    7  O   UNK N   1      35.217  15.791   8.305  0.00  0.00    -0.330 OA
BRANCH   7   8
HETATM    8  P   UNK N   1      35.600  14.968   9.807  0.00  0.00     0.185 P 
HETATM    9  C   UNK N   1      34.009  15.069  10.758  0.00  0.00     0.114 C 
HETATM   10  O   UNK N   1      36.387  16.124  10.478  0.00  0.00    -0.295 OA
HETATM   11  H   UNK N   1      36.531  13.853   9.704  0.00  0.00     0.128 HD
ENDBRANCH   7   8
ENDBRANCH   2   7
TORSDOF 3
ENDMDL
MODEL 7
REMARK VINA RESULT:      -3.5     32.511     33.685
REMARK  3 active torsions:
REMARK  status: ('A' for Active; 'I' for Inactive)
REMARK    1  A    between atoms: C_5  and  C_6 
REMARK    2  A    between atoms: C_5  and  O_8 
REMARK    3  A    between atoms: O_8  and  P_9 
ROOT
HETATM    1  C   UNK N   1      49.280  28.451  19.822  0.00  0.00     0.040 C 
HETATM    2  C   UNK N   1      47.971  28.167  19.088  0.00  0.00     0.132 C 
ENDROOT
BRANCH   2   3
HETATM    3  C   UNK N   1      47.490  29.402  18.290  0.00  0.00    -0.025 C 
HETATM    4  C   UNK N   1      46.119  29.849  18.774  0.00  0.00     0.017 C 
HETATM    5  C   UNK N   1      47.407  29.112  16.800  0.00  0.00     0.017 C 
HETATM    6  C   UNK N   1      48.454  30.559  18.496  0.00  0.00     0.017 C 
ENDBRANCH   2   3
BRANCH   2   7
HETATM    7  O   UNK N   1      46.985  27.788  20.028  0.00  0.00    -0.330 OA
BRANCH   7   8
HETATM    8  P   UNK N   1      47.573  26.438  20.982  0.00  0.00     0.185 P 
HETATM    9  C   UNK N   1      47.471  25.012  19.796  0.00  0.00     0.114 C 
HETATM   10  O   UNK N   1      46.281  26.193  21.806  0.00  0.00    -0.295 OA
HETATM   11  H   UNK N   1      48.616  26.746  21.949  0.00  0.00     0.128 HD
ENDBRANCH   7   8
ENDBRANCH   2   7
TORSDOF 3
ENDMDL
MODEL 8
REMARK VINA RESULT:      -3.4     17.007     18.560
REMARK  3 active torsions:
REMARK  status: ('A' for Active; 'I' for Inactive)
REMARK    1  A    between atoms: C_5  and  C_6 
REMARK    2  A    between atoms: C_5  and  O_8 
REMARK    3  A    between atoms: O_8  and  P_9 
ROOT
HETATM    1  C   UNK N   1      33.044  17.398   5.630  0.00  0.00     0.040 C 
HETATM    2  C   UNK N   1      33.707  16.593   6.747  0.00  0.00     0.132 C 
ENDROOT
BRANCH   2   3
HETATM    3  C   UNK N   1      33.587  17.313   8.111  0.00  0.00    -0.025 C 
HETATM    4  C   UNK N   1      34.539  18.496   8.177  0.00  0.00     0.017 C 
HETATM    5  C   UNK N   1      33.897  16.377   9.269  0.00  0.00     0.017 C 
HETATM    6  C   UNK N   1      32.174  17.842   8.295  0.00  0.00     0.017 C 
ENDBRANCH   2   3
BRANCH   2   7
HETATM    7  O   UNK N   1      35.070  16.395   6.428  0.00  0.00    -0.330 OA
BRANCH   7   8
HETATM    8  P   UNK N   1      35.276  14.816   5.689  0.00  0.00     0.185 P 
HETATM    9  C   UNK N   1      35.032  13.652   7.115  0.00  0.00     0.114 C 
HETATM   10  O   UNK N   1      36.825  14.827   5.614  0.00  0.00    -0.295 OA
HETATM   11  H   UNK N   1      34.807  14.688   4.318  0.00  0.00     0.128 HD
ENDBRANCH   7   8
ENDBRANCH   2   7
TORSDOF 3
ENDMDL
MODEL 9
REMARK VINA RESULT:      -3.2     25.013     26.711
REMARK  3 active torsions:
REMARK  status: ('A' for Active; 'I' for Inactive)
REMARK    1  A    between atoms: C_5  and  C_6 
REMARK    2  A    between atoms: C_5  and  O_8 
REMARK    3  A    between atoms: O_8  and  P_9 
ROOT
HETATM    1  C   UNK N   1      37.396  11.221  14.509  0.00  0.00     0.040 C 
HETATM    2  C   UNK N   1      35.917  11.520  14.269  0.00  0.00     0.132 C 
ENDROOT
BRANCH   2   3
HETATM    3  C   UNK N   1      35.009  10.613  15.133  0.00  0.00    -0.025 C 
HETATM    4  C   UNK N   1      35.445   9.160  15.024  0.00  0.00     0.017 C 
HETATM    5  C   UNK N   1      33.551  10.714  14.712  0.00  0.00     0.017 C 
HETATM    6  C   UNK N   1      35.110  11.019  16.594  0.00  0.00     0.017 C 
ENDBRANCH   2   3
BRANCH   2   7
HETATM    7  O   UNK N   1      35.623  11.328  12.899  0.00  0.00    -0.330 OA
BRANCH   7   8
HETATM    8  P   UNK N   1      35.292  12.879  12.148  0.00  0.00     0.185 P 
HETATM    9  C   UNK N   1      36.984  13.493  11.692  0.00  0.00     0.114 C 
HETATM   10  O   UNK N   1      35.055  13.690  13.450  0.00  0.00    -0.295 OA
HETATM   11  H   UNK N   1      34.054  12.968  11.388  0.00  0.00     0.128 HD
ENDBRANCH   7   8
ENDBRANCH   2   7
TORSDOF 3
ENDMDL
