MODEL 1
REMARK VINA RESULT:      -6.0      0.000      0.000
REMARK  3 active torsions:
REMARK  status: ('A' for Active; 'I' for Inactive)
REMARK    1  A    between atoms: C_4  and  N_3 
REMARK    2  A    between atoms: C_4  and  C_5 
REMARK    3  A    between atoms: C_5  and  O_6 
ROOT
HETATM    1  O   UNK N   1      34.953  14.917   7.419  0.00  0.00    -0.272 OA
HETATM    2  C   UNK N   1      35.376  15.158   8.539  0.00  0.00     0.232 A 
HETATM    3  N   UNK N   1      34.950  16.187   9.309  0.00  0.00    -0.273 N 
HETATM    4  C   UNK N   1      36.438  14.336   9.214  0.00  0.00     0.096 A 
HETATM    5  C   UNK N   1      36.615  15.048  10.568  0.00  0.00     0.096 A 
HETATM    6  C   UNK N   1      35.596  16.150  10.493  0.00  0.00     0.232 A 
HETATM    7  O   UNK N   1      35.382  16.942  11.400  0.00  0.00    -0.272 OA
HETATM    8  C   UNK N   1      36.077  12.900   9.634  0.00  0.00    -0.000 C 
HETATM    9  C   UNK N   1      34.693  12.844  10.282  0.00  0.00     0.006 C 
HETATM   10  C   UNK N   1      34.906  13.527  11.626  0.00  0.00     0.006 C 
HETATM   11  C   UNK N   1      36.974  12.734  10.847  0.00  0.00     0.011 C 
HETATM   12  C   UNK N   1      36.381  13.919  11.586  0.00  0.00    -0.000 C 
ENDROOT
BRANCH   3  13
HETATM   13  C   UNK N   1      33.943  17.209   8.970  0.00  0.00     0.189 C 
HETATM   14  C   UNK N   1      32.657  16.634   8.384  0.00  0.00     0.044 C 
BRANCH  13  15
HETATM   15  C   UNK N   1      34.485  18.218   7.979  0.00  0.00     0.163 C 
HETATM   16  O   UNK N   1      35.037  19.240   8.360  0.00  0.00    -0.648 OA
BRANCH  15  17
HETATM   17  O   UNK N   1      34.362  17.990   6.657  0.00  0.00    -0.775 OA
HETATM   18  H   UNK N   1      33.909  17.251   6.301  0.00  0.00     0.167 HD
ENDBRANCH  15  17
ENDBRANCH  13  15
ENDBRANCH   3  13
TORSDOF 3
ENDMDL
MODEL 2
REMARK VINA RESULT:      -5.9      2.296      5.421
REMARK  3 active torsions:
REMARK  status: ('A' for Active; 'I' for Inactive)
REMARK    1  A    between atoms: C_4  and  N_3 
REMARK    2  A    between atoms: C_4  and  C_5 
REMARK    3  A    between atoms: C_5  and  O_6 
ROOT
HETATM    1  O   UNK N   1      32.056  15.375   9.388  0.00  0.00    -0.272 OA
HETATM    2  C   UNK N   1      32.358  16.092   8.447  0.00  0.00     0.232 A 
HETATM    3  N   UNK N   1      33.631  16.377   8.085  0.00  0.00    -0.273 N 
HETATM    4  C   UNK N   1      31.345  16.762   7.561  0.00  0.00     0.096 A 
HETATM    5  C   UNK N   1      32.222  17.540   6.562  0.00  0.00     0.096 A 
HETATM    6  C   UNK N   1      33.614  17.169   6.992  0.00  0.00     0.232 A 
HETATM    7  O   UNK N   1      34.627  17.553   6.425  0.00  0.00    -0.272 OA
HETATM    8  C   UNK N   1      30.496  15.868   6.637  0.00  0.00    -0.000 C 
HETATM    9  C   UNK N   1      31.354  14.797   5.963  0.00  0.00     0.006 C 
HETATM   10  C   UNK N   1      32.186  15.591   4.964  0.00  0.00     0.006 C 
HETATM   11  C   UNK N   1      30.255  16.820   5.481  0.00  0.00     0.011 C 
HETATM   12  C   UNK N   1      31.730  17.029   5.198  0.00  0.00    -0.000 C 
ENDROOT
BRANCH   3  13
HETATM   13  C   UNK N   1      34.875  15.922   8.733  0.00  0.00     0.189 C 
HETATM   14  C   UNK N   1      34.997  14.404   8.831  0.00  0.00     0.044 C 
BRANCH  13  15
HETATM   15  C   UNK N   1      35.011  16.483  10.132  0.00  0.00     0.163 C 
HETATM   16  O   UNK N   1      35.600  17.536  10.334  0.00  0.00    -0.648 OA
BRANCH  15  17
HETATM   17  O   UNK N   1      34.477  15.818  11.175  0.00  0.00    -0.775 OA
HETATM   18  H   UNK N   1      34.983  15.300  11.771  0.00  0.00     0.167 HD
ENDBRANCH  15  17
ENDBRANCH  13  15
ENDBRANCH   3  13
TORSDOF 3
ENDMDL
MODEL 3
REMARK VINA RESULT:      -5.8      4.304      6.289
REMARK  3 active torsions:
REMARK  status: ('A' for Active; 'I' for Inactive)
REMARK    1  A    between atoms: C_4  and  N_3 
REMARK    2  A    between atoms: C_4  and  C_5 
REMARK    3  A    between atoms: C_5  and  O_6 
ROOT
HETATM    1  O   UNK N   1      36.249  14.038  14.778  0.00  0.00    -0.272 OA
HETATM    2  C   UNK N   1      35.530  13.066  14.604  0.00  0.00     0.232 A 
HETATM    3  N   UNK N   1      35.227  12.549  13.391  0.00  0.00    -0.273 N 
HETATM    4  C   UNK N   1      34.879  12.310  15.729  0.00  0.00     0.096 A 
HETATM    5  C   UNK N   1      34.091  11.210  14.994  0.00  0.00     0.096 A 
HETATM    6  C   UNK N   1      34.440  11.466  13.554  0.00  0.00     0.232 A 
HETATM    7  O   UNK N   1      34.043  10.778  12.625  0.00  0.00    -0.272 OA
HETATM    8  C   UNK N   1      35.788  11.500  16.671  0.00  0.00    -0.000 C 
HETATM    9  C   UNK N   1      36.849  10.726  15.887  0.00  0.00     0.006 C 
HETATM   10  C   UNK N   1      36.047   9.631  15.197  0.00  0.00     0.006 C 
HETATM   11  C   UNK N   1      34.845  10.380  17.068  0.00  0.00     0.011 C 
HETATM   12  C   UNK N   1      34.614   9.917  15.642  0.00  0.00    -0.000 C 
ENDROOT
BRANCH   3  13
HETATM   13  C   UNK N   1      35.662  13.040  12.070  0.00  0.00     0.189 C 
HETATM   14  C   UNK N   1      37.158  12.878  11.815  0.00  0.00     0.044 C 
BRANCH  13  15
HETATM   15  C   UNK N   1      35.321  14.503  11.879  0.00  0.00     0.163 C 
HETATM   16  O   UNK N   1      34.193  14.850  11.562  0.00  0.00    -0.648 OA
BRANCH  15  17
HETATM   17  O   UNK N   1      36.271  15.440  12.061  0.00  0.00    -0.775 OA
HETATM   18  H   UNK N   1      37.133  15.380  11.697  0.00  0.00     0.167 HD
ENDBRANCH  15  17
ENDBRANCH  13  15
ENDBRANCH   3  13
TORSDOF 3
ENDMDL
MODEL 4
REMARK VINA RESULT:      -5.7      1.941      5.013
REMARK  3 active torsions:
REMARK  status: ('A' for Active; 'I' for Inactive)
REMARK    1  A    between atoms: C_4  and  N_3 
REMARK    2  A    between atoms: C_4  and  C_5 
REMARK    3  A    between atoms: C_5  and  O_6 
ROOT
HETATM    1  O   UNK N   1      34.660  17.522   9.598  0.00  0.00    -0.272 OA
HETATM    2  C   UNK N   1      34.634  16.783   8.627  0.00  0.00     0.232 A 
HETATM    3  N   UNK N   1      34.912  15.459   8.669  0.00  0.00    -0.273 N 
HETATM    4  C   UNK N   1      34.287  17.252   7.241  0.00  0.00     0.096 A 
HETATM    5  C   UNK N   1      34.407  15.966   6.402  0.00  0.00     0.096 A 
HETATM    6  C   UNK N   1      34.761  14.934   7.436  0.00  0.00     0.232 A 
HETATM    7  O   UNK N   1      34.914  13.747   7.187  0.00  0.00    -0.272 OA
HETATM    8  C   UNK N   1      32.836  17.694   6.973  0.00  0.00    -0.000 C 
HETATM    9  C   UNK N   1      31.837  16.726   7.609  0.00  0.00     0.006 C 
HETATM   10  C   UNK N   1      31.957  15.479   6.742  0.00  0.00     0.006 C 
HETATM   11  C   UNK N   1      32.704  17.330   5.507  0.00  0.00     0.011 C 
HETATM   12  C   UNK N   1      33.029  15.864   5.726  0.00  0.00    -0.000 C 
ENDROOT
BRANCH   3  13
HETATM   13  C   UNK N   1      35.312  14.660   9.843  0.00  0.00     0.189 C 
HETATM   14  C   UNK N   1      34.409  14.857  11.057  0.00  0.00     0.044 C 
BRANCH  13  15
HETATM   15  C   UNK N   1      36.730  14.974  10.272  0.00  0.00     0.163 C 
HETATM   16  O   UNK N   1      37.657  14.236   9.971  0.00  0.00    -0.648 OA
BRANCH  15  17
HETATM   17  O   UNK N   1      36.980  16.082  10.996  0.00  0.00    -0.775 OA
HETATM   18  H   UNK N   1      36.959  16.102  11.933  0.00  0.00     0.167 HD
ENDBRANCH  15  17
ENDBRANCH  13  15
ENDBRANCH   3  13
TORSDOF 3
ENDMDL
MODEL 5
REMARK VINA RESULT:      -5.6     19.481     20.906
REMARK  3 active torsions:
REMARK  status: ('A' for Active; 'I' for Inactive)
REMARK    1  A    between atoms: C_4  and  N_3 
REMARK    2  A    between atoms: C_4  and  C_5 
REMARK    3  A    between atoms: C_5  and  O_6 
ROOT
HETATM    1  O   UNK N   1      25.969  25.166  -8.331  0.00  0.00    -0.272 OA
HETATM    2  C   UNK N   1      25.855  25.285  -7.121  0.00  0.00     0.232 A 
HETATM    3  N   UNK N   1      25.950  24.261  -6.242  0.00  0.00    -0.273 N 
HETATM    4  C   UNK N   1      25.588  26.601  -6.443  0.00  0.00     0.096 A 
HETATM    5  C   UNK N   1      25.523  26.213  -4.954  0.00  0.00     0.096 A 
HETATM    6  C   UNK N   1      25.807  24.738  -4.988  0.00  0.00     0.232 A 
HETATM    7  O   UNK N   1      25.885  24.037  -3.989  0.00  0.00    -0.272 OA
HETATM    8  C   UNK N   1      26.704  27.661  -6.467  0.00  0.00    -0.000 C 
HETATM    9  C   UNK N   1      28.068  27.035  -6.173  0.00  0.00     0.006 C 
HETATM   10  C   UNK N   1      27.985  26.691  -4.691  0.00  0.00     0.006 C 
HETATM   11  C   UNK N   1      26.426  28.382  -5.161  0.00  0.00     0.011 C 
HETATM   12  C   UNK N   1      26.574  27.134  -4.311  0.00  0.00    -0.000 C 
ENDROOT
BRANCH   3  13
HETATM   13  C   UNK N   1      26.180  22.835  -6.542  0.00  0.00     0.189 C 
HETATM   14  C   UNK N   1      27.462  22.571  -7.327  0.00  0.00     0.044 C 
BRANCH  13  15
HETATM   15  C   UNK N   1      25.032  22.240  -7.328  0.00  0.00     0.163 C 
HETATM   16  O   UNK N   1      24.142  21.616  -6.768  0.00  0.00    -0.648 OA
BRANCH  15  17
HETATM   17  O   UNK N   1      24.984  22.397  -8.665  0.00  0.00    -0.775 OA
HETATM   18  H   UNK N   1      24.939  23.234  -9.085  0.00  0.00     0.167 HD
ENDBRANCH  15  17
ENDBRANCH  13  15
ENDBRANCH   3  13
TORSDOF 3
ENDMDL
MODEL 6
REMARK VINA RESULT:      -5.5     16.274     19.373
REMARK  3 active torsions:
REMARK  status: ('A' for Active; 'I' for Inactive)
REMARK    1  A    between atoms: C_4  and  N_3 
REMARK    2  A    between atoms: C_4  and  C_5 
REMARK    3  A    between atoms: C_5  and  O_6 
ROOT
HETATM    1  O   UNK N   1      26.322  24.814  -3.330  0.00  0.00    -0.272 OA
HETATM    2  C   UNK N   1      27.055  25.774  -3.506  0.00  0.00     0.232 A 
HETATM    3  N   UNK N   1      28.321  25.689  -3.978  0.00  0.00    -0.273 N 
HETATM    4  C   UNK N   1      26.644  27.191  -3.217  0.00  0.00     0.096 A 
HETATM    5  C   UNK N   1      27.902  27.997  -3.589  0.00  0.00     0.096 A 
HETATM    6  C   UNK N   1      28.840  26.931  -4.082  0.00  0.00     0.232 A 
HETATM    7  O   UNK N   1      29.960  27.157  -4.516  0.00  0.00    -0.272 OA
HETATM    8  C   UNK N   1      25.562  27.823  -4.112  0.00  0.00    -0.000 C 
HETATM    9  C   UNK N   1      25.805  27.497  -5.586  0.00  0.00     0.006 C 
HETATM   10  C   UNK N   1      27.033  28.330  -5.932  0.00  0.00     0.006 C 
HETATM   11  C   UNK N   1      25.981  29.280  -4.061  0.00  0.00     0.011 C 
HETATM   12  C   UNK N   1      27.370  29.017  -4.610  0.00  0.00    -0.000 C 
ENDROOT
BRANCH   3  13
HETATM   13  C   UNK N   1      29.066  24.470  -4.345  0.00  0.00     0.189 C 
HETATM   14  C   UNK N   1      28.255  23.482  -5.179  0.00  0.00     0.044 C 
BRANCH  13  15
HETATM   15  C   UNK N   1      29.565  23.733  -3.120  0.00  0.00     0.163 C 
HETATM   16  O   UNK N   1      28.917  22.822  -2.626  0.00  0.00    -0.648 OA
BRANCH  15  17
HETATM   17  O   UNK N   1      30.741  24.082  -2.562  0.00  0.00    -0.775 OA
HETATM   18  H   UNK N   1      31.037  23.756  -1.735  0.00  0.00     0.167 HD
ENDBRANCH  15  17
ENDBRANCH  13  15
ENDBRANCH   3  13
TORSDOF 3
ENDMDL
MODEL 7
REMARK VINA RESULT:      -5.5     15.080     17.036
REMARK  3 active torsions:
REMARK  status: ('A' for Active; 'I' for Inactive)
REMARK    1  A    between atoms: C_4  and  N_3 
REMARK    2  A    between atoms: C_4  and  C_5 
REMARK    3  A    between atoms: C_5  and  O_6 
ROOT
HETATM    1  O   UNK N   1      29.123  25.180  -5.487  0.00  0.00    -0.272 OA
HETATM    2  C   UNK N   1      29.286  24.559  -4.448  0.00  0.00     0.232 A 
HETATM    3  N   UNK N   1      28.282  24.173  -3.625  0.00  0.00    -0.273 N 
HETATM    4  C   UNK N   1      30.638  24.140  -3.939  0.00  0.00     0.096 A 
HETATM    5  C   UNK N   1      30.301  23.416  -2.623  0.00  0.00     0.096 A 
HETATM    6  C   UNK N   1      28.800  23.484  -2.588  0.00  0.00     0.232 A 
HETATM    7  O   UNK N   1      28.117  22.983  -1.706  0.00  0.00    -0.272 OA
HETATM    8  C   UNK N   1      31.401  23.063  -4.731  0.00  0.00    -0.000 C 
HETATM    9  C   UNK N   1      30.473  21.921  -5.147  0.00  0.00     0.006 C 
HETATM   10  C   UNK N   1      30.183  21.207  -3.833  0.00  0.00     0.006 C 
HETATM   11  C   UNK N   1      32.188  22.406  -3.612  0.00  0.00     0.011 C 
HETATM   12  C   UNK N   1      30.955  22.037  -2.809  0.00  0.00    -0.000 C 
ENDROOT
BRANCH   3  13
HETATM   13  C   UNK N   1      26.839  24.426  -3.787  0.00  0.00     0.189 C 
HETATM   14  C   UNK N   1      26.254  23.854  -5.075  0.00  0.00     0.044 C 
BRANCH  13  15
HETATM   15  C   UNK N   1      26.527  25.908  -3.762  0.00  0.00     0.163 C 
HETATM   16  O   UNK N   1      26.244  26.474  -2.716  0.00  0.00    -0.648 OA
BRANCH  15  17
HETATM   17  O   UNK N   1      26.561  26.618  -4.906  0.00  0.00    -0.775 OA
HETATM   18  H   UNK N   1      25.920  27.262  -5.133  0.00  0.00     0.167 HD
ENDBRANCH  15  17
ENDBRANCH  13  15
ENDBRANCH   3  13
TORSDOF 3
ENDMDL
MODEL 8
REMARK VINA RESULT:      -5.5     18.182     20.476
REMARK  3 active torsions:
REMARK  status: ('A' for Active; 'I' for Inactive)
REMARK    1  A    between atoms: C_4  and  N_3 
REMARK    2  A    between atoms: C_4  and  C_5 
REMARK    3  A    between atoms: C_5  and  O_6 
ROOT
HETATM    1  O   UNK N   1      27.739  26.782  -6.357  0.00  0.00    -0.272 OA
HETATM    2  C   UNK N   1      27.165  27.277  -5.400  0.00  0.00     0.232 A 
HETATM    3  N   UNK N   1      26.806  26.592  -4.288  0.00  0.00    -0.273 N 
HETATM    4  C   UNK N   1      26.775  28.728  -5.331  0.00  0.00     0.096 A 
HETATM    5  C   UNK N   1      26.088  28.835  -3.957  0.00  0.00     0.096 A 
HETATM    6  C   UNK N   1      26.222  27.439  -3.416  0.00  0.00     0.232 A 
HETATM    7  O   UNK N   1      25.830  27.098  -2.309  0.00  0.00    -0.272 OA
HETATM    8  C   UNK N   1      27.903  29.771  -5.224  0.00  0.00    -0.000 C 
HETATM    9  C   UNK N   1      28.972  29.329  -4.224  0.00  0.00     0.006 C 
HETATM   10  C   UNK N   1      28.275  29.474  -2.878  0.00  0.00     0.006 C 
HETATM   11  C   UNK N   1      27.198  30.859  -4.437  0.00  0.00     0.011 C 
HETATM   12  C   UNK N   1      26.877  29.956  -3.261  0.00  0.00    -0.000 C 
ENDROOT
BRANCH   3  13
HETATM   13  C   UNK N   1      27.001  25.157  -4.014  0.00  0.00     0.189 C 
HETATM   14  C   UNK N   1      28.467  24.745  -3.907  0.00  0.00     0.044 C 
BRANCH  13  15
HETATM   15  C   UNK N   1      26.361  24.294  -5.080  0.00  0.00     0.163 C 
HETATM   16  O   UNK N   1      27.013  23.458  -5.689  0.00  0.00    -0.648 OA
BRANCH  15  17
HETATM   17  O   UNK N   1      25.052  24.443  -5.365  0.00  0.00    -0.775 OA
HETATM   18  H   UNK N   1      24.719  24.511  -6.238  0.00  0.00     0.167 HD
ENDBRANCH  15  17
ENDBRANCH  13  15
ENDBRANCH   3  13
TORSDOF 3
ENDMDL
MODEL 9
REMARK VINA RESULT:      -5.4      4.685      6.208
REMARK  3 active torsions:
REMARK  status: ('A' for Active; 'I' for Inactive)
REMARK    1  A    between atoms: C_4  and  N_3 
REMARK    2  A    between atoms: C_4  and  C_5 
REMARK    3  A    between atoms: C_5  and  O_6 
ROOT
HETATM    1  O   UNK N   1      37.999  10.886  13.516  0.00  0.00    -0.272 OA
HETATM    2  C   UNK N   1      37.144  11.731  13.734  0.00  0.00     0.232 A 
HETATM    3  N   UNK N   1      36.399  12.327  12.775  0.00  0.00    -0.273 N 
HETATM    4  C   UNK N   1      36.806  12.224  15.114  0.00  0.00     0.096 A 
HETATM    5  C   UNK N   1      35.701  13.263  14.846  0.00  0.00     0.096 A 
HETATM    6  C   UNK N   1      35.532  13.183  13.354  0.00  0.00     0.232 A 
HETATM    7  O   UNK N   1      34.710  13.834  12.727  0.00  0.00    -0.272 OA
HETATM    8  C   UNK N   1      36.118  11.243  16.080  0.00  0.00    -0.000 C 
HETATM    9  C   UNK N   1      35.013  10.455  15.375  0.00  0.00     0.006 C 
HETATM   10  C   UNK N   1      33.926  11.499  15.151  0.00  0.00     0.006 C 
HETATM   11  C   UNK N   1      35.300  12.209  16.916  0.00  0.00     0.011 C 
HETATM   12  C   UNK N   1      34.542  12.771  15.729  0.00  0.00    -0.000 C 
ENDROOT
BRANCH   3  13
HETATM   13  C   UNK N   1      36.470  12.113  11.317  0.00  0.00     0.189 C 
HETATM   14  C   UNK N   1      36.026  10.721  10.878  0.00  0.00     0.044 C 
BRANCH  13  15
HETATM   15  C   UNK N   1      37.872  12.334  10.790  0.00  0.00     0.163 C 
HETATM   16  O   UNK N   1      38.463  11.451  10.185  0.00  0.00    -0.648 OA
BRANCH  15  17
HETATM   17  O   UNK N   1      38.481  13.520  10.985  0.00  0.00    -0.775 OA
HETATM   18  H   UNK N   1      39.278  13.768  10.558  0.00  0.00     0.167 HD
ENDBRANCH  15  17
ENDBRANCH  13  15
ENDBRANCH   3  13
TORSDOF 3
ENDMDL
