MODEL 1
REMARK VINA RESULT:      -6.1      0.000      0.000
REMARK  1 active torsions:
REMARK  status: ('A' for Active; 'I' for Inactive)
REMARK    1  A    between atoms: C_3  and  C_4 
REMARK       I    between atoms: N_9  and  C_10 
ROOT
HETATM    1  O   UNK N   1      36.653  14.586  14.480  0.00  0.00    -0.265 OA
HETATM    2  C   UNK N   1      35.890  13.722  14.085  0.00  0.00     0.290 A 
HETATM    3  C   UNK N   1      35.419  12.669  14.825  0.00  0.00     0.036 A 
HETATM    4  C   UNK N   1      34.591  11.972  13.942  0.00  0.00     0.035 A 
HETATM    5  C   UNK N   1      33.813  10.732  14.217  0.00  0.00     0.070 C 
HETATM    6  N   UNK N   1      34.587  12.600  12.741  0.00  0.00    -0.280 N 
HETATM    7  N   UNK N   1      35.376  13.661  12.833  0.00  0.00    -0.045 N 
HETATM    8  C   UNK N   1      35.635  14.586  11.769  0.00  0.00     0.732 A 
HETATM    9  N   UNK N   1      35.113  14.504  10.535  0.00  0.00    -0.115 N 
HETATM   10  N   UNK N   1      35.609  15.545   9.881  0.00  0.00     0.006 NA
HETATM   11  N   UNK N   1      36.403  16.237  10.686  0.00  0.00     0.006 NA
HETATM   12  N   UNK N   1      36.437  15.658  11.875  0.00  0.00    -0.115 N 
ATOM     13  HN  UNK N   1      36.961  15.960  12.696  1.00  0.00     0.203 HD
HETATM   14  H   UNK N   1      34.086  12.318  11.941  0.00  0.00     0.188 HD
HETATM   15  H   UNK N   1      34.496  13.819  10.190  0.00  0.00     0.203 HD
ENDROOT
BRANCH   3  16
HETATM   16  C   UNK N   1      35.784  12.422  16.264  0.00  0.00     0.042 C 
HETATM   17  C   UNK N   1      34.929  13.160  17.274  0.00  0.00     0.010 C 
ENDBRANCH   3  16
TORSDOF 1
ENDMDL
MODEL 2
REMARK VINA RESULT:      -5.9      5.867      8.191
REMARK  1 active torsions:
REMARK  status: ('A' for Active; 'I' for Inactive)
REMARK    1  A    between atoms: C_3  and  C_4 
REMARK       I    between atoms: N_9  and  C_10 
ROOT
HETATM    1  O   UNK N   1      34.211  18.228   6.651  0.00  0.00    -0.265 OA
HETATM    2  C   UNK N   1      33.401  17.325   6.774  0.00  0.00     0.290 A 
HETATM    3  C   UNK N   1      32.478  16.943   5.836  0.00  0.00     0.036 A 
HETATM    4  C   UNK N   1      31.796  15.883   6.439  0.00  0.00     0.035 A 
HETATM    5  C   UNK N   1      30.678  15.082   5.866  0.00  0.00     0.070 C 
HETATM    6  N   UNK N   1      32.308  15.666   7.675  0.00  0.00    -0.280 N 
HETATM    7  N   UNK N   1      33.281  16.543   7.874  0.00  0.00    -0.045 N 
HETATM    8  C   UNK N   1      34.071  16.637   9.066  0.00  0.00     0.732 A 
HETATM    9  N   UNK N   1      33.932  15.849  10.143  0.00  0.00    -0.115 N 
HETATM   10  N   UNK N   1      34.849  16.273  11.001  0.00  0.00     0.006 NA
HETATM   11  N   UNK N   1      35.522  17.282  10.467  0.00  0.00     0.006 NA
HETATM   12  N   UNK N   1      35.055  17.531   9.255  0.00  0.00    -0.115 N 
ATOM     13  HN  UNK N   1      35.374  18.248   8.604  1.00  0.00     0.203 HD
HETATM   14  H   UNK N   1      32.009  14.978   8.313  0.00  0.00     0.188 HD
HETATM   15  H   UNK N   1      33.289  15.115  10.270  0.00  0.00     0.203 HD
ENDROOT
BRANCH   3  16
HETATM   16  C   UNK N   1      32.327  17.596   4.489  0.00  0.00     0.042 C 
HETATM   17  C   UNK N   1      32.916  16.815   3.332  0.00  0.00     0.010 C 
ENDBRANCH   3  16
TORSDOF 1
ENDMDL
MODEL 3
REMARK VINA RESULT:      -5.8     18.691     19.669
REMARK  1 active torsions:
REMARK  status: ('A' for Active; 'I' for Inactive)
REMARK    1  A    between atoms: C_3  and  C_4 
REMARK       I    between atoms: N_9  and  C_10 
ROOT
HETATM    1  O   UNK N   1      20.285  17.333  -0.073  0.00  0.00    -0.265 OA
HETATM    2  C   UNK N   1      20.202  16.936   1.076  0.00  0.00     0.290 A 
HETATM    3  C   UNK N   1      19.969  15.642   1.462  0.00  0.00     0.036 A 
HETATM    4  C   UNK N   1      19.963  15.697   2.857  0.00  0.00     0.035 A 
HETATM    5  C   UNK N   1      19.754  14.568   3.807  0.00  0.00     0.070 C 
HETATM    6  N   UNK N   1      20.183  16.972   3.258  0.00  0.00    -0.280 N 
HETATM    7  N   UNK N   1      20.327  17.721   2.173  0.00  0.00    -0.045 N 
HETATM    8  C   UNK N   1      20.575  19.132   2.177  0.00  0.00     0.732 A 
HETATM    9  N   UNK N   1      20.696  19.888   3.279  0.00  0.00    -0.115 N 
HETATM   10  N   UNK N   1      20.917  21.117   2.832  0.00  0.00     0.006 NA
HETATM   11  N   UNK N   1      20.931  21.110   1.507  0.00  0.00     0.006 NA
HETATM   12  N   UNK N   1      20.720  19.880   1.071  0.00  0.00    -0.115 N 
ATOM     13  HN  UNK N   1      20.676  19.566   0.102  1.00  0.00     0.203 HD
HETATM   14  H   UNK N   1      20.228  17.288   4.189  0.00  0.00     0.188 HD
HETATM   15  H   UNK N   1      20.633  19.595   4.217  0.00  0.00     0.203 HD
ENDROOT
BRANCH   3  16
HETATM   16  C   UNK N   1      19.779  14.499   0.501  0.00  0.00     0.042 C 
HETATM   17  C   UNK N   1      18.337  14.188   0.158  0.00  0.00     0.010 C 
ENDBRANCH   3  16
TORSDOF 1
ENDMDL
MODEL 4
REMARK VINA RESULT:      -5.6     19.637     22.018
REMARK  1 active torsions:
REMARK  status: ('A' for Active; 'I' for Inactive)
REMARK    1  A    between atoms: C_3  and  C_4 
REMARK       I    between atoms: N_9  and  C_10 
ROOT
HETATM    1  O   UNK N   1      26.716  24.202  -2.935  0.00  0.00    -0.265 OA
HETATM    2  C   UNK N   1      27.261  24.196  -4.025  0.00  0.00     0.290 A 
HETATM    3  C   UNK N   1      26.684  24.560  -5.213  0.00  0.00     0.036 A 
HETATM    4  C   UNK N   1      27.699  24.382  -6.156  0.00  0.00     0.035 A 
HETATM    5  C   UNK N   1      27.625  24.630  -7.624  0.00  0.00     0.070 C 
HETATM    6  N   UNK N   1      28.816  23.934  -5.534  0.00  0.00    -0.280 N 
HETATM    7  N   UNK N   1      28.546  23.822  -4.241  0.00  0.00    -0.045 N 
HETATM    8  C   UNK N   1      29.474  23.376  -3.244  0.00  0.00     0.732 A 
HETATM    9  N   UNK N   1      30.743  23.011  -3.484  0.00  0.00    -0.115 N 
HETATM   10  N   UNK N   1      31.235  22.675  -2.300  0.00  0.00     0.006 NA
HETATM   11  N   UNK N   1      30.301  22.829  -1.372  0.00  0.00     0.006 NA
HETATM   12  N   UNK N   1      29.188  23.267  -1.936  0.00  0.00    -0.115 N 
ATOM     13  HN  UNK N   1      28.302  23.478  -1.477  1.00  0.00     0.203 HD
HETATM   14  H   UNK N   1      29.677  23.727  -5.965  0.00  0.00     0.188 HD
HETATM   15  H   UNK N   1      31.208  22.996  -4.351  0.00  0.00     0.203 HD
ENDROOT
BRANCH   3  16
HETATM   16  C   UNK N   1      25.261  25.031  -5.347  0.00  0.00     0.042 C 
HETATM   17  C   UNK N   1      25.103  26.512  -5.620  0.00  0.00     0.010 C 
ENDBRANCH   3  16
TORSDOF 1
ENDMDL
MODEL 5
REMARK VINA RESULT:      -5.5      1.960      2.892
REMARK  1 active torsions:
REMARK  status: ('A' for Active; 'I' for Inactive)
REMARK    1  A    between atoms: C_3  and  C_4 
REMARK       I    between atoms: N_9  and  C_10 
ROOT
HETATM    1  O   UNK N   1      34.587  12.927  10.967  0.00  0.00    -0.265 OA
HETATM    2  C   UNK N   1      35.163  13.501  11.874  0.00  0.00     0.290 A 
HETATM    3  C   UNK N   1      35.581  12.929  13.047  0.00  0.00     0.036 A 
HETATM    4  C   UNK N   1      36.177  13.980  13.748  0.00  0.00     0.035 A 
HETATM    5  C   UNK N   1      36.807  13.927  15.097  0.00  0.00     0.070 C 
HETATM    6  N   UNK N   1      36.103  15.112  13.007  0.00  0.00    -0.280 N 
HETATM    7  N   UNK N   1      35.488  14.816  11.871  0.00  0.00    -0.045 N 
HETATM    8  C   UNK N   1      35.216  15.749  10.818  0.00  0.00     0.732 A 
HETATM    9  N   UNK N   1      35.549  17.049  10.838  0.00  0.00    -0.115 N 
HETATM   10  N   UNK N   1      35.117  17.534   9.682  0.00  0.00     0.006 NA
HETATM   11  N   UNK N   1      34.543  16.566   8.983  0.00  0.00     0.006 NA
HETATM   12  N   UNK N   1      34.591  15.437   9.671  0.00  0.00    -0.115 N 
ATOM     13  HN  UNK N   1      34.231  14.525   9.390  1.00  0.00     0.203 HD
HETATM   14  H   UNK N   1      36.447  15.998  13.266  0.00  0.00     0.188 HD
HETATM   15  H   UNK N   1      36.012  17.538  11.556  0.00  0.00     0.203 HD
ENDROOT
BRANCH   3  16
HETATM   16  C   UNK N   1      35.385  11.477  13.392  0.00  0.00     0.042 C 
HETATM   17  C   UNK N   1      34.142  11.176  14.202  0.00  0.00     0.010 C 
ENDBRANCH   3  16
TORSDOF 1
ENDMDL
MODEL 6
REMARK VINA RESULT:      -5.3      7.709      9.201
REMARK  1 active torsions:
REMARK  status: ('A' for Active; 'I' for Inactive)
REMARK    1  A    between atoms: C_3  and  C_4 
REMARK       I    between atoms: N_9  and  C_10 
ROOT
HETATM    1  O   UNK N   1      30.586  16.977   5.980  0.00  0.00    -0.265 OA
HETATM    2  C   UNK N   1      31.399  17.308   6.825  0.00  0.00     0.290 A 
HETATM    3  C   UNK N   1      32.738  17.513   6.614  0.00  0.00     0.036 A 
HETATM    4  C   UNK N   1      33.231  17.871   7.871  0.00  0.00     0.035 A 
HETATM    5  C   UNK N   1      34.638  18.210   8.229  0.00  0.00     0.070 C 
HETATM    6  N   UNK N   1      32.216  17.871   8.769  0.00  0.00    -0.280 N 
HETATM    7  N   UNK N   1      31.107  17.529   8.130  0.00  0.00    -0.045 N 
HETATM    8  C   UNK N   1      29.813  17.415   8.735  0.00  0.00     0.732 A 
HETATM    9  N   UNK N   1      29.549  17.640  10.032  0.00  0.00    -0.115 N 
HETATM   10  N   UNK N   1      28.247  17.424  10.161  0.00  0.00     0.006 NA
HETATM   11  N   UNK N   1      27.736  17.081   8.988  0.00  0.00     0.006 NA
HETATM   12  N   UNK N   1      28.695  17.067   8.077  0.00  0.00    -0.115 N 
ATOM     13  HN  UNK N   1      28.606  16.841   7.087  1.00  0.00     0.203 HD
HETATM   14  H   UNK N   1      32.290  18.087   9.727  0.00  0.00     0.188 HD
HETATM   15  H   UNK N   1      30.183  17.907  10.735  0.00  0.00     0.203 HD
ENDROOT
BRANCH   3  16
HETATM   16  C   UNK N   1      33.412  17.357   5.278  0.00  0.00     0.042 C 
HETATM   17  C   UNK N   1      33.887  15.953   4.964  0.00  0.00     0.010 C 
ENDBRANCH   3  16
TORSDOF 1
ENDMDL
MODEL 7
REMARK VINA RESULT:      -5.3      3.768      6.470
REMARK  1 active torsions:
REMARK  status: ('A' for Active; 'I' for Inactive)
REMARK    1  A    between atoms: C_3  and  C_4 
REMARK       I    between atoms: N_9  and  C_10 
ROOT
HETATM    1  O   UNK N   1      32.957  14.418   9.546  0.00  0.00    -0.265 OA
HETATM    2  C   UNK N   1      33.600  15.451   9.481  0.00  0.00     0.290 A 
HETATM    3  C   UNK N   1      33.456  16.428   8.531  0.00  0.00     0.036 A 
HETATM    4  C   UNK N   1      34.404  17.391   8.882  0.00  0.00     0.035 A 
HETATM    5  C   UNK N   1      34.687  18.679   8.189  0.00  0.00     0.070 C 
HETATM    6  N   UNK N   1      35.068  16.983   9.991  0.00  0.00    -0.280 N 
HETATM    7  N   UNK N   1      34.577  15.806  10.350  0.00  0.00    -0.045 N 
HETATM    8  C   UNK N   1      35.019  15.042  11.480  0.00  0.00     0.732 A 
HETATM    9  N   UNK N   1      35.990  15.416  12.328  0.00  0.00    -0.115 N 
HETATM   10  N   UNK N   1      36.074  14.431  13.212  0.00  0.00     0.006 NA
HETATM   11  N   UNK N   1      35.187  13.492  12.914  0.00  0.00     0.006 NA
HETATM   12  N   UNK N   1      34.513  13.850  11.834  0.00  0.00    -0.115 N 
ATOM     13  HN  UNK N   1      33.768  13.331  11.369  1.00  0.00     0.203 HD
HETATM   14  H   UNK N   1      35.789  17.474  10.449  0.00  0.00     0.188 HD
HETATM   15  H   UNK N   1      36.525  16.242  12.300  0.00  0.00     0.203 HD
ENDROOT
BRANCH   3  16
HETATM   16  C   UNK N   1      32.459  16.365   7.405  0.00  0.00     0.042 C 
HETATM   17  C   UNK N   1      31.199  17.177   7.624  0.00  0.00     0.010 C 
ENDBRANCH   3  16
TORSDOF 1
ENDMDL
MODEL 8
REMARK VINA RESULT:      -5.3      2.161      2.383
REMARK  1 active torsions:
REMARK  status: ('A' for Active; 'I' for Inactive)
REMARK    1  A    between atoms: C_3  and  C_4 
REMARK       I    between atoms: N_9  and  C_10 
ROOT
HETATM    1  O   UNK N   1      37.831  12.815  11.711  0.00  0.00    -0.265 OA
HETATM    2  C   UNK N   1      36.702  12.561  12.093  0.00  0.00     0.290 A 
HETATM    3  C   UNK N   1      36.293  11.381  12.659  0.00  0.00     0.036 A 
HETATM    4  C   UNK N   1      34.935  11.579  12.920  0.00  0.00     0.035 A 
HETATM    5  C   UNK N   1      33.982  10.615  13.538  0.00  0.00     0.070 C 
HETATM    6  N   UNK N   1      34.578  12.823  12.519  0.00  0.00    -0.280 N 
HETATM    7  N   UNK N   1      35.652  13.415  12.018  0.00  0.00    -0.045 N 
HETATM    8  C   UNK N   1      35.685  14.745  11.485  0.00  0.00     0.732 A 
HETATM    9  N   UNK N   1      34.630  15.573  11.422  0.00  0.00    -0.115 N 
HETATM   10  N   UNK N   1      35.096  16.683  10.868  0.00  0.00     0.006 NA
HETATM   11  N   UNK N   1      36.386  16.539  10.603  0.00  0.00     0.006 NA
HETATM   12  N   UNK N   1      36.781  15.333  10.980  0.00  0.00    -0.115 N 
ATOM     13  HN  UNK N   1      37.717  14.936  10.903  1.00  0.00     0.203 HD
HETATM   14  H   UNK N   1      33.678  13.219  12.588  0.00  0.00     0.188 HD
HETATM   15  H   UNK N   1      33.710  15.395  11.722  0.00  0.00     0.203 HD
ENDROOT
BRANCH   3  16
HETATM   16  C   UNK N   1      37.200  10.204  12.897  0.00  0.00     0.042 C 
HETATM   17  C   UNK N   1      37.989  10.258  14.189  0.00  0.00     0.010 C 
ENDBRANCH   3  16
TORSDOF 1
ENDMDL
MODEL 9
REMARK VINA RESULT:      -5.2     18.403     19.323
REMARK  1 active torsions:
REMARK  status: ('A' for Active; 'I' for Inactive)
REMARK    1  A    between atoms: C_3  and  C_4 
REMARK       I    between atoms: N_9  and  C_10 
ROOT
HETATM    1  O   UNK N   1      21.185  17.308   3.757  0.00  0.00    -0.265 OA
HETATM    2  C   UNK N   1      20.640  17.079   2.692  0.00  0.00     0.290 A 
HETATM    3  C   UNK N   1      20.171  15.859   2.277  0.00  0.00     0.036 A 
HETATM    4  C   UNK N   1      19.640  16.110   1.010  0.00  0.00     0.035 A 
HETATM    5  C   UNK N   1      18.992  15.133   0.090  0.00  0.00     0.070 C 
HETATM    6  N   UNK N   1      19.798  17.422   0.708  0.00  0.00    -0.280 N 
HETATM    7  N   UNK N   1      20.404  18.005   1.732  0.00  0.00    -0.045 N 
HETATM    8  C   UNK N   1      20.750  19.395   1.798  0.00  0.00     0.732 A 
HETATM    9  N   UNK N   1      20.505  20.294   0.832  0.00  0.00    -0.115 N 
HETATM   10  N   UNK N   1      20.981  21.440   1.299  0.00  0.00     0.006 NA
HETATM   11  N   UNK N   1      21.497  21.247   2.505  0.00  0.00     0.006 NA
HETATM   12  N   UNK N   1      21.365  19.974   2.842  0.00  0.00    -0.115 N 
ATOM     13  HN  UNK N   1      21.666  19.529   3.708  1.00  0.00     0.203 HD
HETATM   14  H   UNK N   1      19.512  17.864  -0.124  0.00  0.00     0.188 HD
HETATM   15  H   UNK N   1      20.068  20.137  -0.035  0.00  0.00     0.203 HD
ENDROOT
BRANCH   3  16
HETATM   16  C   UNK N   1      20.265  14.599   3.095  0.00  0.00     0.042 C 
HETATM   17  C   UNK N   1      19.146  14.406   4.098  0.00  0.00     0.010 C 
ENDBRANCH   3  16
TORSDOF 1
ENDMDL
