REMARK  1 active torsions:
REMARK  status: ('A' for Active; 'I' for Inactive)
REMARK    1  A    between atoms: C_3  and  C_4 
REMARK       I    between atoms: N_9  and  C_10 
ROOT
HETATM    1  O   UNK N   1       2.546   0.842   0.000  0.00  0.00    -0.265 OA
HETATM    2  C   UNK N   1       1.388   0.463   0.000  0.00  0.00     0.290 A 
HETATM    3  C   UNK N   1       0.280   1.270   0.000  0.00  0.00     0.036 A 
HETATM    4  C   UNK N   1      -0.794   0.377  -0.000  0.00  0.00     0.035 A 
HETATM    5  C   UNK N   1      -2.247   0.708  -0.000  0.00  0.00     0.070 C 
HETATM    6  N   UNK N   1      -0.322  -0.893  -0.000  0.00  0.00    -0.280 N 
HETATM    7  N   UNK N   1       1.002  -0.836   0.000  0.00  0.00    -0.045 N 
HETATM    8  C   UNK N   1       1.873  -1.974   0.000  0.00  0.00     0.732 A 
HETATM    9  N   UNK N   1       1.466  -3.253  -0.000  0.00  0.00    -0.115 N 
HETATM   10  N   UNK N   1       2.581  -3.970  -0.000  0.00  0.00     0.006 NA
HETATM   11  N   UNK N   1       3.629  -3.159   0.000  0.00  0.00     0.006 NA
HETATM   12  N   UNK N   1       3.214  -1.903   0.000  0.00  0.00    -0.115 N 
ATOM     13  HN  UNK N   1       3.789  -1.061   0.000  1.00  0.00     0.203 HD
HETATM   14  H   UNK N   1      -0.866  -1.714  -0.000  0.00  0.00     0.188 HD
HETATM   15  H   UNK N   1       0.540  -3.587  -0.000  0.00  0.00     0.203 HD
ENDROOT
BRANCH   3  16
HETATM   16  C   UNK N   1       0.335   2.774   0.000  0.00  0.00     0.042 C 
HETATM   17  C   UNK N   1      -1.015   3.461  -0.000  0.00  0.00     0.010 C 
ENDBRANCH   3  16
TORSDOF 1
