MODEL 1
REMARK VINA RESULT:      -6.5      0.000      0.000
REMARK  4 active torsions:
REMARK  status: ('A' for Active; 'I' for Inactive)
REMARK    1  A    between atoms: C_2  and  C_4 
REMARK    2  A    between atoms: C_9  and  N_10 
REMARK    3  A    between atoms: C_14  and  C_16 
REMARK    4  A    between atoms: C_16  and  O_18 
ROOT
HETATM    1  N   UNK N   1      29.794  23.099  -3.603  0.00  0.00    -0.317 N 
HETATM    2  C   UNK N   1      30.528  22.724  -2.539  0.00  0.00     0.225 C 
HETATM    3  O   UNK N   1      30.422  23.228  -1.431  0.00  0.00    -0.273 OA
HETATM    4  C   UNK N   1      30.130  22.328  -4.766  0.00  0.00     0.148 C 
HETATM    5  C   UNK N   1      31.470  21.685  -4.387  0.00  0.00     0.111 C 
HETATM    6  C   UNK N   1      31.497  21.646  -2.847  0.00  0.00     0.120 C 
ENDROOT
BRANCH   1   7
HETATM    7  C   UNK N   1      28.827  24.154  -3.642  0.00  0.00     0.037 A 
HETATM    8  C   UNK N   1      29.165  25.453  -4.058  0.00  0.00     0.031 A 
HETATM    9  C   UNK N   1      28.182  26.444  -4.159  0.00  0.00     0.017 A 
HETATM   10  C   UNK N   1      26.845  26.149  -3.854  0.00  0.00     0.009 A 
HETATM   11  C   UNK N   1      26.510  24.859  -3.425  0.00  0.00     0.017 A 
HETATM   12  C   UNK N   1      27.491  23.874  -3.319  0.00  0.00     0.031 A 
BRANCH  10  13
HETATM   13  C   UNK N   1      25.794  27.179  -4.003  0.00  0.00     0.155 C 
HETATM   14  O   UNK N   1      25.498  27.895  -3.060  0.00  0.00    -0.293 OA
HETATM   15  C   UNK N   1      25.097  27.376  -5.311  0.00  0.00     0.096 C 
ENDBRANCH  10  13
ENDBRANCH   1   7
BRANCH   5  16
HETATM   16  C   UNK N   1      31.683  20.358  -5.053  0.00  0.00     0.145 C 
HETATM   17  O   UNK N   1      31.425  20.225  -6.239  0.00  0.00    -0.650 OA
BRANCH  16  18
HETATM   18  O   UNK N   1      32.178  19.313  -4.360  0.00  0.00    -0.776 OA
HETATM   19  H   UNK N   1      31.909  18.418  -4.429  0.00  0.00     0.167 HD
ENDBRANCH  16  18
ENDBRANCH   5  16
TORSDOF 4
ENDMDL
MODEL 2
REMARK VINA RESULT:      -6.1     13.650     16.040
REMARK  4 active torsions:
REMARK  status: ('A' for Active; 'I' for Inactive)
REMARK    1  A    between atoms: C_2  and  C_4 
REMARK    2  A    between atoms: C_9  and  N_10 
REMARK    3  A    between atoms: C_14  and  C_16 
REMARK    4  A    between atoms: C_16  and  O_18 
ROOT
HETATM    1  N   UNK N   1      34.403  15.867   9.637  0.00  0.00    -0.317 N 
HETATM    2  C   UNK N   1      35.238  16.574  10.420  0.00  0.00     0.225 C 
HETATM    3  O   UNK N   1      35.567  17.728  10.193  0.00  0.00    -0.273 OA
HETATM    4  C   UNK N   1      34.195  14.545  10.155  0.00  0.00     0.148 C 
HETATM    5  C   UNK N   1      35.338  14.378  11.164  0.00  0.00     0.111 C 
HETATM    6  C   UNK N   1      35.739  15.805  11.584  0.00  0.00     0.120 C 
ENDROOT
BRANCH   1   7
HETATM    7  C   UNK N   1      33.810  16.305   8.410  0.00  0.00     0.037 A 
HETATM    8  C   UNK N   1      34.499  16.231   7.186  0.00  0.00     0.031 A 
HETATM    9  C   UNK N   1      33.865  16.596   5.993  0.00  0.00     0.017 A 
HETATM   10  C   UNK N   1      32.532  17.031   6.002  0.00  0.00     0.009 A 
HETATM   11  C   UNK N   1      31.851  17.120   7.222  0.00  0.00     0.017 A 
HETATM   12  C   UNK N   1      32.483  16.762   8.411  0.00  0.00     0.031 A 
BRANCH  10  13
HETATM   13  C   UNK N   1      31.843  17.374   4.739  0.00  0.00     0.155 C 
HETATM   14  O   UNK N   1      30.678  17.738   4.754  0.00  0.00    -0.293 OA
HETATM   15  C   UNK N   1      32.564  17.302   3.432  0.00  0.00     0.096 C 
ENDBRANCH  10  13
ENDBRANCH   1   7
BRANCH   5  16
HETATM   16  C   UNK N   1      34.979  13.467  12.300  0.00  0.00     0.145 C 
HETATM   17  O   UNK N   1      35.153  13.835  13.451  0.00  0.00    -0.650 OA
BRANCH  16  18
HETATM   18  O   UNK N   1      34.445  12.252  12.065  0.00  0.00    -0.776 OA
HETATM   19  H   UNK N   1      34.013  11.701  12.688  0.00  0.00     0.167 HD
ENDBRANCH  16  18
ENDBRANCH   5  16
TORSDOF 4
ENDMDL
MODEL 3
REMARK VINA RESULT:      -6.0     12.362     14.191
REMARK  4 active torsions:
REMARK  status: ('A' for Active; 'I' for Inactive)
REMARK    1  A    between atoms: C_2  and  C_4 
REMARK    2  A    between atoms: C_9  and  N_10 
REMARK    3  A    between atoms: C_14  and  C_16 
REMARK    4  A    between atoms: C_16  and  O_18 
ROOT
HETATM    1  N   UNK N   1      21.660  18.497   3.907  0.00  0.00    -0.317 N 
HETATM    2  C   UNK N   1      22.826  19.153   3.762  0.00  0.00     0.225 C 
HETATM    3  O   UNK N   1      23.827  18.908   4.418  0.00  0.00    -0.273 OA
HETATM    4  C   UNK N   1      20.667  18.994   2.998  0.00  0.00     0.148 C 
HETATM    5  C   UNK N   1      21.250  20.335   2.537  0.00  0.00     0.111 C 
HETATM    6  C   UNK N   1      22.774  20.220   2.736  0.00  0.00     0.120 C 
ENDROOT
BRANCH   1   7
HETATM    7  C   UNK N   1      21.374  17.466   4.858  0.00  0.00     0.037 A 
HETATM    8  C   UNK N   1      21.359  16.108   4.496  0.00  0.00     0.031 A 
HETATM    9  C   UNK N   1      21.152  15.118   5.463  0.00  0.00     0.017 A 
HETATM   10  C   UNK N   1      20.966  15.470   6.808  0.00  0.00     0.009 A 
HETATM   11  C   UNK N   1      20.965  16.823   7.167  0.00  0.00     0.017 A 
HETATM   12  C   UNK N   1      21.166  17.809   6.202  0.00  0.00     0.031 A 
BRANCH  10  13
HETATM   13  C   UNK N   1      20.793  14.426   7.842  0.00  0.00     0.155 C 
HETATM   14  O   UNK N   1      20.382  13.319   7.534  0.00  0.00    -0.293 OA
HETATM   15  C   UNK N   1      21.139  14.700   9.270  0.00  0.00     0.096 C 
ENDBRANCH  10  13
ENDBRANCH   1   7
BRANCH   5  16
HETATM   16  C   UNK N   1      20.825  20.703   1.146  0.00  0.00     0.145 C 
HETATM   17  O   UNK N   1      20.672  21.877   0.849  0.00  0.00    -0.650 OA
BRANCH  16  18
HETATM   18  O   UNK N   1      20.631  19.751   0.212  0.00  0.00    -0.776 OA
HETATM   19  H   UNK N   1      20.085  18.993   0.291  0.00  0.00     0.167 HD
ENDBRANCH  16  18
ENDBRANCH   5  16
TORSDOF 4
ENDMDL
MODEL 4
REMARK VINA RESULT:      -6.0     20.783     23.616
REMARK  4 active torsions:
REMARK  status: ('A' for Active; 'I' for Inactive)
REMARK    1  A    between atoms: C_2  and  C_4 
REMARK    2  A    between atoms: C_9  and  N_10 
REMARK    3  A    between atoms: C_14  and  C_16 
REMARK    4  A    between atoms: C_16  and  O_18 
ROOT
HETATM    1  N   UNK N   1      35.526  13.044  14.079  0.00  0.00    -0.317 N 
HETATM    2  C   UNK N   1      34.898  12.445  13.051  0.00  0.00     0.225 C 
HETATM    3  O   UNK N   1      34.280  11.396  13.152  0.00  0.00    -0.273 OA
HETATM    4  C   UNK N   1      36.159  14.263  13.665  0.00  0.00     0.148 C 
HETATM    5  C   UNK N   1      36.186  14.144  12.136  0.00  0.00     0.111 C 
HETATM    6  C   UNK N   1      35.044  13.177  11.770  0.00  0.00     0.120 C 
ENDROOT
BRANCH   1   7
HETATM    7  C   UNK N   1      35.625  12.552  15.420  0.00  0.00     0.037 A 
HETATM    8  C   UNK N   1      35.021  13.218  16.501  0.00  0.00     0.031 A 
HETATM    9  C   UNK N   1      35.071  12.672  17.788  0.00  0.00     0.017 A 
HETATM   10  C   UNK N   1      35.718  11.448  18.014  0.00  0.00     0.009 A 
HETATM   11  C   UNK N   1      36.333  10.792  16.942  0.00  0.00     0.017 A 
HETATM   12  C   UNK N   1      36.288  11.338  15.660  0.00  0.00     0.031 A 
BRANCH  10  13
HETATM   13  C   UNK N   1      35.734  10.844  19.364  0.00  0.00     0.155 C 
HETATM   14  O   UNK N   1      34.795  11.015  20.124  0.00  0.00    -0.293 OA
HETATM   15  C   UNK N   1      36.883   9.998  19.809  0.00  0.00     0.096 C 
ENDBRANCH  10  13
ENDBRANCH   1   7
BRANCH   5  16
HETATM   16  C   UNK N   1      36.122  15.478  11.451  0.00  0.00     0.145 C 
HETATM   17  O   UNK N   1      35.098  16.141  11.509  0.00  0.00    -0.650 OA
BRANCH  16  18
HETATM   18  O   UNK N   1      37.191  15.962  10.790  0.00  0.00    -0.776 OA
HETATM   19  H   UNK N   1      37.798  16.605  11.102  0.00  0.00     0.167 HD
ENDBRANCH  16  18
ENDBRANCH   5  16
TORSDOF 4
ENDMDL
MODEL 5
REMARK VINA RESULT:      -6.0     13.896     15.658
REMARK  4 active torsions:
REMARK  status: ('A' for Active; 'I' for Inactive)
REMARK    1  A    between atoms: C_2  and  C_4 
REMARK    2  A    between atoms: C_9  and  N_10 
REMARK    3  A    between atoms: C_14  and  C_16 
REMARK    4  A    between atoms: C_16  and  O_18 
ROOT
HETATM    1  N   UNK N   1      20.900  17.471   5.123  0.00  0.00    -0.317 N 
HETATM    2  C   UNK N   1      20.120  17.280   4.043  0.00  0.00     0.225 C 
HETATM    3  O   UNK N   1      19.313  16.368   3.942  0.00  0.00    -0.273 OA
HETATM    4  C   UNK N   1      21.742  18.622   4.961  0.00  0.00     0.148 C 
HETATM    5  C   UNK N   1      21.676  18.898   3.454  0.00  0.00     0.111 C 
HETATM    6  C   UNK N   1      20.350  18.277   2.971  0.00  0.00     0.120 C 
ENDROOT
BRANCH   1   7
HETATM    7  C   UNK N   1      20.960  16.641   6.287  0.00  0.00     0.037 A 
HETATM    8  C   UNK N   1      20.201  16.920   7.437  0.00  0.00     0.031 A 
HETATM    9  C   UNK N   1      20.224  16.048   8.531  0.00  0.00     0.017 A 
HETATM   10  C   UNK N   1      20.998  14.880   8.490  0.00  0.00     0.009 A 
HETATM   11  C   UNK N   1      21.766  14.608   7.352  0.00  0.00     0.017 A 
HETATM   12  C   UNK N   1      21.748  15.479   6.264  0.00  0.00     0.031 A 
BRANCH  10  13
HETATM   13  C   UNK N   1      20.989  13.931   9.625  0.00  0.00     0.155 C 
HETATM   14  O   UNK N   1      19.936  13.625  10.162  0.00  0.00    -0.293 OA
HETATM   15  C   UNK N   1      22.259  13.315  10.117  0.00  0.00     0.096 C 
ENDBRANCH  10  13
ENDBRANCH   1   7
BRANCH   5  16
HETATM   16  C   UNK N   1      21.845  20.352   3.124  0.00  0.00     0.145 C 
HETATM   17  O   UNK N   1      22.952  20.785   2.846  0.00  0.00    -0.650 OA
BRANCH  16  18
HETATM   18  O   UNK N   1      20.783  21.181   3.110  0.00  0.00    -0.776 OA
HETATM   19  H   UNK N   1      20.001  21.097   3.620  0.00  0.00     0.167 HD
ENDBRANCH  16  18
ENDBRANCH   5  16
TORSDOF 4
ENDMDL
MODEL 6
REMARK VINA RESULT:      -6.0     18.673     21.505
REMARK  4 active torsions:
REMARK  status: ('A' for Active; 'I' for Inactive)
REMARK    1  A    between atoms: C_2  and  C_4 
REMARK    2  A    between atoms: C_9  and  N_10 
REMARK    3  A    between atoms: C_14  and  C_16 
REMARK    4  A    between atoms: C_16  and  O_18 
ROOT
HETATM    1  N   UNK N   1      35.964  14.197  12.203  0.00  0.00    -0.317 N 
HETATM    2  C   UNK N   1      36.856  13.804  11.276  0.00  0.00     0.225 C 
HETATM    3  O   UNK N   1      37.674  12.915  11.457  0.00  0.00    -0.273 OA
HETATM    4  C   UNK N   1      35.127  15.253  11.708  0.00  0.00     0.148 C 
HETATM    5  C   UNK N   1      35.885  15.752  10.472  0.00  0.00     0.111 C 
HETATM    6  C   UNK N   1      36.762  14.571  10.012  0.00  0.00     0.120 C 
ENDROOT
BRANCH   1   7
HETATM    7  C   UNK N   1      35.849  13.699  13.540  0.00  0.00     0.037 A 
HETATM    8  C   UNK N   1      36.588  14.249  14.602  0.00  0.00     0.031 A 
HETATM    9  C   UNK N   1      36.397  13.792  15.911  0.00  0.00     0.017 A 
HETATM   10  C   UNK N   1      35.460  12.784  16.180  0.00  0.00     0.009 A 
HETATM   11  C   UNK N   1      34.735  12.225  15.122  0.00  0.00     0.017 A 
HETATM   12  C   UNK N   1      34.928  12.676  13.817  0.00  0.00     0.031 A 
BRANCH  10  13
HETATM   13  C   UNK N   1      35.221  12.330  17.567  0.00  0.00     0.155 C 
HETATM   14  O   UNK N   1      35.094  11.141  17.811  0.00  0.00    -0.293 OA
HETATM   15  C   UNK N   1      35.156  13.312  18.693  0.00  0.00     0.096 C 
ENDBRANCH  10  13
ENDBRANCH   1   7
BRANCH   5  16
HETATM   16  C   UNK N   1      34.972  16.304   9.417  0.00  0.00     0.145 C 
HETATM   17  O   UNK N   1      34.922  15.772   8.319  0.00  0.00    -0.650 OA
BRANCH  16  18
HETATM   18  O   UNK N   1      34.189  17.370   9.675  0.00  0.00    -0.776 OA
HETATM   19  H   UNK N   1      33.603  17.792   9.077  0.00  0.00     0.167 HD
ENDBRANCH  16  18
ENDBRANCH   5  16
TORSDOF 4
ENDMDL
MODEL 7
REMARK VINA RESULT:      -5.8      9.639     11.182
REMARK  4 active torsions:
REMARK  status: ('A' for Active; 'I' for Inactive)
REMARK    1  A    between atoms: C_2  and  C_4 
REMARK    2  A    between atoms: C_9  and  N_10 
REMARK    3  A    between atoms: C_14  and  C_16 
REMARK    4  A    between atoms: C_16  and  O_18 
ROOT
HETATM    1  N   UNK N   1      29.316  17.863   5.507  0.00  0.00    -0.317 N 
HETATM    2  C   UNK N   1      30.379  17.239   4.966  0.00  0.00     0.225 C 
HETATM    3  O   UNK N   1      30.534  17.084   3.764  0.00  0.00    -0.273 OA
HETATM    4  C   UNK N   1      29.407  17.901   6.939  0.00  0.00     0.148 C 
HETATM    5  C   UNK N   1      30.482  16.853   7.252  0.00  0.00     0.111 C 
HETATM    6  C   UNK N   1      31.339  16.737   5.977  0.00  0.00     0.120 C 
ENDROOT
BRANCH   1   7
HETATM    7  C   UNK N   1      28.190  18.394   4.801  0.00  0.00     0.037 A 
HETATM    8  C   UNK N   1      27.176  17.564   4.292  0.00  0.00     0.031 A 
HETATM    9  C   UNK N   1      26.049  18.118   3.674  0.00  0.00     0.017 A 
HETATM   10  C   UNK N   1      25.914  19.510   3.563  0.00  0.00     0.009 A 
HETATM   11  C   UNK N   1      26.931  20.337   4.055  0.00  0.00     0.017 A 
HETATM   12  C   UNK N   1      28.055  19.784   4.666  0.00  0.00     0.031 A 
BRANCH  10  13
HETATM   13  C   UNK N   1      24.705  20.102   2.952  0.00  0.00     0.155 C 
HETATM   14  O   UNK N   1      24.807  20.890   2.025  0.00  0.00    -0.293 OA
HETATM   15  C   UNK N   1      23.342  19.732   3.441  0.00  0.00     0.096 C 
ENDBRANCH  10  13
ENDBRANCH   1   7
BRANCH   5  16
HETATM   16  C   UNK N   1      31.252  17.169   8.500  0.00  0.00     0.145 C 
HETATM   17  O   UNK N   1      32.379  16.721   8.647  0.00  0.00    -0.650 OA
BRANCH  16  18
HETATM   18  O   UNK N   1      30.723  17.962   9.452  0.00  0.00    -0.776 OA
HETATM   19  H   UNK N   1      30.896  18.875   9.580  0.00  0.00     0.167 HD
ENDBRANCH  16  18
ENDBRANCH   5  16
TORSDOF 4
ENDMDL
MODEL 8
REMARK VINA RESULT:      -5.8     12.967     16.141
REMARK  4 active torsions:
REMARK  status: ('A' for Active; 'I' for Inactive)
REMARK    1  A    between atoms: C_2  and  C_4 
REMARK    2  A    between atoms: C_9  and  N_10 
REMARK    3  A    between atoms: C_14  and  C_16 
REMARK    4  A    between atoms: C_16  and  O_18 
ROOT
HETATM    1  N   UNK N   1      31.058  16.919   8.089  0.00  0.00    -0.317 N 
HETATM    2  C   UNK N   1      30.436  16.444   6.995  0.00  0.00     0.225 C 
HETATM    3  O   UNK N   1      30.888  15.554   6.291  0.00  0.00    -0.273 OA
HETATM    4  C   UNK N   1      30.289  17.954   8.719  0.00  0.00     0.148 C 
HETATM    5  C   UNK N   1      29.279  18.350   7.636  0.00  0.00     0.111 C 
HETATM    6  C   UNK N   1      29.149  17.123   6.713  0.00  0.00     0.120 C 
ENDROOT
BRANCH   1   7
HETATM    7  C   UNK N   1      32.342  16.518   8.581  0.00  0.00     0.037 A 
HETATM    8  C   UNK N   1      33.473  17.343   8.458  0.00  0.00     0.031 A 
HETATM    9  C   UNK N   1      34.697  16.957   9.016  0.00  0.00     0.017 A 
HETATM   10  C   UNK N   1      34.807  15.745   9.713  0.00  0.00     0.009 A 
HETATM   11  C   UNK N   1      33.685  14.916   9.824  0.00  0.00     0.017 A 
HETATM   12  C   UNK N   1      32.467  15.298   9.263  0.00  0.00     0.031 A 
BRANCH  10  13
HETATM   13  C   UNK N   1      36.086  15.354  10.345  0.00  0.00     0.155 C 
HETATM   14  O   UNK N   1      36.814  16.203  10.834  0.00  0.00    -0.293 OA
HETATM   15  C   UNK N   1      36.495  13.918  10.418  0.00  0.00     0.096 C 
ENDBRANCH  10  13
ENDBRANCH   1   7
BRANCH   5  16
HETATM   16  C   UNK N   1      27.983  18.845   8.207  0.00  0.00     0.145 C 
HETATM   17  O   UNK N   1      27.394  19.767   7.665  0.00  0.00    -0.650 OA
BRANCH  16  18
HETATM   18  O   UNK N   1      27.449  18.268   9.302  0.00  0.00    -0.776 OA
HETATM   19  H   UNK N   1      27.020  17.435   9.342  0.00  0.00     0.167 HD
ENDBRANCH  16  18
ENDBRANCH   5  16
TORSDOF 4
ENDMDL
MODEL 9
REMARK VINA RESULT:      -5.7     23.507     26.115
REMARK  4 active torsions:
REMARK  status: ('A' for Active; 'I' for Inactive)
REMARK    1  A    between atoms: C_2  and  C_4 
REMARK    2  A    between atoms: C_9  and  N_10 
REMARK    3  A    between atoms: C_14  and  C_16 
REMARK    4  A    between atoms: C_16  and  O_18 
ROOT
HETATM    1  N   UNK N   1      35.852  11.352  16.594  0.00  0.00    -0.317 N 
HETATM    2  C   UNK N   1      36.812  10.821  15.816  0.00  0.00     0.225 C 
HETATM    3  O   UNK N   1      37.339   9.740  16.032  0.00  0.00    -0.273 OA
HETATM    4  C   UNK N   1      35.418  12.625  16.091  0.00  0.00     0.148 C 
HETATM    5  C   UNK N   1      36.529  13.012  15.108  0.00  0.00     0.111 C 
HETATM    6  C   UNK N   1      37.186  11.687  14.673  0.00  0.00     0.120 C 
ENDROOT
BRANCH   1   7
HETATM    7  C   UNK N   1      35.327  10.792  17.802  0.00  0.00     0.037 A 
HETATM    8  C   UNK N   1      35.507  11.418  19.048  0.00  0.00     0.031 A 
HETATM    9  C   UNK N   1      34.917  10.887  20.201  0.00  0.00     0.017 A 
HETATM   10  C   UNK N   1      34.132   9.728  20.125  0.00  0.00     0.009 A 
HETATM   11  C   UNK N   1      33.965   9.095  18.887  0.00  0.00     0.017 A 
HETATM   12  C   UNK N   1      34.556   9.621  17.740  0.00  0.00     0.031 A 
BRANCH  10  13
HETATM   13  C   UNK N   1      33.468   9.188  21.331  0.00  0.00     0.155 C 
HETATM   14  O   UNK N   1      33.740   8.068  21.733  0.00  0.00    -0.293 OA
HETATM   15  C   UNK N   1      32.476  10.010  22.090  0.00  0.00     0.096 C 
ENDBRANCH  10  13
ENDBRANCH   1   7
BRANCH   5  16
HETATM   16  C   UNK N   1      36.030  13.865  13.978  0.00  0.00     0.145 C 
HETATM   17  O   UNK N   1      34.947  13.624  13.469  0.00  0.00    -0.650 OA
BRANCH  16  18
HETATM   18  O   UNK N   1      36.757  14.909  13.533  0.00  0.00    -0.776 OA
HETATM   19  H   UNK N   1      36.482  15.804  13.492  0.00  0.00     0.167 HD
ENDBRANCH  16  18
ENDBRANCH   5  16
TORSDOF 4
ENDMDL
