REMARK  6 active torsions:
REMARK  status: ('A' for Active; 'I' for Inactive)
REMARK    1  A    between atoms: O_1  and  C_11 
REMARK    2  A    between atoms: O_1  and  C_15 
REMARK    3  A    between atoms: N_5  and  C_16 
REMARK       I    between atoms: N_5  and  C_18 
REMARK    4  A    between atoms: C_7  and  C_10 
REMARK    5  A    between atoms: C_9  and  C_10 
REMARK    6  A    between atoms: C_15  and  C_18 
ROOT
HETATM    1 Cl   UNK N   1       0.261   4.109   0.226  0.00  0.00    -0.084 Cl
HETATM    2  C   UNK N   1       1.224   0.212   0.382  0.00  0.00     0.039 A 
HETATM    3  C   UNK N   1      -1.199   0.334   0.136  0.00  0.00     0.050 A 
HETATM    4  C   UNK N   1      -1.082   1.735   0.145  0.00  0.00     0.042 A 
HETATM    5  C   UNK N   1      -0.013  -0.445   0.238  0.00  0.00     0.083 A 
HETATM    6  C   UNK N   1       0.157   2.363   0.256  0.00  0.00     0.035 A 
HETATM    7  C   UNK N   1       1.310   1.601   0.386  0.00  0.00     0.026 A 
ENDROOT
BRANCH   5   8
HETATM    8  O   UNK N   1      -0.088  -1.810   0.180  0.00  0.00    -0.341 OA
BRANCH   8   9
HETATM    9  C   UNK N   1       0.933  -2.756   0.241  0.00  0.00     0.278 C 
BRANCH   9  10
HETATM   10  C   UNK N   1       2.235  -2.298  -0.339  0.00  0.00     0.246 C 
HETATM   11  O   UNK N   1       2.273  -1.853  -1.479  0.00  0.00    -0.271 OA
HETATM   12  N   UNK N   1       3.349  -2.342   0.435  0.00  0.00    -0.325 N 
HETATM   13  H   UNK N   1       3.306  -2.868   1.266  0.00  0.00     0.169 HD
BRANCH  12  14
HETATM   14  C   UNK N   1       4.571  -1.685   0.133  0.00  0.00     0.034 A 
HETATM   15  C   UNK N   1       5.761  -2.160   0.694  0.00  0.00     0.029 A 
HETATM   16  C   UNK N   1       6.964  -1.482   0.473  0.00  0.00     0.002 A 
HETATM   17  C   UNK N   1       6.977  -0.308  -0.285  0.00  0.00     0.000 A 
HETATM   18  C   UNK N   1       5.789   0.185  -0.831  0.00  0.00     0.002 A 
HETATM   19  C   UNK N   1       4.590  -0.501  -0.624  0.00  0.00     0.029 A 
ENDBRANCH  12  14
ENDBRANCH   9  10
ENDBRANCH   8   9
ENDBRANCH   5   8
BRANCH   3  20
HETATM   20  C   UNK N   1      -2.556  -0.312   0.021  0.00  0.00     0.195 C 
HETATM   21  O   UNK N   1      -2.624  -1.533  -0.015  0.00  0.00    -0.287 OA
BRANCH  20  22
HETATM   22  C   UNK N   1      -3.843   0.453  -0.028  0.00  0.00     0.015 A 
HETATM   23  C   UNK N   1      -5.055  -0.253  -0.110  0.00  0.00     0.015 A 
HETATM   24  C   UNK N   1      -6.276   0.426  -0.145  0.00  0.00     0.001 A 
HETATM   25  C   UNK N   1      -6.302   1.821  -0.097  0.00  0.00     0.000 A 
HETATM   26  C   UNK N   1      -5.107   2.536  -0.015  0.00  0.00     0.001 A 
HETATM   27  C   UNK N   1      -3.887   1.856   0.021  0.00  0.00     0.015 A 
ENDBRANCH  20  22
ENDBRANCH   3  20
TORSDOF 6
