MODEL 1
REMARK VINA RESULT:      -7.6      0.000      0.000
REMARK  6 active torsions:
REMARK  status: ('A' for Active; 'I' for Inactive)
REMARK    1  A    between atoms: O_1  and  C_11 
REMARK    2  A    between atoms: O_1  and  C_15 
REMARK    3  A    between atoms: N_5  and  C_16 
REMARK       I    between atoms: N_5  and  C_18 
REMARK    4  A    between atoms: C_7  and  C_10 
REMARK    5  A    between atoms: C_9  and  C_10 
REMARK    6  A    between atoms: C_15  and  C_18 
ROOT
HETATM    1 Cl   UNK N   1      18.693  17.871   9.344  0.00  0.00    -0.084 Cl
HETATM    2  C   UNK N   1      21.541  16.947   6.665  0.00  0.00     0.039 A 
HETATM    3  C   UNK N   1      21.079  14.918   7.937  0.00  0.00     0.050 A 
HETATM    4  C   UNK N   1      20.141  15.655   8.681  0.00  0.00     0.042 A 
HETATM    5  C   UNK N   1      21.782  15.578   6.891  0.00  0.00     0.083 A 
HETATM    6  C   UNK N   1      19.896  17.001   8.418  0.00  0.00     0.035 A 
HETATM    7  C   UNK N   1      20.605  17.651   7.417  0.00  0.00     0.026 A 
ENDROOT
BRANCH   5   8
HETATM    8  O   UNK N   1      22.664  14.876   6.115  0.00  0.00    -0.341 OA
BRANCH   8   9
HETATM    9  C   UNK N   1      24.055  14.937   6.080  0.00  0.00     0.278 C 
BRANCH   9  10
HETATM   10  C   UNK N   1      24.606  15.901   5.077  0.00  0.00     0.246 C 
HETATM   11  O   UNK N   1      24.646  15.595   3.892  0.00  0.00    -0.271 OA
HETATM   12  N   UNK N   1      25.011  17.126   5.499  0.00  0.00    -0.325 N 
HETATM   13  H   UNK N   1      25.129  17.259   6.467  0.00  0.00     0.169 HD
BRANCH  12  14
HETATM   14  C   UNK N   1      25.277  18.230   4.645  0.00  0.00     0.034 A 
HETATM   15  C   UNK N   1      26.599  18.643   4.452  0.00  0.00     0.029 A 
HETATM   16  C   UNK N   1      26.877  19.775   3.679  0.00  0.00     0.002 A 
HETATM   17  C   UNK N   1      25.832  20.516   3.121  0.00  0.00     0.000 A 
HETATM   18  C   UNK N   1      24.507  20.121   3.327  0.00  0.00     0.002 A 
HETATM   19  C   UNK N   1      24.230  18.982   4.086  0.00  0.00     0.029 A 
ENDBRANCH  12  14
ENDBRANCH   9  10
ENDBRANCH   8   9
ENDBRANCH   5   8
BRANCH   3  20
HETATM   20  C   UNK N   1      21.324  13.465   8.253  0.00  0.00     0.195 C 
HETATM   21  O   UNK N   1      20.763  12.614   7.576  0.00  0.00    -0.287 OA
BRANCH  20  22
HETATM   22  C   UNK N   1      22.238  12.989   9.340  0.00  0.00     0.015 A 
HETATM   23  C   UNK N   1      21.686  12.558  10.558  0.00  0.00     0.015 A 
HETATM   24  C   UNK N   1      22.507  12.096  11.591  0.00  0.00     0.001 A 
HETATM   25  C   UNK N   1      23.892  12.058  11.419  0.00  0.00     0.000 A 
HETATM   26  C   UNK N   1      24.455  12.482  10.216  0.00  0.00     0.001 A 
HETATM   27  C   UNK N   1      23.633  12.943   9.184  0.00  0.00     0.015 A 
ENDBRANCH  20  22
ENDBRANCH   3  20
TORSDOF 6
ENDMDL
MODEL 2
REMARK VINA RESULT:      -7.0     12.289     14.280
REMARK  6 active torsions:
REMARK  status: ('A' for Active; 'I' for Inactive)
REMARK    1  A    between atoms: O_1  and  C_11 
REMARK    2  A    between atoms: O_1  and  C_15 
REMARK    3  A    between atoms: N_5  and  C_16 
REMARK       I    between atoms: N_5  and  C_18 
REMARK    4  A    between atoms: C_7  and  C_10 
REMARK    5  A    between atoms: C_9  and  C_10 
REMARK    6  A    between atoms: C_15  and  C_18 
ROOT
HETATM    1 Cl   UNK N   1      38.361   9.141  11.812  0.00  0.00    -0.084 Cl
HETATM    2  C   UNK N   1      37.030  12.761  10.689  0.00  0.00     0.039 A 
HETATM    3  C   UNK N   1      36.117  12.328  12.908  0.00  0.00     0.050 A 
HETATM    4  C   UNK N   1      36.766  11.081  12.880  0.00  0.00     0.042 A 
HETATM    5  C   UNK N   1      36.270  13.196  11.791  0.00  0.00     0.083 A 
HETATM    6  C   UNK N   1      37.540  10.686  11.790  0.00  0.00     0.035 A 
HETATM    7  C   UNK N   1      37.664  11.522  10.689  0.00  0.00     0.026 A 
ENDROOT
BRANCH   5   8
HETATM    8  O   UNK N   1      35.694  14.437  11.810  0.00  0.00    -0.341 OA
BRANCH   8   9
HETATM    9  C   UNK N   1      36.228  15.667  11.431  0.00  0.00     0.278 C 
BRANCH   9  10
HETATM   10  C   UNK N   1      35.379  16.439  10.469  0.00  0.00     0.246 C 
HETATM   11  O   UNK N   1      35.493  17.656  10.396  0.00  0.00    -0.271 OA
HETATM   12  N   UNK N   1      34.527  15.763   9.658  0.00  0.00    -0.325 N 
HETATM   13  H   UNK N   1      34.340  14.821   9.877  0.00  0.00     0.169 HD
BRANCH  12  14
HETATM   14  C   UNK N   1      33.885  16.315   8.519  0.00  0.00     0.034 A 
HETATM   15  C   UNK N   1      32.538  16.683   8.602  0.00  0.00     0.029 A 
HETATM   16  C   UNK N   1      31.865  17.155   7.471  0.00  0.00     0.002 A 
HETATM   17  C   UNK N   1      32.528  17.233   6.243  0.00  0.00     0.000 A 
HETATM   18  C   UNK N   1      33.868  16.847   6.146  0.00  0.00     0.002 A 
HETATM   19  C   UNK N   1      34.544  16.390   7.280  0.00  0.00     0.029 A 
ENDBRANCH  12  14
ENDBRANCH   9  10
ENDBRANCH   8   9
ENDBRANCH   5   8
BRANCH   3  20
HETATM   20  C   UNK N   1      35.282  12.720  14.100  0.00  0.00     0.195 C 
HETATM   21  O   UNK N   1      34.130  12.316  14.168  0.00  0.00    -0.287 OA
BRANCH  20  22
HETATM   22  C   UNK N   1      35.786  13.563  15.231  0.00  0.00     0.015 A 
HETATM   23  C   UNK N   1      36.839  14.463  14.996  0.00  0.00     0.015 A 
HETATM   24  C   UNK N   1      37.328  15.275  16.023  0.00  0.00     0.001 A 
HETATM   25  C   UNK N   1      36.769  15.199  17.300  0.00  0.00     0.000 A 
HETATM   26  C   UNK N   1      35.722  14.311  17.549  0.00  0.00     0.001 A 
HETATM   27  C   UNK N   1      35.234  13.500  16.521  0.00  0.00     0.015 A 
ENDBRANCH  20  22
ENDBRANCH   3  20
TORSDOF 6
ENDMDL
MODEL 3
REMARK VINA RESULT:      -7.0     10.770     13.879
REMARK  6 active torsions:
REMARK  status: ('A' for Active; 'I' for Inactive)
REMARK    1  A    between atoms: O_1  and  C_11 
REMARK    2  A    between atoms: O_1  and  C_15 
REMARK    3  A    between atoms: N_5  and  C_16 
REMARK       I    between atoms: N_5  and  C_18 
REMARK    4  A    between atoms: C_7  and  C_10 
REMARK    5  A    between atoms: C_9  and  C_10 
REMARK    6  A    between atoms: C_15  and  C_18 
ROOT
HETATM    1 Cl   UNK N   1      34.420  11.773   5.470  0.00  0.00    -0.084 Cl
HETATM    2  C   UNK N   1      35.967  13.916   8.496  0.00  0.00     0.039 A 
HETATM    3  C   UNK N   1      34.522  15.418   7.229  0.00  0.00     0.050 A 
HETATM    4  C   UNK N   1      34.252  14.348   6.359  0.00  0.00     0.042 A 
HETATM    5  C   UNK N   1      35.386  15.189   8.336  0.00  0.00     0.083 A 
HETATM    6  C   UNK N   1      34.812  13.087   6.556  0.00  0.00     0.035 A 
HETATM    7  C   UNK N   1      35.680  12.874   7.619  0.00  0.00     0.026 A 
ENDROOT
BRANCH   5   8
HETATM    8  O   UNK N   1      35.628  16.196   9.231  0.00  0.00    -0.341 OA
BRANCH   8   9
HETATM    9  C   UNK N   1      34.975  16.495  10.424  0.00  0.00     0.278 C 
BRANCH   9  10
HETATM   10  C   UNK N   1      35.037  15.408  11.452  0.00  0.00     0.246 C 
HETATM   11  O   UNK N   1      34.074  14.669  11.618  0.00  0.00    -0.271 OA
HETATM   12  N   UNK N   1      36.186  15.232  12.151  0.00  0.00    -0.325 N 
HETATM   13  H   UNK N   1      36.857  15.951  12.115  0.00  0.00     0.169 HD
BRANCH  12  14
HETATM   14  C   UNK N   1      36.491  14.086  12.932  0.00  0.00     0.034 A 
HETATM   15  C   UNK N   1      36.477  14.184  14.328  0.00  0.00     0.029 A 
HETATM   16  C   UNK N   1      36.850  13.090  15.115  0.00  0.00     0.002 A 
HETATM   17  C   UNK N   1      37.268  11.902  14.509  0.00  0.00     0.000 A 
HETATM   18  C   UNK N   1      37.305  11.803  13.116  0.00  0.00     0.002 A 
HETATM   19  C   UNK N   1      36.917  12.890  12.330  0.00  0.00     0.029 A 
ENDBRANCH  12  14
ENDBRANCH   9  10
ENDBRANCH   8   9
ENDBRANCH   5   8
BRANCH   3  20
HETATM   20  C   UNK N   1      33.903  16.770   6.982  0.00  0.00     0.195 C 
HETATM   21  O   UNK N   1      34.584  17.640   6.455  0.00  0.00    -0.287 OA
BRANCH  20  22
HETATM   22  C   UNK N   1      32.486  17.114   7.322  0.00  0.00     0.015 A 
HETATM   23  C   UNK N   1      31.453  16.666   6.480  0.00  0.00     0.015 A 
HETATM   24  C   UNK N   1      30.118  16.956   6.771  0.00  0.00     0.001 A 
HETATM   25  C   UNK N   1      29.795  17.698   7.909  0.00  0.00     0.000 A 
HETATM   26  C   UNK N   1      30.809  18.149   8.755  0.00  0.00     0.001 A 
HETATM   27  C   UNK N   1      32.144  17.857   8.463  0.00  0.00     0.015 A 
ENDBRANCH  20  22
ENDBRANCH   3  20
TORSDOF 6
ENDMDL
MODEL 4
REMARK VINA RESULT:      -6.9     12.009     13.926
REMARK  6 active torsions:
REMARK  status: ('A' for Active; 'I' for Inactive)
REMARK    1  A    between atoms: O_1  and  C_11 
REMARK    2  A    between atoms: O_1  and  C_15 
REMARK    3  A    between atoms: N_5  and  C_16 
REMARK       I    between atoms: N_5  and  C_18 
REMARK    4  A    between atoms: C_7  and  C_10 
REMARK    5  A    between atoms: C_9  and  C_10 
REMARK    6  A    between atoms: C_15  and  C_18 
ROOT
HETATM    1 Cl   UNK N   1      33.639   8.340  11.099  0.00  0.00    -0.084 Cl
HETATM    2  C   UNK N   1      34.776  12.169  10.671  0.00  0.00     0.039 A 
HETATM    3  C   UNK N   1      35.854  11.331  12.692  0.00  0.00     0.050 A 
HETATM    4  C   UNK N   1      35.214  10.100  12.465  0.00  0.00     0.042 A 
HETATM    5  C   UNK N   1      35.643  12.385  11.759  0.00  0.00     0.083 A 
HETATM    6  C   UNK N   1      34.386   9.899  11.362  0.00  0.00     0.035 A 
HETATM    7  C   UNK N   1      34.158  10.938  10.470  0.00  0.00     0.026 A 
ENDROOT
BRANCH   5   8
HETATM    8  O   UNK N   1      36.291  13.578  11.923  0.00  0.00    -0.341 OA
BRANCH   8   9
HETATM    9  C   UNK N   1      35.773  14.830  12.247  0.00  0.00     0.278 C 
BRANCH   9  10
HETATM   10  C   UNK N   1      35.572  15.738  11.074  0.00  0.00     0.246 C 
HETATM   11  O   UNK N   1      36.460  16.513  10.742  0.00  0.00    -0.271 OA
HETATM   12  N   UNK N   1      34.417  15.650  10.367  0.00  0.00    -0.325 N 
HETATM   13  H   UNK N   1      33.671  15.151  10.773  0.00  0.00     0.169 HD
BRANCH  12  14
HETATM   14  C   UNK N   1      34.206  16.224   9.085  0.00  0.00     0.034 A 
HETATM   15  C   UNK N   1      34.538  15.490   7.942  0.00  0.00     0.029 A 
HETATM   16  C   UNK N   1      34.412  16.065   6.674  0.00  0.00     0.002 A 
HETATM   17  C   UNK N   1      33.982  17.388   6.545  0.00  0.00     0.000 A 
HETATM   18  C   UNK N   1      33.669  18.136   7.683  0.00  0.00     0.002 A 
HETATM   19  C   UNK N   1      33.779  17.556   8.949  0.00  0.00     0.029 A 
ENDBRANCH  12  14
ENDBRANCH   9  10
ENDBRANCH   8   9
ENDBRANCH   5   8
BRANCH   3  20
HETATM   20  C   UNK N   1      36.738  11.515  13.898  0.00  0.00     0.195 C 
HETATM   21  O   UNK N   1      37.950  11.446  13.754  0.00  0.00    -0.287 OA
BRANCH  20  22
HETATM   22  C   UNK N   1      36.221  11.805  15.275  0.00  0.00     0.015 A 
HETATM   23  C   UNK N   1      35.677  13.071  15.548  0.00  0.00     0.015 A 
HETATM   24  C   UNK N   1      35.175  13.374  16.816  0.00  0.00     0.001 A 
HETATM   25  C   UNK N   1      35.208  12.414  17.829  0.00  0.00     0.000 A 
HETATM   26  C   UNK N   1      35.745  11.152  17.573  0.00  0.00     0.001 A 
HETATM   27  C   UNK N   1      36.246  10.850  16.304  0.00  0.00     0.015 A 
ENDBRANCH  20  22
ENDBRANCH   3  20
TORSDOF 6
ENDMDL
MODEL 5
REMARK VINA RESULT:      -6.8     12.114     14.154
REMARK  6 active torsions:
REMARK  status: ('A' for Active; 'I' for Inactive)
REMARK    1  A    between atoms: O_1  and  C_11 
REMARK    2  A    between atoms: O_1  and  C_15 
REMARK    3  A    between atoms: N_5  and  C_16 
REMARK       I    between atoms: N_5  and  C_18 
REMARK    4  A    between atoms: C_7  and  C_10 
REMARK    5  A    between atoms: C_9  and  C_10 
REMARK    6  A    between atoms: C_15  and  C_18 
ROOT
HETATM    1 Cl   UNK N   1      37.537   7.885  12.018  0.00  0.00    -0.084 Cl
HETATM    2  C   UNK N   1      36.455  11.711  11.443  0.00  0.00     0.039 A 
HETATM    3  C   UNK N   1      35.235  10.915  13.399  0.00  0.00     0.050 A 
HETATM    4  C   UNK N   1      35.854   9.666  13.219  0.00  0.00     0.042 A 
HETATM    5  C   UNK N   1      35.559  11.968  12.499  0.00  0.00     0.083 A 
HETATM    6  C   UNK N   1      36.762   9.444  12.185  0.00  0.00     0.035 A 
HETATM    7  C   UNK N   1      37.054  10.464  11.290  0.00  0.00     0.026 A 
ENDROOT
BRANCH   5   8
HETATM    8  O   UNK N   1      35.014  13.210  12.679  0.00  0.00    -0.341 OA
BRANCH   8   9
HETATM    9  C   UNK N   1      35.633  14.458  12.677  0.00  0.00     0.278 C 
BRANCH   9  10
HETATM   10  C   UNK N   1      35.625  15.149  11.348  0.00  0.00     0.246 C 
HETATM   11  O   UNK N   1      36.639  15.165  10.662  0.00  0.00    -0.271 OA
HETATM   12  N   UNK N   1      34.469  15.708  10.908  0.00  0.00    -0.325 N 
HETATM   13  H   UNK N   1      33.743  15.828  11.561  0.00  0.00     0.169 HD
BRANCH  12  14
HETATM   14  C   UNK N   1      34.233  16.132   9.574  0.00  0.00     0.034 A 
HETATM   15  C   UNK N   1      34.588  17.430   9.194  0.00  0.00     0.029 A 
HETATM   16  C   UNK N   1      34.293  17.895   7.908  0.00  0.00     0.002 A 
HETATM   17  C   UNK N   1      33.613  17.072   7.006  0.00  0.00     0.000 A 
HETATM   18  C   UNK N   1      33.235  15.781   7.384  0.00  0.00     0.002 A 
HETATM   19  C   UNK N   1      33.544  15.312   8.663  0.00  0.00     0.029 A 
ENDBRANCH  12  14
ENDBRANCH   9  10
ENDBRANCH   8   9
ENDBRANCH   5   8
BRANCH   3  20
HETATM   20  C   UNK N   1      34.252  11.118  14.524  0.00  0.00     0.195 C 
HETATM   21  O   UNK N   1      33.081  10.817  14.342  0.00  0.00    -0.287 OA
BRANCH  20  22
HETATM   22  C   UNK N   1      34.627  11.647  15.875  0.00  0.00     0.015 A 
HETATM   23  C   UNK N   1      35.017  10.744  16.879  0.00  0.00     0.015 A 
HETATM   24  C   UNK N   1      35.385  11.201  18.147  0.00  0.00     0.001 A 
HETATM   25  C   UNK N   1      35.372  12.569  18.428  0.00  0.00     0.000 A 
HETATM   26  C   UNK N   1      34.988  13.478  17.442  0.00  0.00     0.001 A 
HETATM   27  C   UNK N   1      34.621  13.019  16.174  0.00  0.00     0.015 A 
ENDBRANCH  20  22
ENDBRANCH   3  20
TORSDOF 6
ENDMDL
MODEL 6
REMARK VINA RESULT:      -6.8      2.444      3.249
REMARK  6 active torsions:
REMARK  status: ('A' for Active; 'I' for Inactive)
REMARK    1  A    between atoms: O_1  and  C_11 
REMARK    2  A    between atoms: O_1  and  C_15 
REMARK    3  A    between atoms: N_5  and  C_16 
REMARK       I    between atoms: N_5  and  C_18 
REMARK    4  A    between atoms: C_7  and  C_10 
REMARK    5  A    between atoms: C_9  and  C_10 
REMARK    6  A    between atoms: C_15  and  C_18 
ROOT
HETATM    1 Cl   UNK N   1      18.807  16.972   9.026  0.00  0.00    -0.084 Cl
HETATM    2  C   UNK N   1      21.932  16.759   6.512  0.00  0.00     0.039 A 
HETATM    3  C   UNK N   1      21.809  14.618   7.673  0.00  0.00     0.050 A 
HETATM    4  C   UNK N   1      20.702  15.119   8.379  0.00  0.00     0.042 A 
HETATM    5  C   UNK N   1      22.427  15.455   6.701  0.00  0.00     0.083 A 
HETATM    6  C   UNK N   1      20.210  16.402   8.151  0.00  0.00     0.035 A 
HETATM    7  C   UNK N   1      20.833  17.228   7.225  0.00  0.00     0.026 A 
ENDROOT
BRANCH   5   8
HETATM    8  O   UNK N   1      23.474  14.979   5.960  0.00  0.00    -0.341 OA
BRANCH   8   9
HETATM    9  C   UNK N   1      24.596  15.651   5.481  0.00  0.00     0.278 C 
BRANCH   9  10
HETATM   10  C   UNK N   1      25.746  15.694   6.438  0.00  0.00     0.246 C 
HETATM   11  O   UNK N   1      25.993  14.722   7.140  0.00  0.00    -0.271 OA
HETATM   12  N   UNK N   1      26.528  16.803   6.475  0.00  0.00    -0.325 N 
HETATM   13  H   UNK N   1      26.188  17.615   6.032  0.00  0.00     0.169 HD
BRANCH  12  14
HETATM   14  C   UNK N   1      27.798  16.878   7.104  0.00  0.00     0.034 A 
HETATM   15  C   UNK N   1      27.890  17.383   8.405  0.00  0.00     0.029 A 
HETATM   16  C   UNK N   1      29.139  17.538   9.015  0.00  0.00     0.002 A 
HETATM   17  C   UNK N   1      30.304  17.218   8.313  0.00  0.00     0.000 A 
HETATM   18  C   UNK N   1      30.223  16.734   7.005  0.00  0.00     0.002 A 
HETATM   19  C   UNK N   1      28.975  16.563   6.402  0.00  0.00     0.029 A 
ENDBRANCH  12  14
ENDBRANCH   9  10
ENDBRANCH   8   9
ENDBRANCH   5   8
BRANCH   3  20
HETATM   20  C   UNK N   1      22.319  13.227   7.950  0.00  0.00     0.195 C 
HETATM   21  O   UNK N   1      22.319  12.410   7.039  0.00  0.00    -0.287 OA
BRANCH  20  22
HETATM   22  C   UNK N   1      22.855  12.783   9.276  0.00  0.00     0.015 A 
HETATM   23  C   UNK N   1      24.245  12.731   9.469  0.00  0.00     0.015 A 
HETATM   24  C   UNK N   1      24.781  12.334  10.697  0.00  0.00     0.001 A 
HETATM   25  C   UNK N   1      23.934  11.985  11.750  0.00  0.00     0.000 A 
HETATM   26  C   UNK N   1      22.551  12.032  11.574  0.00  0.00     0.001 A 
HETATM   27  C   UNK N   1      22.016  12.431  10.347  0.00  0.00     0.015 A 
ENDBRANCH  20  22
ENDBRANCH   3  20
TORSDOF 6
ENDMDL
MODEL 7
REMARK VINA RESULT:      -6.7     14.308     16.476
REMARK  6 active torsions:
REMARK  status: ('A' for Active; 'I' for Inactive)
REMARK    1  A    between atoms: O_1  and  C_11 
REMARK    2  A    between atoms: O_1  and  C_15 
REMARK    3  A    between atoms: N_5  and  C_16 
REMARK       I    between atoms: N_5  and  C_18 
REMARK    4  A    between atoms: C_7  and  C_10 
REMARK    5  A    between atoms: C_9  and  C_10 
REMARK    6  A    between atoms: C_15  and  C_18 
ROOT
HETATM    1 Cl   UNK N   1      27.847  28.840  -6.774  0.00  0.00    -0.084 Cl
HETATM    2  C   UNK N   1      28.459  26.209  -3.801  0.00  0.00     0.039 A 
HETATM    3  C   UNK N   1      26.957  25.139  -5.397  0.00  0.00     0.050 A 
HETATM    4  C   UNK N   1      27.011  26.315  -6.164  0.00  0.00     0.042 A 
HETATM    5  C   UNK N   1      27.716  25.079  -4.195  0.00  0.00     0.083 A 
HETATM    6  C   UNK N   1      27.779  27.409  -5.770  0.00  0.00     0.035 A 
HETATM    7  C   UNK N   1      28.495  27.360  -4.582  0.00  0.00     0.026 A 
ENDROOT
BRANCH   5   8
HETATM    8  O   UNK N   1      27.726  23.930  -3.452  0.00  0.00    -0.341 OA
BRANCH   8   9
HETATM    9  C   UNK N   1      28.434  23.634  -2.289  0.00  0.00     0.278 C 
BRANCH   9  10
HETATM   10  C   UNK N   1      29.812  23.097  -2.525  0.00  0.00     0.246 C 
HETATM   11  O   UNK N   1      30.564  22.909  -1.577  0.00  0.00    -0.271 OA
HETATM   12  N   UNK N   1      30.185  22.783  -3.791  0.00  0.00    -0.325 N 
HETATM   13  H   UNK N   1      29.624  23.116  -4.528  0.00  0.00     0.169 HD
BRANCH  12  14
HETATM   14  C   UNK N   1      31.326  22.008  -4.130  0.00  0.00     0.034 A 
HETATM   15  C   UNK N   1      32.543  22.653  -4.377  0.00  0.00     0.029 A 
HETATM   16  C   UNK N   1      33.659  21.918  -4.788  0.00  0.00     0.002 A 
HETATM   17  C   UNK N   1      33.555  20.538  -4.984  0.00  0.00     0.000 A 
HETATM   18  C   UNK N   1      32.337  19.890  -4.760  0.00  0.00     0.002 A 
HETATM   19  C   UNK N   1      31.227  20.621  -4.334  0.00  0.00     0.029 A 
ENDBRANCH  12  14
ENDBRANCH   9  10
ENDBRANCH   8   9
ENDBRANCH   5   8
BRANCH   3  20
HETATM   20  C   UNK N   1      26.111  23.977  -5.850  0.00  0.00     0.195 C 
HETATM   21  O   UNK N   1      24.933  23.945  -5.521  0.00  0.00    -0.287 OA
BRANCH  20  22
HETATM   22  C   UNK N   1      26.619  22.858  -6.707  0.00  0.00     0.015 A 
HETATM   23  C   UNK N   1      28.000  22.609  -6.757  0.00  0.00     0.015 A 
HETATM   24  C   UNK N   1      28.510  21.566  -7.536  0.00  0.00     0.001 A 
HETATM   25  C   UNK N   1      27.644  20.758  -8.275  0.00  0.00     0.000 A 
HETATM   26  C   UNK N   1      26.270  20.993  -8.235  0.00  0.00     0.001 A 
HETATM   27  C   UNK N   1      25.762  22.035  -7.456  0.00  0.00     0.015 A 
ENDBRANCH  20  22
ENDBRANCH   3  20
TORSDOF 6
ENDMDL
MODEL 8
REMARK VINA RESULT:      -6.7     11.585     13.559
REMARK  6 active torsions:
REMARK  status: ('A' for Active; 'I' for Inactive)
REMARK    1  A    between atoms: O_1  and  C_11 
REMARK    2  A    between atoms: O_1  and  C_15 
REMARK    3  A    between atoms: N_5  and  C_16 
REMARK       I    between atoms: N_5  and  C_18 
REMARK    4  A    between atoms: C_7  and  C_10 
REMARK    5  A    between atoms: C_9  and  C_10 
REMARK    6  A    between atoms: C_15  and  C_18 
ROOT
HETATM    1 Cl   UNK N   1      39.149  10.938   9.605  0.00  0.00    -0.084 Cl
HETATM    2  C   UNK N   1      36.548  13.995   9.438  0.00  0.00     0.039 A 
HETATM    3  C   UNK N   1      36.736  13.352  11.782  0.00  0.00     0.050 A 
HETATM    4  C   UNK N   1      37.636  12.348  11.386  0.00  0.00     0.042 A 
HETATM    5  C   UNK N   1      36.194  14.208  10.784  0.00  0.00     0.083 A 
HETATM    6  C   UNK N   1      37.997  12.177  10.051  0.00  0.00     0.035 A 
HETATM    7  C   UNK N   1      37.444  12.994   9.074  0.00  0.00     0.026 A 
ENDROOT
BRANCH   5   8
HETATM    8  O   UNK N   1      35.356  15.228  11.143  0.00  0.00    -0.341 OA
BRANCH   8   9
HETATM    9  C   UNK N   1      35.431  16.585  10.837  0.00  0.00     0.278 C 
BRANCH   9  10
HETATM   10  C   UNK N   1      34.522  17.021   9.730  0.00  0.00     0.246 C 
HETATM   11  O   UNK N   1      34.851  17.944   8.997  0.00  0.00    -0.271 OA
HETATM   12  N   UNK N   1      33.362  16.345   9.531  0.00  0.00    -0.325 N 
HETATM   13  H   UNK N   1      33.059  15.740  10.246  0.00  0.00     0.169 HD
BRANCH  12  14
HETATM   14  C   UNK N   1      32.554  16.449   8.368  0.00  0.00     0.034 A 
HETATM   15  C   UNK N   1      31.369  17.190   8.421  0.00  0.00     0.029 A 
HETATM   16  C   UNK N   1      30.520  17.241   7.311  0.00  0.00     0.002 A 
HETATM   17  C   UNK N   1      30.837  16.525   6.153  0.00  0.00     0.000 A 
HETATM   18  C   UNK N   1      32.008  15.764   6.100  0.00  0.00     0.002 A 
HETATM   19  C   UNK N   1      32.865  15.727   7.203  0.00  0.00     0.029 A 
ENDBRANCH  12  14
ENDBRANCH   9  10
ENDBRANCH   8   9
ENDBRANCH   5   8
BRANCH   3  20
HETATM   20  C   UNK N   1      36.363  13.504  13.235  0.00  0.00     0.195 C 
HETATM   21  O   UNK N   1      36.607  14.564  13.796  0.00  0.00    -0.287 OA
BRANCH  20  22
HETATM   22  C   UNK N   1      35.683  12.439  14.038  0.00  0.00     0.015 A 
HETATM   23  C   UNK N   1      34.563  11.784  13.496  0.00  0.00     0.015 A 
HETATM   24  C   UNK N   1      33.910  10.776  14.211  0.00  0.00     0.001 A 
HETATM   25  C   UNK N   1      34.369  10.407  15.477  0.00  0.00     0.000 A 
HETATM   26  C   UNK N   1      35.479  11.047  16.028  0.00  0.00     0.001 A 
HETATM   27  C   UNK N   1      36.132  12.054  15.312  0.00  0.00     0.015 A 
ENDBRANCH  20  22
ENDBRANCH   3  20
TORSDOF 6
ENDMDL
MODEL 9
REMARK VINA RESULT:      -6.7      3.951      7.676
REMARK  6 active torsions:
REMARK  status: ('A' for Active; 'I' for Inactive)
REMARK    1  A    between atoms: O_1  and  C_11 
REMARK    2  A    between atoms: O_1  and  C_15 
REMARK    3  A    between atoms: N_5  and  C_16 
REMARK       I    between atoms: N_5  and  C_18 
REMARK    4  A    between atoms: C_7  and  C_10 
REMARK    5  A    between atoms: C_9  and  C_10 
REMARK    6  A    between atoms: C_15  and  C_18 
ROOT
HETATM    1 Cl   UNK N   1      20.774  20.384   1.235  0.00  0.00    -0.084 Cl
HETATM    2  C   UNK N   1      21.174  18.597   4.811  0.00  0.00     0.039 A 
HETATM    3  C   UNK N   1      20.596  16.853   3.207  0.00  0.00     0.050 A 
HETATM    4  C   UNK N   1      20.544  17.848   2.215  0.00  0.00     0.042 A 
HETATM    5  C   UNK N   1      20.939  17.237   4.534  0.00  0.00     0.083 A 
HETATM    6  C   UNK N   1      20.814  19.184   2.507  0.00  0.00     0.035 A 
HETATM    7  C   UNK N   1      21.118  19.560   3.808  0.00  0.00     0.026 A 
ENDROOT
BRANCH   5   8
HETATM    8  O   UNK N   1      21.048  16.285   5.511  0.00  0.00    -0.341 OA
BRANCH   8   9
HETATM    9  C   UNK N   1      20.194  16.007   6.575  0.00  0.00     0.278 C 
BRANCH   9  10
HETATM   10  C   UNK N   1      20.887  15.544   7.819  0.00  0.00     0.246 C 
HETATM   11  O   UNK N   1      20.945  16.280   8.795  0.00  0.00    -0.271 OA
HETATM   12  N   UNK N   1      21.399  14.288   7.855  0.00  0.00    -0.325 N 
HETATM   13  H   UNK N   1      21.488  13.807   7.001  0.00  0.00     0.169 HD
BRANCH  12  14
HETATM   14  C   UNK N   1      21.816  13.617   9.035  0.00  0.00     0.034 A 
HETATM   15  C   UNK N   1      23.166  13.287   9.195  0.00  0.00     0.029 A 
HETATM   16  C   UNK N   1      23.586  12.558  10.312  0.00  0.00     0.002 A 
HETATM   17  C   UNK N   1      22.652  12.130  11.260  0.00  0.00     0.000 A 
HETATM   18  C   UNK N   1      21.299  12.437  11.097  0.00  0.00     0.002 A 
HETATM   19  C   UNK N   1      20.882  13.179   9.989  0.00  0.00     0.029 A 
ENDBRANCH  12  14
ENDBRANCH   9  10
ENDBRANCH   8   9
ENDBRANCH   5   8
BRANCH   3  20
HETATM   20  C   UNK N   1      20.293  15.419   2.858  0.00  0.00     0.195 C 
HETATM   21  O   UNK N   1      19.289  14.899   3.327  0.00  0.00    -0.287 OA
BRANCH  20  22
HETATM   22  C   UNK N   1      21.138  14.586   1.943  0.00  0.00     0.015 A 
HETATM   23  C   UNK N   1      22.500  14.898   1.798  0.00  0.00     0.015 A 
HETATM   24  C   UNK N   1      23.322  14.136   0.963  0.00  0.00     0.001 A 
HETATM   25  C   UNK N   1      22.793  13.050   0.262  0.00  0.00     0.000 A 
HETATM   26  C   UNK N   1      21.443  12.728   0.397  0.00  0.00     0.001 A 
HETATM   27  C   UNK N   1      20.622  13.489   1.232  0.00  0.00     0.015 A 
ENDBRANCH  20  22
ENDBRANCH   3  20
TORSDOF 6
ENDMDL
