MODEL 1
REMARK VINA RESULT:      -8.8      0.000      0.000
REMARK  7 active torsions:
REMARK  status: ('A' for Active; 'I' for Inactive)
REMARK    1  A    between atoms: C_2  and  N_19 
REMARK    2  A    between atoms: C_2  and  C_12 
REMARK    3  A    between atoms: C_5  and  C_6 
REMARK    4  A    between atoms: C_7  and  C_14 
REMARK    5  A    between atoms: C_11  and  C_27 
REMARK    6  A    between atoms: C_14  and  O_17 
REMARK    7  A    between atoms: C_15  and  C_27 
ROOT
HETATM    1  N   UNK N   1      34.282  13.530   7.879  0.00  0.00    -0.303 N 
HETATM    2  C   UNK N   1      34.361  15.923   9.277  0.00  0.00     0.264 A 
HETATM    3  C   UNK N   1      35.294  12.401  11.264  0.00  0.00     0.023 A 
HETATM    4  C   UNK N   1      35.343  13.663  11.881  0.00  0.00     0.018 A 
HETATM    5  C   UNK N   1      34.650  14.737   9.897  0.00  0.00     0.061 A 
HETATM    6  N   UNK N   1      34.010  15.937   7.964  0.00  0.00    -0.261 N 
HETATM    7  O   UNK N   1      34.422  16.971   9.912  0.00  0.00    -0.267 OA
HETATM    8  C   UNK N   1      34.597  13.520   9.207  0.00  0.00     0.054 A 
HETATM    9  C   UNK N   1      34.898  12.327   9.911  0.00  0.00     0.032 A 
HETATM   10  C   UNK N   1      34.242  12.279   7.119  0.00  0.00     0.161 C 
HETATM   11  C   UNK N   1      34.008  14.730   7.241  0.00  0.00     0.332 A 
HETATM   12  O   UNK N   1      33.771  14.721   6.044  0.00  0.00    -0.246 OA
HETATM   13  C   UNK N   1      35.011  14.782  11.205  0.00  0.00     0.040 A 
ENDROOT
BRANCH   6  14
HETATM   14  C   UNK N   1      33.645  17.276   7.452  0.00  0.00     0.175 C 
BRANCH  14  15
HETATM   15  C   UNK N   1      32.223  17.584   7.551  0.00  0.00    -0.040 A 
HETATM   16  C   UNK N   1      31.374  17.014   6.617  0.00  0.00     0.010 A 
HETATM   17  C   UNK N   1      30.007  17.051   6.830  0.00  0.00     0.019 A 
HETATM   18  C   UNK N   1      29.497  17.634   7.994  0.00  0.00     0.037 A 
HETATM   19  C   UNK N   1      30.356  18.281   8.895  0.00  0.00     0.019 A 
HETATM   20  C   UNK N   1      31.727  18.272   8.664  0.00  0.00     0.010 A 
BRANCH  18  21
HETATM   21  C   UNK N   1      28.078  17.465   8.304  0.00  0.00     0.176 C 
HETATM   22  O   UNK N   1      27.382  16.732   7.620  0.00  0.00    -0.646 OA
BRANCH  21  23
HETATM   23  O   UNK N   1      27.517  18.191   9.288  0.00  0.00    -0.773 OA
HETATM   24  H   UNK N   1      27.692  18.782   9.995  0.00  0.00     0.167 HD
ENDBRANCH  21  23
ENDBRANCH  18  21
ENDBRANCH  14  15
ENDBRANCH   6  14
BRANCH   4  25
HETATM   25  C   UNK N   1      35.927  13.951  13.117  0.00  0.00    -0.067 C 
HETATM   26  C   UNK N   1      36.295  14.066  14.245  0.00  0.00    -0.097 C 
BRANCH  26  27
HETATM   27  C   UNK N   1      36.898  14.429  15.506  0.00  0.00     0.132 C 
BRANCH  27  28
HETATM   28  C   UNK N   1      36.149  13.561  16.442  0.00  0.00    -0.047 A 
HETATM   29  C   UNK N   1      36.128  12.190  16.217  0.00  0.00     0.008 A 
HETATM   30  C   UNK N   1      35.612  11.339  17.193  0.00  0.00     0.001 A 
HETATM   31  C   UNK N   1      35.153  11.858  18.409  0.00  0.00     0.000 A 
HETATM   32  C   UNK N   1      35.165  13.234  18.639  0.00  0.00     0.001 A 
HETATM   33  C   UNK N   1      35.654  14.087  17.656  0.00  0.00     0.008 A 
ENDBRANCH  27  28
ENDBRANCH  26  27
ENDBRANCH   4  25
TORSDOF 7
ENDMDL
MODEL 2
REMARK VINA RESULT:      -8.8      8.986     13.062
REMARK  7 active torsions:
REMARK  status: ('A' for Active; 'I' for Inactive)
REMARK    1  A    between atoms: C_2  and  N_19 
REMARK    2  A    between atoms: C_2  and  C_12 
REMARK    3  A    between atoms: C_5  and  C_6 
REMARK    4  A    between atoms: C_7  and  C_14 
REMARK    5  A    between atoms: C_11  and  C_27 
REMARK    6  A    between atoms: C_14  and  O_17 
REMARK    7  A    between atoms: C_15  and  C_27 
ROOT
HETATM    1  N   UNK N   1      20.529  15.366   5.557  0.00  0.00    -0.303 N 
HETATM    2  C   UNK N   1      23.184  14.827   6.149  0.00  0.00     0.264 A 
HETATM    3  C   UNK N   1      22.233  18.379   4.226  0.00  0.00     0.023 A 
HETATM    4  C   UNK N   1      23.545  18.039   4.598  0.00  0.00     0.018 A 
HETATM    5  C   UNK N   1      22.828  15.981   5.505  0.00  0.00     0.061 A 
HETATM    6  N   UNK N   1      22.234  13.916   6.490  0.00  0.00    -0.261 N 
HETATM    7  O   UNK N   1      24.363  14.620   6.417  0.00  0.00    -0.267 OA
HETATM    8  C   UNK N   1      21.493  16.257   5.185  0.00  0.00     0.054 A 
HETATM    9  C   UNK N   1      21.193  17.466   4.508  0.00  0.00     0.032 A 
HETATM   10  C   UNK N   1      19.121  15.633   5.262  0.00  0.00     0.161 C 
HETATM   11  C   UNK N   1      20.882  14.204   6.228  0.00  0.00     0.332 A 
HETATM   12  O   UNK N   1      20.001  13.442   6.590  0.00  0.00    -0.246 OA
HETATM   13  C   UNK N   1      23.814  16.864   5.203  0.00  0.00     0.040 A 
ENDROOT
BRANCH   6  14
HETATM   14  C   UNK N   1      22.773  12.683   7.103  0.00  0.00     0.175 C 
BRANCH  14  15
HETATM   15  C   UNK N   1      22.933  12.757   8.550  0.00  0.00    -0.040 A 
HETATM   16  C   UNK N   1      21.786  12.845   9.321  0.00  0.00     0.010 A 
HETATM   17  C   UNK N   1      21.869  12.642  10.687  0.00  0.00     0.019 A 
HETATM   18  C   UNK N   1      23.097  12.324  11.273  0.00  0.00     0.037 A 
HETATM   19  C   UNK N   1      24.268  12.318  10.500  0.00  0.00     0.019 A 
HETATM   20  C   UNK N   1      24.189  12.553   9.132  0.00  0.00     0.010 A 
BRANCH  18  21
HETATM   21  C   UNK N   1      23.122  11.897  12.671  0.00  0.00     0.176 C 
HETATM   22  O   UNK N   1      24.033  12.246  13.405  0.00  0.00    -0.646 OA
BRANCH  21  23
HETATM   23  O   UNK N   1      22.189  11.040  13.127  0.00  0.00    -0.773 OA
HETATM   24  H   UNK N   1      21.692  10.783  13.879  0.00  0.00     0.167 HD
ENDBRANCH  21  23
ENDBRANCH  18  21
ENDBRANCH  14  15
ENDBRANCH   6  14
BRANCH   4  25
HETATM   25  C   UNK N   1      24.644  18.901   4.613  0.00  0.00    -0.067 C 
HETATM   26  C   UNK N   1      25.462  19.765   4.536  0.00  0.00    -0.097 C 
BRANCH  26  27
HETATM   27  C   UNK N   1      26.637  20.603   4.533  0.00  0.00     0.132 C 
BRANCH  27  28
HETATM   28  C   UNK N   1      27.560  19.806   5.373  0.00  0.00    -0.047 A 
HETATM   29  C   UNK N   1      27.519  19.966   6.753  0.00  0.00     0.008 A 
HETATM   30  C   UNK N   1      28.222  19.081   7.569  0.00  0.00     0.001 A 
HETATM   31  C   UNK N   1      28.933  18.015   7.007  0.00  0.00     0.000 A 
HETATM   32  C   UNK N   1      28.982  17.853   5.622  0.00  0.00     0.001 A 
HETATM   33  C   UNK N   1      28.305  18.750   4.804  0.00  0.00     0.008 A 
ENDBRANCH  27  28
ENDBRANCH  26  27
ENDBRANCH   4  25
TORSDOF 7
ENDMDL
MODEL 3
REMARK VINA RESULT:      -8.6      1.578      2.096
REMARK  7 active torsions:
REMARK  status: ('A' for Active; 'I' for Inactive)
REMARK    1  A    between atoms: C_2  and  N_19 
REMARK    2  A    between atoms: C_2  and  C_12 
REMARK    3  A    between atoms: C_5  and  C_6 
REMARK    4  A    between atoms: C_7  and  C_14 
REMARK    5  A    between atoms: C_11  and  C_27 
REMARK    6  A    between atoms: C_14  and  O_17 
REMARK    7  A    between atoms: C_15  and  C_27 
ROOT
HETATM    1  N   UNK N   1      35.874  14.143   7.602  0.00  0.00    -0.303 N 
HETATM    2  C   UNK N   1      34.947  16.257   9.138  0.00  0.00     0.264 A 
HETATM    3  C   UNK N   1      36.527  12.927  11.044  0.00  0.00     0.023 A 
HETATM    4  C   UNK N   1      36.068  14.059  11.739  0.00  0.00     0.018 A 
HETATM    5  C   UNK N   1      35.465  15.135   9.726  0.00  0.00     0.061 A 
HETATM    6  N   UNK N   1      34.863  16.339   7.784  0.00  0.00    -0.261 N 
HETATM    7  O   UNK N   1      34.561  17.187   9.838  0.00  0.00    -0.267 OA
HETATM    8  C   UNK N   1      35.920  14.054   8.963  0.00  0.00     0.054 A 
HETATM    9  C   UNK N   1      36.436  12.917   9.635  0.00  0.00     0.032 A 
HETATM   10  C   UNK N   1      36.365  13.043   6.770  0.00  0.00     0.161 C 
HETATM   11  C   UNK N   1      35.369  15.286   7.000  0.00  0.00     0.332 A 
HETATM   12  O   UNK N   1      35.377  15.364   5.782  0.00  0.00    -0.246 OA
HETATM   13  C   UNK N   1      35.541  15.113  11.081  0.00  0.00     0.040 A 
ENDROOT
BRANCH   6  14
HETATM   14  C   UNK N   1      34.206  17.570   7.294  0.00  0.00     0.175 C 
BRANCH  14  15
HETATM   15  C   UNK N   1      32.997  17.331   6.515  0.00  0.00    -0.040 A 
HETATM   16  C   UNK N   1      31.823  17.084   7.207  0.00  0.00     0.010 A 
HETATM   17  C   UNK N   1      30.616  17.125   6.532  0.00  0.00     0.019 A 
HETATM   18  C   UNK N   1      30.587  17.441   5.171  0.00  0.00     0.037 A 
HETATM   19  C   UNK N   1      31.783  17.609   4.458  0.00  0.00     0.019 A 
HETATM   20  C   UNK N   1      32.998  17.536   5.130  0.00  0.00     0.010 A 
BRANCH  18  21
HETATM   21  C   UNK N   1      29.295  17.696   4.534  0.00  0.00     0.176 C 
HETATM   22  O   UNK N   1      28.391  18.221   5.163  0.00  0.00    -0.646 OA
BRANCH  21  23
HETATM   23  O   UNK N   1      29.072  17.267   3.277  0.00  0.00    -0.773 OA
HETATM   24  H   UNK N   1      28.432  16.898   2.700  0.00  0.00     0.167 HD
ENDBRANCH  21  23
ENDBRANCH  18  21
ENDBRANCH  14  15
ENDBRANCH   6  14
BRANCH   4  25
HETATM   25  C   UNK N   1      36.291  14.341  13.089  0.00  0.00    -0.067 C 
HETATM   26  C   UNK N   1      36.557  14.399  14.249  0.00  0.00    -0.097 C 
BRANCH  26  27
HETATM   27  C   UNK N   1      36.725  14.718  15.647  0.00  0.00     0.132 C 
BRANCH  27  28
HETATM   28  C   UNK N   1      36.099  13.538  16.287  0.00  0.00    -0.047 A 
HETATM   29  C   UNK N   1      36.367  12.275  15.775  0.00  0.00     0.008 A 
HETATM   30  C   UNK N   1      35.963  11.145  16.484  0.00  0.00     0.001 A 
HETATM   31  C   UNK N   1      35.325  11.279  17.722  0.00  0.00     0.000 A 
HETATM   32  C   UNK N   1      35.048  12.545  18.239  0.00  0.00     0.001 A 
HETATM   33  C   UNK N   1      35.425  13.674  17.521  0.00  0.00     0.008 A 
ENDBRANCH  27  28
ENDBRANCH  26  27
ENDBRANCH   4  25
TORSDOF 7
ENDMDL
MODEL 4
REMARK VINA RESULT:      -8.6      3.800      9.644
REMARK  7 active torsions:
REMARK  status: ('A' for Active; 'I' for Inactive)
REMARK    1  A    between atoms: C_2  and  N_19 
REMARK    2  A    between atoms: C_2  and  C_12 
REMARK    3  A    between atoms: C_5  and  C_6 
REMARK    4  A    between atoms: C_7  and  C_14 
REMARK    5  A    between atoms: C_11  and  C_27 
REMARK    6  A    between atoms: C_14  and  O_17 
REMARK    7  A    between atoms: C_15  and  C_27 
ROOT
HETATM    1  N   UNK N   1      34.671  10.569  11.761  0.00  0.00    -0.303 N 
HETATM    2  C   UNK N   1      36.101  12.784  12.620  0.00  0.00     0.264 A 
HETATM    3  C   UNK N   1      34.075  12.976   9.004  0.00  0.00     0.023 A 
HETATM    4  C   UNK N   1      34.794  14.061   9.535  0.00  0.00     0.018 A 
HETATM    5  C   UNK N   1      35.429  12.800  11.428  0.00  0.00     0.061 A 
HETATM    6  N   UNK N   1      36.091  11.665  13.392  0.00  0.00    -0.261 N 
HETATM    7  O   UNK N   1      36.711  13.783  12.987  0.00  0.00    -0.267 OA
HETATM    8  C   UNK N   1      34.717  11.684  10.975  0.00  0.00     0.054 A 
HETATM    9  C   UNK N   1      34.050  11.764   9.727  0.00  0.00     0.032 A 
HETATM   10  C   UNK N   1      33.915   9.391  11.332  0.00  0.00     0.161 C 
HETATM   11  C   UNK N   1      35.334  10.554  12.980  0.00  0.00     0.332 A 
HETATM   12  O   UNK N   1      35.244   9.564  13.687  0.00  0.00    -0.246 OA
HETATM   13  C   UNK N   1      35.457  13.949  10.705  0.00  0.00     0.040 A 
ENDROOT
BRANCH   6  14
HETATM   14  C   UNK N   1      36.928  11.764  14.607  0.00  0.00     0.175 C 
BRANCH  14  15
HETATM   15  C   UNK N   1      36.169  11.907  15.843  0.00  0.00    -0.040 A 
HETATM   16  C   UNK N   1      36.204  10.857  16.747  0.00  0.00     0.010 A 
HETATM   17  C   UNK N   1      35.735  11.053  18.034  0.00  0.00     0.019 A 
HETATM   18  C   UNK N   1      35.257  12.308  18.420  0.00  0.00     0.037 A 
HETATM   19  C   UNK N   1      35.147  13.343  17.479  0.00  0.00     0.019 A 
HETATM   20  C   UNK N   1      35.589  13.136  16.177  0.00  0.00     0.010 A 
BRANCH  18  21
HETATM   21  C   UNK N   1      34.977  12.552  19.834  0.00  0.00     0.176 C 
HETATM   22  O   UNK N   1      34.683  13.672  20.220  0.00  0.00    -0.646 OA
BRANCH  21  23
HETATM   23  O   UNK N   1      35.135  11.558  20.729  0.00  0.00    -0.773 OA
HETATM   24  H   UNK N   1      35.764  11.011  21.156  0.00  0.00     0.167 HD
ENDBRANCH  21  23
ENDBRANCH  18  21
ENDBRANCH  14  15
ENDBRANCH   6  14
BRANCH   4  25
HETATM   25  C   UNK N   1      34.737  15.383   9.088  0.00  0.00    -0.067 C 
HETATM   26  C   UNK N   1      34.642  16.555   8.894  0.00  0.00    -0.097 C 
BRANCH  26  27
HETATM   27  C   UNK N   1      34.550  17.900   8.376  0.00  0.00     0.132 C 
BRANCH  27  28
HETATM   28  C   UNK N   1      33.400  17.773   7.452  0.00  0.00    -0.047 A 
HETATM   29  C   UNK N   1      33.643  17.554   6.102  0.00  0.00     0.008 A 
HETATM   30  C   UNK N   1      32.586  17.222   5.256  0.00  0.00     0.001 A 
HETATM   31  C   UNK N   1      31.292  17.074   5.770  0.00  0.00     0.000 A 
HETATM   32  C   UNK N   1      31.041  17.299   7.123  0.00  0.00     0.001 A 
HETATM   33  C   UNK N   1      32.089  17.656   7.964  0.00  0.00     0.008 A 
ENDBRANCH  27  28
ENDBRANCH  26  27
ENDBRANCH   4  25
TORSDOF 7
ENDMDL
MODEL 5
REMARK VINA RESULT:      -8.2      6.771     10.566
REMARK  7 active torsions:
REMARK  status: ('A' for Active; 'I' for Inactive)
REMARK    1  A    between atoms: C_2  and  N_19 
REMARK    2  A    between atoms: C_2  and  C_12 
REMARK    3  A    between atoms: C_5  and  C_6 
REMARK    4  A    between atoms: C_7  and  C_14 
REMARK    5  A    between atoms: C_11  and  C_27 
REMARK    6  A    between atoms: C_14  and  O_17 
REMARK    7  A    between atoms: C_15  and  C_27 
ROOT
HETATM    1  N   UNK N   1      24.104  17.113   5.198  0.00  0.00    -0.303 N 
HETATM    2  C   UNK N   1      25.791  14.941   5.555  0.00  0.00     0.264 A 
HETATM    3  C   UNK N   1      27.344  18.459   3.994  0.00  0.00     0.023 A 
HETATM    4  C   UNK N   1      28.130  17.321   4.243  0.00  0.00     0.018 A 
HETATM    5  C   UNK N   1      26.259  16.116   5.031  0.00  0.00     0.061 A 
HETATM    6  N   UNK N   1      24.479  14.820   5.889  0.00  0.00    -0.261 N 
HETATM    7  O   UNK N   1      26.560  14.001   5.720  0.00  0.00    -0.267 OA
HETATM    8  C   UNK N   1      25.415  17.214   4.831  0.00  0.00     0.054 A 
HETATM    9  C   UNK N   1      25.961  18.399   4.276  0.00  0.00     0.032 A 
HETATM   10  C   UNK N   1      23.197  18.249   5.026  0.00  0.00     0.161 C 
HETATM   11  C   UNK N   1      23.629  15.931   5.747  0.00  0.00     0.332 A 
HETATM   12  O   UNK N   1      22.465  15.876   6.109  0.00  0.00    -0.246 OA
HETATM   13  C   UNK N   1      27.581  16.189   4.732  0.00  0.00     0.040 A 
ENDROOT
BRANCH   6  14
HETATM   14  C   UNK N   1      24.099  13.470   6.361  0.00  0.00     0.175 C 
BRANCH  14  15
HETATM   15  C   UNK N   1      23.855  13.388   7.795  0.00  0.00    -0.040 A 
HETATM   16  C   UNK N   1      22.557  13.150   8.216  0.00  0.00     0.010 A 
HETATM   17  C   UNK N   1      22.324  12.794   9.533  0.00  0.00     0.019 A 
HETATM   18  C   UNK N   1      23.397  12.650  10.417  0.00  0.00     0.037 A 
HETATM   19  C   UNK N   1      24.700  12.972  10.008  0.00  0.00     0.019 A 
HETATM   20  C   UNK N   1      24.929  13.361   8.693  0.00  0.00     0.010 A 
BRANCH  18  21
HETATM   21  C   UNK N   1      23.152  12.060  11.733  0.00  0.00     0.176 C 
HETATM   22  O   UNK N   1      24.074  11.893  12.515  0.00  0.00    -0.646 OA
BRANCH  21  23
HETATM   23  O   UNK N   1      21.921  11.614  12.048  0.00  0.00    -0.773 OA
HETATM   24  H   UNK N   1      21.432  11.086  12.649  0.00  0.00     0.167 HD
ENDBRANCH  21  23
ENDBRANCH  18  21
ENDBRANCH  14  15
ENDBRANCH   6  14
BRANCH   4  25
HETATM   25  C   UNK N   1      29.526  17.272   4.249  0.00  0.00    -0.067 C 
HETATM   26  C   UNK N   1      30.703  17.312   4.433  0.00  0.00    -0.097 C 
BRANCH  26  27
HETATM   27  C   UNK N   1      32.145  17.283   4.374  0.00  0.00     0.132 C 
BRANCH  27  28
HETATM   28  C   UNK N   1      32.490  17.269   5.814  0.00  0.00    -0.047 A 
HETATM   29  C   UNK N   1      33.787  17.591   6.197  0.00  0.00     0.008 A 
HETATM   30  C   UNK N   1      34.076  17.790   7.546  0.00  0.00     0.001 A 
HETATM   31  C   UNK N   1      33.061  17.704   8.505  0.00  0.00     0.000 A 
HETATM   32  C   UNK N   1      31.759  17.375   8.127  0.00  0.00     0.001 A 
HETATM   33  C   UNK N   1      31.473  17.149   6.786  0.00  0.00     0.008 A 
ENDBRANCH  27  28
ENDBRANCH  26  27
ENDBRANCH   4  25
TORSDOF 7
ENDMDL
MODEL 6
REMARK VINA RESULT:      -8.0     16.486     19.725
REMARK  7 active torsions:
REMARK  status: ('A' for Active; 'I' for Inactive)
REMARK    1  A    between atoms: C_2  and  N_19 
REMARK    2  A    between atoms: C_2  and  C_12 
REMARK    3  A    between atoms: C_5  and  C_6 
REMARK    4  A    between atoms: C_7  and  C_14 
REMARK    5  A    between atoms: C_11  and  C_27 
REMARK    6  A    between atoms: C_14  and  O_17 
REMARK    7  A    between atoms: C_15  and  C_27 
ROOT
HETATM    1  N   UNK N   1      26.923  23.020  -7.824  0.00  0.00    -0.303 N 
HETATM    2  C   UNK N   1      27.236  24.084  -5.282  0.00  0.00     0.264 A 
HETATM    3  C   UNK N   1      29.830  21.102  -6.549  0.00  0.00     0.023 A 
HETATM    4  C   UNK N   1      29.936  21.724  -5.293  0.00  0.00     0.018 A 
HETATM    5  C   UNK N   1      28.062  23.090  -5.735  0.00  0.00     0.061 A 
HETATM    6  N   UNK N   1      26.233  24.548  -6.073  0.00  0.00    -0.261 N 
HETATM    7  O   UNK N   1      27.407  24.551  -4.161  0.00  0.00    -0.267 OA
HETATM    8  C   UNK N   1      27.904  22.534  -7.010  0.00  0.00     0.054 A 
HETATM    9  C   UNK N   1      28.787  21.501  -7.414  0.00  0.00     0.032 A 
HETATM   10  C   UNK N   1      26.745  22.480  -9.173  0.00  0.00     0.161 C 
HETATM   11  C   UNK N   1      26.096  24.041  -7.377  0.00  0.00     0.332 A 
HETATM   12  O   UNK N   1      25.254  24.491  -8.136  0.00  0.00    -0.246 OA
HETATM   13  C   UNK N   1      29.058  22.675  -4.912  0.00  0.00     0.040 A 
ENDROOT
BRANCH   6  14
HETATM   14  C   UNK N   1      25.371  25.558  -5.421  0.00  0.00     0.175 C 
BRANCH  14  15
HETATM   15  C   UNK N   1      25.878  26.922  -5.512  0.00  0.00    -0.040 A 
HETATM   16  C   UNK N   1      25.624  27.776  -4.452  0.00  0.00     0.010 A 
HETATM   17  C   UNK N   1      26.309  28.976  -4.367  0.00  0.00     0.019 A 
HETATM   18  C   UNK N   1      27.268  29.302  -5.330  0.00  0.00     0.037 A 
HETATM   19  C   UNK N   1      27.462  28.473  -6.444  0.00  0.00     0.019 A 
HETATM   20  C   UNK N   1      26.750  27.283  -6.546  0.00  0.00     0.010 A 
BRANCH  18  21
HETATM   21  C   UNK N   1      28.131  30.460  -5.100  0.00  0.00     0.176 C 
HETATM   22  O   UNK N   1      28.887  30.848  -5.977  0.00  0.00    -0.646 OA
BRANCH  21  23
HETATM   23  O   UNK N   1      28.163  31.042  -3.887  0.00  0.00    -0.773 OA
HETATM   24  H   UNK N   1      28.726  31.373  -3.214  0.00  0.00     0.167 HD
ENDBRANCH  21  23
ENDBRANCH  18  21
ENDBRANCH  14  15
ENDBRANCH   6  14
BRANCH   4  25
HETATM   25  C   UNK N   1      31.021  21.630  -4.418  0.00  0.00    -0.067 C 
HETATM   26  C   UNK N   1      31.950  21.359  -3.723  0.00  0.00    -0.097 C 
BRANCH  26  27
HETATM   27  C   UNK N   1      33.037  21.300  -2.775  0.00  0.00     0.132 C 
BRANCH  27  28
HETATM   28  C   UNK N   1      34.021  20.480  -3.518  0.00  0.00    -0.047 A 
HETATM   29  C   UNK N   1      33.663  19.198  -3.916  0.00  0.00     0.008 A 
HETATM   30  C   UNK N   1      34.487  18.493  -4.792  0.00  0.00     0.001 A 
HETATM   31  C   UNK N   1      35.649  19.086  -5.298  0.00  0.00     0.000 A 
HETATM   32  C   UNK N   1      36.017  20.371  -4.897  0.00  0.00     0.001 A 
HETATM   33  C   UNK N   1      35.211  21.066  -4.002  0.00  0.00     0.008 A 
ENDBRANCH  27  28
ENDBRANCH  26  27
ENDBRANCH   4  25
TORSDOF 7
ENDMDL
MODEL 7
REMARK VINA RESULT:      -7.8      2.039      3.234
REMARK  7 active torsions:
REMARK  status: ('A' for Active; 'I' for Inactive)
REMARK    1  A    between atoms: C_2  and  N_19 
REMARK    2  A    between atoms: C_2  and  C_12 
REMARK    3  A    between atoms: C_5  and  C_6 
REMARK    4  A    between atoms: C_7  and  C_14 
REMARK    5  A    between atoms: C_11  and  C_27 
REMARK    6  A    between atoms: C_14  and  O_17 
REMARK    7  A    between atoms: C_15  and  C_27 
ROOT
HETATM    1  N   UNK N   1      34.654  11.594   9.102  0.00  0.00    -0.303 N 
HETATM    2  C   UNK N   1      34.877  13.371  11.219  0.00  0.00     0.264 A 
HETATM    3  C   UNK N   1      34.224   9.353  12.025  0.00  0.00     0.023 A 
HETATM    4  C   UNK N   1      34.387  10.319  13.034  0.00  0.00     0.018 A 
HETATM    5  C   UNK N   1      34.649  12.040  11.440  0.00  0.00     0.061 A 
HETATM    6  N   UNK N   1      34.976  13.843   9.948  0.00  0.00    -0.261 N 
HETATM    7  O   UNK N   1      34.990  14.135  12.172  0.00  0.00    -0.267 OA
HETATM    8  C   UNK N   1      34.518  11.135  10.380  0.00  0.00     0.054 A 
HETATM    9  C   UNK N   1      34.274   9.771  10.677  0.00  0.00     0.032 A 
HETATM   10  C   UNK N   1      34.549  10.673   7.969  0.00  0.00     0.161 C 
HETATM   11  C   UNK N   1      34.905  12.939   8.873  0.00  0.00     0.332 A 
HETATM   12  O   UNK N   1      35.066  13.321   7.725  0.00  0.00    -0.246 OA
HETATM   13  C   UNK N   1      34.575  11.619  12.728  0.00  0.00     0.040 A 
ENDROOT
BRANCH   6  14
HETATM   14  C   UNK N   1      35.137  15.311   9.861  0.00  0.00     0.175 C 
BRANCH  14  15
HETATM   15  C   UNK N   1      34.079  15.982   9.116  0.00  0.00    -0.040 A 
HETATM   16  C   UNK N   1      34.454  16.865   8.117  0.00  0.00     0.010 A 
HETATM   17  C   UNK N   1      33.506  17.309   7.212  0.00  0.00     0.019 A 
HETATM   18  C   UNK N   1      32.190  16.845   7.295  0.00  0.00     0.037 A 
HETATM   19  C   UNK N   1      31.797  16.017   8.357  0.00  0.00     0.019 A 
HETATM   20  C   UNK N   1      32.744  15.597   9.285  0.00  0.00     0.010 A 
BRANCH  18  21
HETATM   21  C   UNK N   1      31.265  17.150   6.204  0.00  0.00     0.176 C 
HETATM   22  O   UNK N   1      31.689  17.379   5.083  0.00  0.00    -0.646 OA
BRANCH  21  23
HETATM   23  O   UNK N   1      29.948  17.271   6.457  0.00  0.00    -0.773 OA
HETATM   24  H   UNK N   1      29.285  17.845   6.789  0.00  0.00     0.167 HD
ENDBRANCH  21  23
ENDBRANCH  18  21
ENDBRANCH  14  15
ENDBRANCH   6  14
BRANCH   4  25
HETATM   25  C   UNK N   1      34.599  10.062  14.390  0.00  0.00    -0.067 C 
HETATM   26  C   UNK N   1      34.717  10.028  15.576  0.00  0.00    -0.097 C 
BRANCH  26  27
HETATM   27  C   UNK N   1      34.996   9.733  16.962  0.00  0.00     0.132 C 
BRANCH  27  28
HETATM   28  C   UNK N   1      35.226  11.092  17.504  0.00  0.00    -0.047 A 
HETATM   29  C   UNK N   1      35.206  12.174  16.633  0.00  0.00     0.008 A 
HETATM   30  C   UNK N   1      35.209  13.470  17.146  0.00  0.00     0.001 A 
HETATM   31  C   UNK N   1      35.194  13.681  18.529  0.00  0.00     0.000 A 
HETATM   32  C   UNK N   1      35.220  12.598  19.408  0.00  0.00     0.001 A 
HETATM   33  C   UNK N   1      35.245  11.305  18.899  0.00  0.00     0.008 A 
ENDBRANCH  27  28
ENDBRANCH  26  27
ENDBRANCH   4  25
TORSDOF 7
ENDMDL
MODEL 8
REMARK VINA RESULT:      -7.8      5.453     12.348
REMARK  7 active torsions:
REMARK  status: ('A' for Active; 'I' for Inactive)
REMARK    1  A    between atoms: C_2  and  N_19 
REMARK    2  A    between atoms: C_2  and  C_12 
REMARK    3  A    between atoms: C_5  and  C_6 
REMARK    4  A    between atoms: C_7  and  C_14 
REMARK    5  A    between atoms: C_11  and  C_27 
REMARK    6  A    between atoms: C_14  and  O_17 
REMARK    7  A    between atoms: C_15  and  C_27 
ROOT
HETATM    1  N   UNK N   1      29.423  14.862   2.758  0.00  0.00    -0.303 N 
HETATM    2  C   UNK N   1      29.124  17.293   4.057  0.00  0.00     0.264 A 
HETATM    3  C   UNK N   1      25.737  15.262   2.783  0.00  0.00     0.023 A 
HETATM    4  C   UNK N   1      25.680  16.481   3.482  0.00  0.00     0.018 A 
HETATM    5  C   UNK N   1      28.034  16.596   3.610  0.00  0.00     0.061 A 
HETATM    6  N   UNK N   1      30.376  16.806   3.849  0.00  0.00    -0.261 N 
HETATM    7  O   UNK N   1      28.965  18.357   4.646  0.00  0.00    -0.267 OA
HETATM    8  C   UNK N   1      28.173  15.376   2.938  0.00  0.00     0.054 A 
HETATM    9  C   UNK N   1      27.003  14.710   2.492  0.00  0.00     0.032 A 
HETATM   10  C   UNK N   1      29.605  13.576   2.082  0.00  0.00     0.161 C 
HETATM   11  C   UNK N   1      30.530  15.554   3.227  0.00  0.00     0.332 A 
HETATM   12  O   UNK N   1      31.636  15.056   3.095  0.00  0.00    -0.246 OA
HETATM   13  C   UNK N   1      26.807  17.120   3.859  0.00  0.00     0.040 A 
ENDROOT
BRANCH   6  14
HETATM   14  C   UNK N   1      31.457  17.704   4.310  0.00  0.00     0.175 C 
BRANCH  14  15
HETATM   15  C   UNK N   1      32.117  17.263   5.533  0.00  0.00    -0.040 A 
HETATM   16  C   UNK N   1      33.499  17.166   5.520  0.00  0.00     0.010 A 
HETATM   17  C   UNK N   1      34.180  17.022   6.716  0.00  0.00     0.019 A 
HETATM   18  C   UNK N   1      33.477  17.002   7.923  0.00  0.00     0.037 A 
HETATM   19  C   UNK N   1      32.074  17.017   7.924  0.00  0.00     0.019 A 
HETATM   20  C   UNK N   1      31.388  17.131   6.720  0.00  0.00     0.010 A 
BRANCH  18  21
HETATM   21  C   UNK N   1      34.226  17.074   9.177  0.00  0.00     0.176 C 
HETATM   22  O   UNK N   1      35.103  17.910   9.324  0.00  0.00    -0.646 OA
BRANCH  21  23
HETATM   23  O   UNK N   1      34.012  16.155  10.138  0.00  0.00    -0.773 OA
HETATM   24  H   UNK N   1      34.106  15.250  10.361  0.00  0.00     0.167 HD
ENDBRANCH  21  23
ENDBRANCH  18  21
ENDBRANCH  14  15
ENDBRANCH   6  14
BRANCH   4  25
HETATM   25  C   UNK N   1      24.539  17.048   4.054  0.00  0.00    -0.067 C 
HETATM   26  C   UNK N   1      23.684  17.681   4.592  0.00  0.00    -0.097 C 
BRANCH  26  27
HETATM   27  C   UNK N   1      22.488  18.205   5.209  0.00  0.00     0.132 C 
BRANCH  27  28
HETATM   28  C   UNK N   1      21.532  18.140   4.079  0.00  0.00    -0.047 A 
HETATM   29  C   UNK N   1      21.339  19.271   3.297  0.00  0.00     0.008 A 
HETATM   30  C   UNK N   1      20.611  19.173   2.112  0.00  0.00     0.001 A 
HETATM   31  C   UNK N   1      20.111  17.935   1.692  0.00  0.00     0.000 A 
HETATM   32  C   UNK N   1      20.297  16.797   2.477  0.00  0.00     0.001 A 
HETATM   33  C   UNK N   1      20.999  16.897   3.673  0.00  0.00     0.008 A 
ENDBRANCH  27  28
ENDBRANCH  26  27
ENDBRANCH   4  25
TORSDOF 7
ENDMDL
MODEL 9
REMARK VINA RESULT:      -7.6      1.964      2.922
REMARK  7 active torsions:
REMARK  status: ('A' for Active; 'I' for Inactive)
REMARK    1  A    between atoms: C_2  and  N_19 
REMARK    2  A    between atoms: C_2  and  C_12 
REMARK    3  A    between atoms: C_5  and  C_6 
REMARK    4  A    between atoms: C_7  and  C_14 
REMARK    5  A    between atoms: C_11  and  C_27 
REMARK    6  A    between atoms: C_14  and  O_17 
REMARK    7  A    between atoms: C_15  and  C_27 
ROOT
HETATM    1  N   UNK N   1      34.846  11.177   9.766  0.00  0.00    -0.303 N 
HETATM    2  C   UNK N   1      35.309  13.740  10.718  0.00  0.00     0.264 A 
HETATM    3  C   UNK N   1      34.273  10.751  13.405  0.00  0.00     0.023 A 
HETATM    4  C   UNK N   1      34.562  12.069  13.801  0.00  0.00     0.018 A 
HETATM    5  C   UNK N   1      34.953  12.727  11.568  0.00  0.00     0.061 A 
HETATM    6  N   UNK N   1      35.420  13.502   9.384  0.00  0.00    -0.261 N 
HETATM    7  O   UNK N   1      35.527  14.861  11.166  0.00  0.00    -0.267 OA
HETATM    8  C   UNK N   1      34.700  11.434  11.098  0.00  0.00     0.054 A 
HETATM    9  C   UNK N   1      34.327  10.433  12.030  0.00  0.00     0.032 A 
HETATM   10  C   UNK N   1      34.614   9.830   9.241  0.00  0.00     0.161 C 
HETATM   11  C   UNK N   1      35.225  12.195   8.903  0.00  0.00     0.332 A 
HETATM   12  O   UNK N   1      35.392  11.934   7.722  0.00  0.00    -0.246 OA
HETATM   13  C   UNK N   1      34.874  13.016  12.892  0.00  0.00     0.040 A 
ENDROOT
BRANCH   6  14
HETATM   14  C   UNK N   1      35.726  14.705   8.581  0.00  0.00     0.175 C 
BRANCH  14  15
HETATM   15  C   UNK N   1      34.560  15.516   8.254  0.00  0.00    -0.040 A 
HETATM   16  C   UNK N   1      33.406  14.858   7.864  0.00  0.00     0.010 A 
HETATM   17  C   UNK N   1      32.211  15.554   7.812  0.00  0.00     0.019 A 
HETATM   18  C   UNK N   1      32.172  16.902   8.179  0.00  0.00     0.037 A 
HETATM   19  C   UNK N   1      33.357  17.584   8.493  0.00  0.00     0.019 A 
HETATM   20  C   UNK N   1      34.563  16.891   8.514  0.00  0.00     0.010 A 
BRANCH  18  21
HETATM   21  C   UNK N   1      30.872  17.555   8.330  0.00  0.00     0.176 C 
HETATM   22  O   UNK N   1      30.057  17.521   7.422  0.00  0.00    -0.646 OA
BRANCH  21  23
HETATM   23  O   UNK N   1      30.609  18.274   9.438  0.00  0.00    -0.773 OA
HETATM   24  H   UNK N   1      30.842  19.043   9.920  0.00  0.00     0.167 HD
ENDBRANCH  21  23
ENDBRANCH  18  21
ENDBRANCH  14  15
ENDBRANCH   6  14
BRANCH   4  25
HETATM   25  C   UNK N   1      34.787  12.503  15.110  0.00  0.00    -0.067 C 
HETATM   26  C   UNK N   1      34.948  12.684  16.276  0.00  0.00    -0.097 C 
BRANCH  26  27
HETATM   27  C   UNK N   1      35.142  13.188  17.616  0.00  0.00     0.132 C 
BRANCH  27  28
HETATM   28  C   UNK N   1      35.404  11.933  18.358  0.00  0.00    -0.047 A 
HETATM   29  C   UNK N   1      35.946  10.851  17.677  0.00  0.00     0.008 A 
HETATM   30  C   UNK N   1      36.394   9.741  18.392  0.00  0.00     0.001 A 
HETATM   31  C   UNK N   1      36.334   9.732  19.790  0.00  0.00     0.000 A 
HETATM   32  C   UNK N   1      35.785  10.814  20.479  0.00  0.00     0.001 A 
HETATM   33  C   UNK N   1      35.312  11.910  19.767  0.00  0.00     0.008 A 
ENDBRANCH  27  28
ENDBRANCH  26  27
ENDBRANCH   4  25
TORSDOF 7
ENDMDL
