MODEL 1
REMARK VINA RESULT:      -6.8      0.000      0.000
REMARK  2 active torsions:
REMARK  status: ('A' for Active; 'I' for Inactive)
REMARK    1  A    between atoms: C_6  and  C_8 
REMARK    2  A    between atoms: C_13  and  C_14 
ROOT
HETATM    1  C   UNK N   1      29.795  17.739   8.232  0.00  0.00     0.020 A 
HETATM    2  C   UNK N   1      29.612  17.268   9.523  0.00  0.00     0.121 A 
HETATM    3  N   UNK N   1      28.343  17.505   9.896  0.00  0.00    -0.311 N 
HETATM    4  N   UNK N   1      27.701  18.107   8.907  0.00  0.00    -0.299 N 
ATOM      5  HN  UNK N   1      26.723  18.398   8.927  1.00  0.00     0.187 HD
HETATM    6  C   UNK N   1      28.543  18.273   7.868  0.00  0.00     0.070 A 
HETATM    7  H   UNK N   1      27.952  17.269  10.769  0.00  0.00     0.186 HD
ENDROOT
BRANCH   1   8
HETATM    8  C   UNK N   1      31.109  17.625   7.526  0.00  0.00    -0.020 A 
HETATM    9  C   UNK N   1      32.280  18.053   8.173  0.00  0.00     0.029 A 
HETATM   10  C   UNK N   1      33.515  17.953   7.527  0.00  0.00     0.088 A 
HETATM   11  N   UNK N   1      33.589  17.440   6.269  0.00  0.00    -0.375 N 
HETATM   12  C   UNK N   1      32.477  17.017   5.617  0.00  0.00     0.088 A 
ATOM     13  HN  UNK N   1      34.497  17.372   5.808  1.00  0.00     0.164 HD
HETATM   14  C   UNK N   1      31.231  17.105   6.236  0.00  0.00     0.029 A 
ENDBRANCH   1   8
BRANCH   6  15
HETATM   15  C   UNK N   1      28.074  18.930   6.612  0.00  0.00    -0.007 A 
HETATM   16  C   UNK N   1      27.687  20.269   6.573  0.00  0.00     0.017 A 
HETATM   17  C   UNK N   1      27.252  20.869   5.394  0.00  0.00     0.043 A 
HETATM   18  C   UNK N   1      27.197  20.126   4.219  0.00  0.00     0.116 A 
HETATM   19  F   UNK N   1      26.774  20.711   3.074  0.00  0.00    -0.206 F 
HETATM   20  C   UNK N   1      27.579  18.781   4.230  0.00  0.00     0.043 A 
HETATM   21  C   UNK N   1      28.016  18.186   5.421  0.00  0.00     0.017 A 
ENDBRANCH   6  15
TORSDOF 2
ENDMDL
MODEL 2
REMARK VINA RESULT:      -6.8      0.187      1.150
REMARK  2 active torsions:
REMARK  status: ('A' for Active; 'I' for Inactive)
REMARK    1  A    between atoms: C_6  and  C_8 
REMARK    2  A    between atoms: C_13  and  C_14 
ROOT
HETATM    1  C   UNK N   1      29.867  17.610   8.198  0.00  0.00     0.020 A 
HETATM    2  C   UNK N   1      29.662  17.112   9.475  0.00  0.00     0.121 A 
HETATM    3  N   UNK N   1      28.369  17.278   9.804  0.00  0.00    -0.311 N 
HETATM    4  N   UNK N   1      27.733  17.860   8.798  0.00  0.00    -0.299 N 
ATOM      5  HN  UNK N   1      26.742  18.100   8.786  1.00  0.00     0.187 HD
HETATM    6  C   UNK N   1      28.603  18.083   7.794  0.00  0.00     0.070 A 
HETATM    7  H   UNK N   1      27.960  17.010  10.658  0.00  0.00     0.186 HD
ENDROOT
BRANCH   1   8
HETATM    8  C   UNK N   1      31.210  17.573   7.539  0.00  0.00    -0.020 A 
HETATM    9  C   UNK N   1      32.333  18.051   8.235  0.00  0.00     0.029 A 
HETATM   10  C   UNK N   1      33.595  18.023   7.634  0.00  0.00     0.088 A 
HETATM   11  N   UNK N   1      33.741  17.534   6.373  0.00  0.00    -0.375 N 
HETATM   12  C   UNK N   1      32.676  17.065   5.675  0.00  0.00     0.088 A 
ATOM     13  HN  UNK N   1      34.667  17.519   5.946  1.00  0.00     0.164 HD
HETATM   14  C   UNK N   1      31.406  17.080   6.248  0.00  0.00     0.029 A 
ENDBRANCH   1   8
BRANCH   6  15
HETATM   15  C   UNK N   1      28.146  18.733   6.529  0.00  0.00    -0.007 A 
HETATM   16  C   UNK N   1      28.090  18.044   5.318  0.00  0.00     0.017 A 
HETATM   17  C   UNK N   1      27.662  18.663   4.145  0.00  0.00     0.043 A 
HETATM   18  C   UNK N   1      27.280  20.000   4.170  0.00  0.00     0.116 A 
HETATM   19  F   UNK N   1      26.864  20.600   3.030  0.00  0.00    -0.206 F 
HETATM   20  C   UNK N   1      27.327  20.715   5.371  0.00  0.00     0.043 A 
HETATM   21  C   UNK N   1      27.758  20.084   6.546  0.00  0.00     0.017 A 
ENDBRANCH   6  15
TORSDOF 2
ENDMDL
MODEL 3
REMARK VINA RESULT:      -6.3      2.034      2.729
REMARK  2 active torsions:
REMARK  status: ('A' for Active; 'I' for Inactive)
REMARK    1  A    between atoms: C_6  and  C_8 
REMARK    2  A    between atoms: C_13  and  C_14 
ROOT
HETATM    1  C   UNK N   1      30.222  16.276   5.955  0.00  0.00     0.020 A 
HETATM    2  C   UNK N   1      30.119  14.929   5.643  0.00  0.00     0.121 A 
HETATM    3  N   UNK N   1      28.876  14.679   5.197  0.00  0.00    -0.311 N 
HETATM    4  N   UNK N   1      28.174  15.802   5.208  0.00  0.00    -0.299 N 
ATOM      5  HN  UNK N   1      27.200  15.893   4.919  1.00  0.00     0.187 HD
HETATM    6  C   UNK N   1      28.950  16.806   5.662  0.00  0.00     0.070 A 
HETATM    7  H   UNK N   1      28.541  13.800   4.908  0.00  0.00     0.186 HD
ENDROOT
BRANCH   1   8
HETATM    8  C   UNK N   1      31.489  16.873   6.481  0.00  0.00    -0.020 A 
HETATM    9  C   UNK N   1      32.619  16.935   5.649  0.00  0.00     0.029 A 
HETATM   10  C   UNK N   1      33.811  17.490   6.125  0.00  0.00     0.088 A 
HETATM   11  N   UNK N   1      33.881  17.972   7.395  0.00  0.00    -0.375 N 
HETATM   12  C   UNK N   1      32.807  17.927   8.223  0.00  0.00     0.088 A 
ATOM     13  HN  UNK N   1      34.757  18.375   7.730  1.00  0.00     0.164 HD
HETATM   14  C   UNK N   1      31.606  17.379   7.776  0.00  0.00     0.029 A 
ENDBRANCH   1   8
BRANCH   6  15
HETATM   15  C   UNK N   1      28.404  18.191   5.777  0.00  0.00    -0.007 A 
HETATM   16  C   UNK N   1      28.131  18.783   7.011  0.00  0.00     0.017 A 
HETATM   17  C   UNK N   1      27.622  20.076   7.103  0.00  0.00     0.043 A 
HETATM   18  C   UNK N   1      27.375  20.806   5.945  0.00  0.00     0.116 A 
HETATM   19  F   UNK N   1      26.880  22.062   6.036  0.00  0.00    -0.206 F 
HETATM   20  C   UNK N   1      27.640  20.236   4.695  0.00  0.00     0.043 A 
HETATM   21  C   UNK N   1      28.152  18.935   4.612  0.00  0.00     0.017 A 
ENDBRANCH   6  15
TORSDOF 2
ENDMDL
MODEL 4
REMARK VINA RESULT:      -6.3     13.765     16.287
REMARK  2 active torsions:
REMARK  status: ('A' for Active; 'I' for Inactive)
REMARK    1  A    between atoms: C_6  and  C_8 
REMARK    2  A    between atoms: C_13  and  C_14 
ROOT
HETATM    1  C   UNK N   1      27.293  29.662  -5.092  0.00  0.00     0.020 A 
HETATM    2  C   UNK N   1      27.086  30.833  -4.379  0.00  0.00     0.121 A 
HETATM    3  N   UNK N   1      26.227  30.585  -3.376  0.00  0.00    -0.311 N 
HETATM    4  N   UNK N   1      25.871  29.310  -3.409  0.00  0.00    -0.299 N 
ATOM      5  HN  UNK N   1      25.228  28.859  -2.759  1.00  0.00     0.187 HD
HETATM    6  C   UNK N   1      26.495  28.703  -4.438  0.00  0.00     0.070 A 
HETATM    7  H   UNK N   1      25.911  31.248  -2.720  0.00  0.00     0.186 HD
ENDROOT
BRANCH   1   8
HETATM    8  C   UNK N   1      28.205  29.606  -6.277  0.00  0.00    -0.020 A 
HETATM    9  C   UNK N   1      29.155  30.623  -6.465  0.00  0.00     0.029 A 
HETATM   10  C   UNK N   1      30.013  30.586  -7.568  0.00  0.00     0.088 A 
HETATM   11  N   UNK N   1      29.933  29.565  -8.463  0.00  0.00    -0.375 N 
HETATM   12  C   UNK N   1      29.025  28.567  -8.309  0.00  0.00     0.088 A 
ATOM     13  HN  UNK N   1      30.565  29.549  -9.263  1.00  0.00     0.164 HD
HETATM   14  C   UNK N   1      28.156  28.578  -7.220  0.00  0.00     0.029 A 
ENDBRANCH   1   8
BRANCH   6  15
HETATM   15  C   UNK N   1      26.271  27.251  -4.707  0.00  0.00    -0.007 A 
HETATM   16  C   UNK N   1      25.530  26.803  -5.800  0.00  0.00     0.017 A 
HETATM   17  C   UNK N   1      25.329  25.445  -6.039  0.00  0.00     0.043 A 
HETATM   18  C   UNK N   1      25.876  24.503  -5.173  0.00  0.00     0.116 A 
HETATM   19  F   UNK N   1      25.681  23.185  -5.407  0.00  0.00    -0.206 F 
HETATM   20  C   UNK N   1      26.624  24.925  -4.069  0.00  0.00     0.043 A 
HETATM   21  C   UNK N   1      26.820  26.293  -3.837  0.00  0.00     0.017 A 
ENDBRANCH   6  15
TORSDOF 2
ENDMDL
MODEL 5
REMARK VINA RESULT:      -6.2     11.882     13.999
REMARK  2 active torsions:
REMARK  status: ('A' for Active; 'I' for Inactive)
REMARK    1  A    between atoms: C_6  and  C_8 
REMARK    2  A    between atoms: C_13  and  C_14 
ROOT
HETATM    1  C   UNK N   1      35.343  11.610  18.647  0.00  0.00     0.020 A 
HETATM    2  C   UNK N   1      35.166  12.016  19.961  0.00  0.00     0.121 A 
HETATM    3  N   UNK N   1      35.072  13.356  19.994  0.00  0.00    -0.311 N 
HETATM    4  N   UNK N   1      35.180  13.832  18.763  0.00  0.00    -0.299 N 
ATOM      5  HN  UNK N   1      35.143  14.819  18.506  1.00  0.00     0.187 HD
HETATM    6  C   UNK N   1      35.347  12.808  17.905  0.00  0.00     0.070 A 
HETATM    7  H   UNK N   1      34.943  13.898  20.806  0.00  0.00     0.186 HD
ENDROOT
BRANCH   1   8
HETATM    8  C   UNK N   1      35.482  10.168  18.275  0.00  0.00    -0.020 A 
HETATM    9  C   UNK N   1      34.550   9.237  18.760  0.00  0.00     0.029 A 
HETATM   10  C   UNK N   1      34.666   7.886  18.421  0.00  0.00     0.088 A 
HETATM   11  N   UNK N   1      35.682   7.467  17.620  0.00  0.00    -0.375 N 
HETATM   12  C   UNK N   1      36.600   8.342  17.135  0.00  0.00     0.088 A 
ATOM     13  HN  UNK N   1      35.756   6.478  17.380  1.00  0.00     0.164 HD
HETATM   14  C   UNK N   1      36.509   9.695  17.456  0.00  0.00     0.029 A 
ENDBRANCH   1   8
BRANCH   6  15
HETATM   15  C   UNK N   1      35.497  13.064  16.441  0.00  0.00    -0.007 A 
HETATM   16  C   UNK N   1      36.459  13.937  15.934  0.00  0.00     0.017 A 
HETATM   17  C   UNK N   1      36.587  14.167  14.566  0.00  0.00     0.043 A 
HETATM   18  C   UNK N   1      35.741  13.516  13.673  0.00  0.00     0.116 A 
HETATM   19  F   UNK N   1      35.868  13.741  12.345  0.00  0.00    -0.206 F 
HETATM   20  C   UNK N   1      34.768  12.636  14.155  0.00  0.00     0.043 A 
HETATM   21  C   UNK N   1      34.646  12.411  15.533  0.00  0.00     0.017 A 
ENDBRANCH   6  15
TORSDOF 2
ENDMDL
MODEL 6
REMARK VINA RESULT:      -6.1      2.476      5.206
REMARK  2 active torsions:
REMARK  status: ('A' for Active; 'I' for Inactive)
REMARK    1  A    between atoms: C_6  and  C_8 
REMARK    2  A    between atoms: C_13  and  C_14 
ROOT
HETATM    1  C   UNK N   1      29.062  18.173   8.087  0.00  0.00     0.020 A 
HETATM    2  C   UNK N   1      28.747  18.271   9.433  0.00  0.00     0.121 A 
HETATM    3  N   UNK N   1      29.761  17.764  10.155  0.00  0.00    -0.311 N 
HETATM    4  N   UNK N   1      30.714  17.345   9.337  0.00  0.00    -0.299 N 
ATOM      5  HN  UNK N   1      31.594  16.918   9.625  1.00  0.00     0.187 HD
HETATM    6  C   UNK N   1      30.336  17.572   8.064  0.00  0.00     0.070 A 
HETATM    7  H   UNK N   1      29.790  17.713  11.138  0.00  0.00     0.186 HD
ENDROOT
BRANCH   1   8
HETATM    8  C   UNK N   1      28.132  18.654   7.018  0.00  0.00    -0.020 A 
HETATM    9  C   UNK N   1      27.582  17.730   6.115  0.00  0.00     0.029 A 
HETATM   10  C   UNK N   1      26.711  18.162   5.111  0.00  0.00     0.088 A 
HETATM   11  N   UNK N   1      26.392  19.480   5.004  0.00  0.00    -0.375 N 
HETATM   12  C   UNK N   1      26.907  20.398   5.861  0.00  0.00     0.088 A 
ATOM     13  HN  UNK N   1      25.756  19.783   4.266  1.00  0.00     0.164 HD
HETATM   14  C   UNK N   1      27.778  19.996   6.872  0.00  0.00     0.029 A 
ENDBRANCH   1   8
BRANCH   6  15
HETATM   15  C   UNK N   1      31.231  17.192   6.930  0.00  0.00    -0.007 A 
HETATM   16  C   UNK N   1      30.790  16.409   5.864  0.00  0.00     0.017 A 
HETATM   17  C   UNK N   1      31.636  16.063   4.813  0.00  0.00     0.043 A 
HETATM   18  C   UNK N   1      32.956  16.502   4.815  0.00  0.00     0.116 A 
HETATM   19  F   UNK N   1      33.777  16.164   3.793  0.00  0.00    -0.206 F 
HETATM   20  C   UNK N   1      33.425  17.288   5.872  0.00  0.00     0.043 A 
HETATM   21  C   UNK N   1      32.566  17.632   6.925  0.00  0.00     0.017 A 
ENDBRANCH   6  15
TORSDOF 2
ENDMDL
MODEL 7
REMARK VINA RESULT:      -6.1      3.251      6.431
REMARK  2 active torsions:
REMARK  status: ('A' for Active; 'I' for Inactive)
REMARK    1  A    between atoms: C_6  and  C_8 
REMARK    2  A    between atoms: C_13  and  C_14 
ROOT
HETATM    1  C   UNK N   1      30.312  17.037   5.982  0.00  0.00     0.020 A 
HETATM    2  C   UNK N   1      29.917  16.646   4.712  0.00  0.00     0.121 A 
HETATM    3  N   UNK N   1      30.962  16.078   4.087  0.00  0.00    -0.311 N 
HETATM    4  N   UNK N   1      32.011  16.085   4.895  0.00  0.00    -0.299 N 
ATOM      5  HN  UNK N   1      32.934  15.714   4.668  1.00  0.00     0.187 HD
HETATM    6  C   UNK N   1      31.667  16.659   6.064  0.00  0.00     0.070 A 
HETATM    7  H   UNK N   1      30.949  15.714   3.173  0.00  0.00     0.186 HD
ENDROOT
BRANCH   1   8
HETATM    8  C   UNK N   1      29.370  17.705   6.935  0.00  0.00    -0.020 A 
HETATM    9  C   UNK N   1      28.544  18.742   6.474  0.00  0.00     0.029 A 
HETATM   10  C   UNK N   1      27.659  19.377   7.351  0.00  0.00     0.088 A 
HETATM   11  N   UNK N   1      27.595  18.992   8.654  0.00  0.00    -0.375 N 
HETATM   12  C   UNK N   1      28.380  17.992   9.130  0.00  0.00     0.088 A 
ATOM     13  HN  UNK N   1      26.945  19.463   9.284  1.00  0.00     0.164 HD
HETATM   14  C   UNK N   1      29.271  17.342   8.279  0.00  0.00     0.029 A 
ENDBRANCH   1   8
BRANCH   6  15
HETATM   15  C   UNK N   1      32.668  16.797   7.163  0.00  0.00    -0.007 A 
HETATM   16  C   UNK N   1      32.761  15.874   8.205  0.00  0.00     0.017 A 
HETATM   17  C   UNK N   1      33.701  16.016   9.224  0.00  0.00     0.043 A 
HETATM   18  C   UNK N   1      34.573  17.099   9.214  0.00  0.00     0.116 A 
HETATM   19  F   UNK N   1      35.485  17.235  10.204  0.00  0.00    -0.206 F 
HETATM   20  C   UNK N   1      34.502  18.039   8.181  0.00  0.00     0.043 A 
HETATM   21  C   UNK N   1      33.553  17.889   7.160  0.00  0.00     0.017 A 
ENDBRANCH   6  15
TORSDOF 2
ENDMDL
MODEL 8
REMARK VINA RESULT:      -6.1      2.016      3.702
REMARK  2 active torsions:
REMARK  status: ('A' for Active; 'I' for Inactive)
REMARK    1  A    between atoms: C_6  and  C_8 
REMARK    2  A    between atoms: C_13  and  C_14 
ROOT
HETATM    1  C   UNK N   1      29.639  17.203   5.600  0.00  0.00     0.020 A 
HETATM    2  C   UNK N   1      30.678  16.398   5.161  0.00  0.00     0.121 A 
HETATM    3  N   UNK N   1      30.610  16.292   3.823  0.00  0.00    -0.311 N 
HETATM    4  N   UNK N   1      29.576  16.991   3.380  0.00  0.00    -0.299 N 
ATOM      5  HN  UNK N   1      29.298  17.080   2.403  1.00  0.00     0.187 HD
HETATM    6  C   UNK N   1      28.950  17.566   4.425  0.00  0.00     0.070 A 
HETATM    7  H   UNK N   1      31.232  15.776   3.260  0.00  0.00     0.186 HD
ENDROOT
BRANCH   1   8
HETATM    8  C   UNK N   1      29.437  17.517   7.049  0.00  0.00    -0.020 A 
HETATM    9  C   UNK N   1      30.545  17.858   7.841  0.00  0.00     0.029 A 
HETATM   10  C   UNK N   1      30.374  18.154   9.197  0.00  0.00     0.088 A 
HETATM   11  N   UNK N   1      29.135  18.112   9.755  0.00  0.00    -0.375 N 
HETATM   12  C   UNK N   1      28.044  17.785   9.016  0.00  0.00     0.088 A 
ATOM     13  HN  UNK N   1      29.023  18.330  10.745  1.00  0.00     0.164 HD
HETATM   14  C   UNK N   1      28.184  17.486   7.662  0.00  0.00     0.029 A 
ENDBRANCH   1   8
BRANCH   6  15
HETATM   15  C   UNK N   1      27.743  18.418   4.209  0.00  0.00    -0.007 A 
HETATM   16  C   UNK N   1      27.755  19.795   4.428  0.00  0.00     0.017 A 
HETATM   17  C   UNK N   1      26.621  20.577   4.221  0.00  0.00     0.043 A 
HETATM   18  C   UNK N   1      25.441  19.982   3.787  0.00  0.00     0.116 A 
HETATM   19  F   UNK N   1      24.340  20.743   3.587  0.00  0.00    -0.206 F 
HETATM   20  C   UNK N   1      25.401  18.603   3.560  0.00  0.00     0.043 A 
HETATM   21  C   UNK N   1      26.547  17.824   3.770  0.00  0.00     0.017 A 
ENDBRANCH   6  15
TORSDOF 2
ENDMDL
MODEL 9
REMARK VINA RESULT:      -6.1      3.928      7.097
REMARK  2 active torsions:
REMARK  status: ('A' for Active; 'I' for Inactive)
REMARK    1  A    between atoms: C_6  and  C_8 
REMARK    2  A    between atoms: C_13  and  C_14 
ROOT
HETATM    1  C   UNK N   1      31.633  17.093   6.916  0.00  0.00     0.020 A 
HETATM    2  C   UNK N   1      31.594  17.165   5.532  0.00  0.00     0.121 A 
HETATM    3  N   UNK N   1      32.766  16.731   5.040  0.00  0.00    -0.311 N 
HETATM    4  N   UNK N   1      33.559  16.384   6.042  0.00  0.00    -0.299 N 
ATOM      5  HN  UNK N   1      34.508  16.021   5.946  1.00  0.00     0.187 HD
HETATM    6  C   UNK N   1      32.915  16.585   7.208  0.00  0.00     0.070 A 
HETATM    7  H   UNK N   1      33.000  16.680   4.085  0.00  0.00     0.186 HD
ENDROOT
BRANCH   1   8
HETATM    8  C   UNK N   1      30.473  17.507   7.764  0.00  0.00    -0.020 A 
HETATM    9  C   UNK N   1      30.704  18.247   8.935  0.00  0.00     0.029 A 
HETATM   10  C   UNK N   1      29.631  18.642   9.739  0.00  0.00     0.088 A 
HETATM   11  N   UNK N   1      28.358  18.311   9.391  0.00  0.00    -0.375 N 
HETATM   12  C   UNK N   1      28.101  17.597   8.266  0.00  0.00     0.088 A 
ATOM     13  HN  UNK N   1      27.583  18.606   9.986  1.00  0.00     0.164 HD
HETATM   14  C   UNK N   1      29.151  17.190   7.445  0.00  0.00     0.029 A 
ENDBRANCH   1   8
BRANCH   6  15
HETATM   15  C   UNK N   1      33.584  16.274   8.506  0.00  0.00    -0.007 A 
HETATM   16  C   UNK N   1      33.286  15.125   9.239  0.00  0.00     0.017 A 
HETATM   17  C   UNK N   1      33.919  14.847  10.449  0.00  0.00     0.043 A 
HETATM   18  C   UNK N   1      34.872  15.728  10.949  0.00  0.00     0.116 A 
HETATM   19  F   UNK N   1      35.485  15.456  12.124  0.00  0.00    -0.206 F 
HETATM   20  C   UNK N   1      35.189  16.887  10.234  0.00  0.00     0.043 A 
HETATM   21  C   UNK N   1      34.548  17.159   9.018  0.00  0.00     0.017 A 
ENDBRANCH   6  15
TORSDOF 2
ENDMDL
