REMARK  2 active torsions:
REMARK  status: ('A' for Active; 'I' for Inactive)
REMARK    1  A    between atoms: C_6  and  C_8 
REMARK    2  A    between atoms: C_13  and  C_14 
ROOT
HETATM    1  C   UNK N   1      -0.855  -0.527  -0.000  0.00  0.00     0.020 A 
HETATM    2  C   UNK N   1      -1.931  -1.401  -0.000  0.00  0.00     0.121 A 
HETATM    3  N   UNK N   1      -1.467  -2.662   0.000  0.00  0.00    -0.311 N 
HETATM    4  N   UNK N   1      -0.143  -2.641   0.000  0.00  0.00    -0.299 N 
ATOM      5  HN  UNK N   1       0.461  -3.463   0.000  1.00  0.00     0.187 HD
HETATM    6  C   UNK N   1       0.280  -1.362  -0.000  0.00  0.00     0.070 A 
HETATM    7  H   UNK N   1      -2.024  -3.474   0.000  0.00  0.00     0.186 HD
ENDROOT
BRANCH   1   8
HETATM    8  C   UNK N   1      -1.040   0.958   0.000  0.00  0.00    -0.020 A 
HETATM    9  C   UNK N   1      -2.339   1.491  -0.000  0.00  0.00     0.029 A 
HETATM   10  C   UNK N   1      -2.529   2.876  -0.000  0.00  0.00     0.088 A 
HETATM   11  N   UNK N   1      -1.457   3.713   0.000  0.00  0.00    -0.375 N 
HETATM   12  C   UNK N   1      -0.189   3.229   0.000  0.00  0.00     0.088 A 
ATOM     13  HN  UNK N   1      -1.609   4.722   0.000  1.00  0.00     0.164 HD
HETATM   14  C   UNK N   1       0.031   1.853   0.000  0.00  0.00     0.029 A 
ENDBRANCH   1   8
BRANCH   6  15
HETATM   15  C   UNK N   1       1.740  -1.048  -0.000  0.00  0.00    -0.007 A 
HETATM   16  C   UNK N   1       2.219   0.262  -0.000  0.00  0.00     0.017 A 
HETATM   17  C   UNK N   1       3.584   0.540  -0.000  0.00  0.00     0.043 A 
HETATM   18  C   UNK N   1       4.502  -0.505  -0.000  0.00  0.00     0.116 A 
HETATM   19  F   UNK N   1       5.828  -0.233  -0.000  0.00  0.00    -0.206 F 
HETATM   20  C   UNK N   1       4.049  -1.828   0.000  0.00  0.00     0.043 A 
HETATM   21  C   UNK N   1       2.674  -2.098   0.000  0.00  0.00     0.017 A 
ENDBRANCH   6  15
TORSDOF 2
