MODEL 1
REMARK VINA RESULT:      -8.6      0.000      0.000
REMARK  5 active torsions:
REMARK  status: ('A' for Active; 'I' for Inactive)
REMARK    1  A    between atoms: C_1  and  C_2 
REMARK    2  A    between atoms: C_1  and  N_15 
REMARK    3  A    between atoms: C_2  and  C_3 
REMARK    4  A    between atoms: C_24  and  C_7 
REMARK    5  A    between atoms: C_13  and  N_12 
ROOT
HETATM    1  C   UNK N   1      21.144  14.101   6.855  0.00  0.00     0.101 C 
HETATM    2  C   UNK N   1      22.070  15.279   6.691  0.00  0.00     0.151 C 
HETATM    3  N   UNK N   1      21.409  16.488   7.146  0.00  0.00    -0.350 N 
HETATM    4  C   UNK N   1      20.756  16.517   8.335  0.00  0.00     0.220 C 
HETATM    5  O   UNK N   1      20.321  17.585   8.764  0.00  0.00    -0.273 OA
HETATM    6  C   UNK N   1      20.274  15.269   8.987  0.00  0.00     0.114 C 
HETATM    7  C   UNK N   1      20.702  13.940   8.338  0.00  0.00     0.054 C 
ENDROOT
BRANCH   3   8
HETATM    8  C   UNK N   1      20.892  17.432   6.206  0.00  0.00     0.130 C 
BRANCH   8   9
HETATM    9  C   UNK N   1      20.781  17.186   4.725  0.00  0.00     0.058 C 
BRANCH   9  10
HETATM   10  C   UNK N   1      21.626  18.282   4.101  0.00  0.00    -0.054 A 
HETATM   11  C   UNK N   1      23.046  18.260   4.226  0.00  0.00     0.047 A 
HETATM   12  C   UNK N   1      23.784  19.253   3.628  0.00  0.00     0.105 A 
HETATM   13  C   UNK N   1      23.214  20.235   2.933  0.00  0.00     0.105 A 
HETATM   14  O   UNK N   1      25.106  19.402   3.615  0.00  0.00    -0.323 OA
HETATM   15  O   UNK N   1      24.165  21.034   2.453  0.00  0.00    -0.323 OA
HETATM   16  C   UNK N   1      21.829  20.329   2.774  0.00  0.00     0.040 A 
HETATM   17  C   UNK N   1      25.410  20.536   2.862  0.00  0.00     0.352 A 
HETATM   18  C   UNK N   1      21.025  19.330   3.370  0.00  0.00     0.010 A 
ENDBRANCH   9  10
ENDBRANCH   8   9
ENDBRANCH   3   8
BRANCH   1  19
HETATM   19  N   UNK N   1      19.979  14.336   6.013  0.00  0.00    -0.424 N 
HETATM   20  H   UNK N   1      19.290  13.763   5.526  0.00  0.00     0.150 HD
HETATM   21  H   UNK N   1      19.807  15.333   5.874  0.00  0.00     0.150 HD
ENDBRANCH   1  19
BRANCH   7  22
HETATM   22  C   UNK N   1      21.649  13.239   9.301  0.00  0.00    -0.010 A 
HETATM   23  C   UNK N   1      21.189  12.682  10.509  0.00  0.00     0.126 A 
HETATM   24  C   UNK N   1      22.106  12.182  11.439  0.00  0.00     0.088 A 
HETATM   25  F   UNK N   1      19.870  12.665  10.816  0.00  0.00    -0.205 F 
HETATM   26  C   UNK N   1      23.480  12.246  11.187  0.00  0.00     0.157 A 
HETATM   27  C   UNK N   1      23.944  12.796   9.994  0.00  0.00     0.155 A 
HETATM   28  F   UNK N   1      24.360  11.793  12.110  0.00  0.00    -0.203 F 
HETATM   29  C   UNK N   1      23.038  13.278   9.063  0.00  0.00     0.056 A 
HETATM   30  F   UNK N   1      25.274  12.893   9.746  0.00  0.00    -0.203 F 
ENDBRANCH   7  22
TORSDOF 5
ENDMDL
MODEL 2
REMARK VINA RESULT:      -8.5      2.111      2.602
REMARK  5 active torsions:
REMARK  status: ('A' for Active; 'I' for Inactive)
REMARK    1  A    between atoms: C_1  and  C_2 
REMARK    2  A    between atoms: C_1  and  N_15 
REMARK    3  A    between atoms: C_2  and  C_3 
REMARK    4  A    between atoms: C_24  and  C_7 
REMARK    5  A    between atoms: C_13  and  N_12 
ROOT
HETATM    1  C   UNK N   1      21.299  14.023   7.015  0.00  0.00     0.101 C 
HETATM    2  C   UNK N   1      22.165  15.256   6.954  0.00  0.00     0.151 C 
HETATM    3  N   UNK N   1      21.407  16.409   7.401  0.00  0.00    -0.350 N 
HETATM    4  C   UNK N   1      20.675  16.358   8.543  0.00  0.00     0.220 C 
HETATM    5  O   UNK N   1      20.152  17.385   8.976  0.00  0.00    -0.273 OA
HETATM    6  C   UNK N   1      20.223  15.062   9.119  0.00  0.00     0.114 C 
HETATM    7  C   UNK N   1      20.769  13.784   8.458  0.00  0.00     0.054 C 
ENDROOT
BRANCH   3   8
HETATM    8  C   UNK N   1      20.902  17.357   6.460  0.00  0.00     0.130 C 
BRANCH   8   9
HETATM    9  C   UNK N   1      21.759  18.269   5.624  0.00  0.00     0.058 C 
BRANCH   9  10
HETATM   10  C   UNK N   1      21.245  18.073   4.210  0.00  0.00    -0.054 A 
HETATM   11  C   UNK N   1      21.052  16.761   3.687  0.00  0.00     0.047 A 
HETATM   12  C   UNK N   1      20.561  16.618   2.411  0.00  0.00     0.105 A 
HETATM   13  C   UNK N   1      20.257  17.667   1.648  0.00  0.00     0.105 A 
HETATM   14  O   UNK N   1      20.298  15.493   1.752  0.00  0.00    -0.323 OA
HETATM   15  O   UNK N   1      19.786  17.232   0.482  0.00  0.00    -0.323 OA
HETATM   16  C   UNK N   1      20.428  18.982   2.089  0.00  0.00     0.040 A 
HETATM   17  C   UNK N   1      19.787  15.830   0.498  0.00  0.00     0.352 A 
HETATM   18  C   UNK N   1      20.930  19.183   3.396  0.00  0.00     0.010 A 
ENDBRANCH   9  10
ENDBRANCH   8   9
ENDBRANCH   3   8
BRANCH   1  19
HETATM   19  N   UNK N   1      20.182  14.225   6.102  0.00  0.00    -0.424 N 
HETATM   20  H   UNK N   1      19.166  14.262   6.174  0.00  0.00     0.150 HD
HETATM   21  H   UNK N   1      20.499  14.367   5.143  0.00  0.00     0.150 HD
ENDBRANCH   1  19
BRANCH   7  22
HETATM   22  C   UNK N   1      21.688  13.101   9.460  0.00  0.00    -0.010 A 
HETATM   23  C   UNK N   1      21.195  12.578  10.670  0.00  0.00     0.126 A 
HETATM   24  C   UNK N   1      22.087  12.095  11.635  0.00  0.00     0.088 A 
HETATM   25  F   UNK N   1      19.869  12.578  10.946  0.00  0.00    -0.205 F 
HETATM   26  C   UNK N   1      23.466  12.143  11.414  0.00  0.00     0.157 A 
HETATM   27  C   UNK N   1      23.963  12.659  10.219  0.00  0.00     0.155 A 
HETATM   28  F   UNK N   1      24.321  11.708  12.368  0.00  0.00    -0.203 F 
HETATM   29  C   UNK N   1      23.083  13.125   9.254  0.00  0.00     0.056 A 
HETATM   30  F   UNK N   1      25.298  12.741  10.000  0.00  0.00    -0.203 F 
ENDBRANCH   7  22
TORSDOF 5
ENDMDL
MODEL 3
REMARK VINA RESULT:      -8.5      7.794     10.584
REMARK  5 active torsions:
REMARK  status: ('A' for Active; 'I' for Inactive)
REMARK    1  A    between atoms: C_1  and  C_2 
REMARK    2  A    between atoms: C_1  and  N_15 
REMARK    3  A    between atoms: C_2  and  C_3 
REMARK    4  A    between atoms: C_24  and  C_7 
REMARK    5  A    between atoms: C_13  and  N_12 
ROOT
HETATM    1  C   UNK N   1      28.551  17.924   4.430  0.00  0.00     0.101 C 
HETATM    2  C   UNK N   1      28.291  16.896   5.502  0.00  0.00     0.151 C 
HETATM    3  N   UNK N   1      28.599  17.458   6.804  0.00  0.00    -0.350 N 
HETATM    4  C   UNK N   1      28.141  18.686   7.156  0.00  0.00     0.220 C 
HETATM    5  O   UNK N   1      28.297  19.086   8.309  0.00  0.00    -0.273 OA
HETATM    6  C   UNK N   1      27.739  19.688   6.131  0.00  0.00     0.114 C 
HETATM    7  C   UNK N   1      27.703  19.207   4.669  0.00  0.00     0.054 C 
ENDROOT
BRANCH   3   8
HETATM    8  C   UNK N   1      29.802  17.099   7.485  0.00  0.00     0.130 C 
BRANCH   8   9
HETATM    9  C   UNK N   1      30.899  16.257   6.891  0.00  0.00     0.058 C 
BRANCH   9  10
HETATM   10  C   UNK N   1      32.139  16.656   7.669  0.00  0.00    -0.054 A 
HETATM   11  C   UNK N   1      32.600  15.856   8.755  0.00  0.00     0.047 A 
HETATM   12  C   UNK N   1      33.741  16.232   9.423  0.00  0.00     0.105 A 
HETATM   13  C   UNK N   1      34.431  17.319   9.087  0.00  0.00     0.105 A 
HETATM   14  O   UNK N   1      34.337  15.619  10.442  0.00  0.00    -0.323 OA
HETATM   15  O   UNK N   1      35.492  17.422   9.884  0.00  0.00    -0.323 OA
HETATM   16  C   UNK N   1      34.037  18.158   8.040  0.00  0.00     0.040 A 
HETATM   17  C   UNK N   1      35.482  16.343  10.778  0.00  0.00     0.352 A 
HETATM   18  C   UNK N   1      32.869  17.814   7.320  0.00  0.00     0.010 A 
ENDBRANCH   9  10
ENDBRANCH   8   9
ENDBRANCH   3   8
BRANCH   1  19
HETATM   19  N   UNK N   1      29.970  18.251   4.469  0.00  0.00    -0.424 N 
HETATM   20  H   UNK N   1      30.551  18.973   4.894  0.00  0.00     0.150 HD
HETATM   21  H   UNK N   1      30.526  17.585   3.934  0.00  0.00     0.150 HD
ENDBRANCH   1  19
BRANCH   7  22
HETATM   22  C   UNK N   1      26.251  19.206   4.218  0.00  0.00    -0.010 A 
HETATM   23  C   UNK N   1      25.768  20.152   3.293  0.00  0.00     0.126 A 
HETATM   24  C   UNK N   1      24.399  20.220   3.016  0.00  0.00     0.088 A 
HETATM   25  F   UNK N   1      26.602  21.039   2.699  0.00  0.00    -0.205 F 
HETATM   26  C   UNK N   1      23.501  19.366   3.663  0.00  0.00     0.157 A 
HETATM   27  C   UNK N   1      23.969  18.427   4.580  0.00  0.00     0.155 A 
HETATM   28  F   UNK N   1      22.174  19.465   3.416  0.00  0.00    -0.203 F 
HETATM   29  C   UNK N   1      25.327  18.346   4.846  0.00  0.00     0.056 A 
HETATM   30  F   UNK N   1      23.109  17.612   5.239  0.00  0.00    -0.203 F 
ENDBRANCH   7  22
TORSDOF 5
ENDMDL
MODEL 4
REMARK VINA RESULT:      -8.4     11.253     14.345
REMARK  5 active torsions:
REMARK  status: ('A' for Active; 'I' for Inactive)
REMARK    1  A    between atoms: C_1  and  C_2 
REMARK    2  A    between atoms: C_1  and  N_15 
REMARK    3  A    between atoms: C_2  and  C_3 
REMARK    4  A    between atoms: C_24  and  C_7 
REMARK    5  A    between atoms: C_13  and  N_12 
ROOT
HETATM    1  C   UNK N   1      33.292  15.271   7.565  0.00  0.00     0.101 C 
HETATM    2  C   UNK N   1      33.486  14.853   9.000  0.00  0.00     0.151 C 
HETATM    3  N   UNK N   1      34.567  15.620   9.592  0.00  0.00    -0.350 N 
HETATM    4  C   UNK N   1      34.625  16.968   9.443  0.00  0.00     0.220 C 
HETATM    5  O   UNK N   1      35.469  17.613  10.064  0.00  0.00    -0.273 OA
HETATM    6  C   UNK N   1      33.918  17.657   8.328  0.00  0.00     0.114 C 
HETATM    7  C   UNK N   1      32.983  16.793   7.463  0.00  0.00     0.054 C 
ENDROOT
BRANCH   3   8
HETATM    8  C   UNK N   1      35.851  15.028   9.796  0.00  0.00     0.130 C 
BRANCH   8   9
HETATM    9  C   UNK N   1      36.127  13.550   9.735  0.00  0.00     0.058 C 
BRANCH   9  10
HETATM   10  C   UNK N   1      36.271  13.138  11.188  0.00  0.00    -0.054 A 
HETATM   11  C   UNK N   1      35.280  13.502  12.145  0.00  0.00     0.047 A 
HETATM   12  C   UNK N   1      35.427  13.092  13.448  0.00  0.00     0.105 A 
HETATM   13  C   UNK N   1      36.468  12.362  13.846  0.00  0.00     0.105 A 
HETATM   14  O   UNK N   1      34.614  13.312  14.478  0.00  0.00    -0.323 OA
HETATM   15  O   UNK N   1      36.337  12.094  15.144  0.00  0.00    -0.323 OA
HETATM   16  C   UNK N   1      37.484  11.974  12.968  0.00  0.00     0.040 A 
HETATM   17  C   UNK N   1      35.151  12.682  15.602  0.00  0.00     0.352 A 
HETATM   18  C   UNK N   1      37.378  12.371  11.615  0.00  0.00     0.010 A 
ENDBRANCH   9  10
ENDBRANCH   8   9
ENDBRANCH   3   8
BRANCH   1  19
HETATM   19  N   UNK N   1      34.523  14.965   6.848  0.00  0.00    -0.424 N 
HETATM   20  H   UNK N   1      35.220  15.487   6.319  0.00  0.00     0.150 HD
HETATM   21  H   UNK N   1      34.746  13.970   6.887  0.00  0.00     0.150 HD
ENDBRANCH   1  19
BRANCH   7  22
HETATM   22  C   UNK N   1      31.557  17.257   7.716  0.00  0.00    -0.010 A 
HETATM   23  C   UNK N   1      30.568  17.171   6.718  0.00  0.00     0.126 A 
HETATM   24  C   UNK N   1      29.311  17.745   6.931  0.00  0.00     0.088 A 
HETATM   25  F   UNK N   1      30.826  16.582   5.525  0.00  0.00    -0.205 F 
HETATM   26  C   UNK N   1      29.032  18.422   8.122  0.00  0.00     0.157 A 
HETATM   27  C   UNK N   1      30.005  18.513   9.115  0.00  0.00     0.155 A 
HETATM   28  F   UNK N   1      27.825  19.006   8.303  0.00  0.00    -0.203 F 
HETATM   29  C   UNK N   1      31.247  17.931   8.915  0.00  0.00     0.056 A 
HETATM   30  F   UNK N   1      29.762  19.191  10.264  0.00  0.00    -0.203 F 
ENDBRANCH   7  22
TORSDOF 5
ENDMDL
MODEL 5
REMARK VINA RESULT:      -8.4      1.609      2.613
REMARK  5 active torsions:
REMARK  status: ('A' for Active; 'I' for Inactive)
REMARK    1  A    between atoms: C_1  and  C_2 
REMARK    2  A    between atoms: C_1  and  N_15 
REMARK    3  A    between atoms: C_2  and  C_3 
REMARK    4  A    between atoms: C_24  and  C_7 
REMARK    5  A    between atoms: C_13  and  N_12 
ROOT
HETATM    1  C   UNK N   1      23.337  14.509   6.931  0.00  0.00     0.101 C 
HETATM    2  C   UNK N   1      22.221  15.522   6.959  0.00  0.00     0.151 C 
HETATM    3  N   UNK N   1      21.119  15.059   6.135  0.00  0.00    -0.350 N 
HETATM    4  C   UNK N   1      20.656  13.787   6.246  0.00  0.00     0.220 C 
HETATM    5  O   UNK N   1      19.638  13.456   5.640  0.00  0.00    -0.273 OA
HETATM    6  C   UNK N   1      21.499  12.701   6.817  0.00  0.00     0.114 C 
HETATM    7  C   UNK N   1      22.846  13.121   7.432  0.00  0.00     0.054 C 
ENDROOT
BRANCH   3   8
HETATM    8  C   UNK N   1      20.892  15.621   4.842  0.00  0.00     0.130 C 
BRANCH   8   9
HETATM    9  C   UNK N   1      19.799  16.605   4.521  0.00  0.00     0.058 C 
BRANCH   9  10
HETATM   10  C   UNK N   1      20.534  17.816   3.979  0.00  0.00    -0.054 A 
HETATM   11  C   UNK N   1      21.924  17.994   4.239  0.00  0.00     0.047 A 
HETATM   12  C   UNK N   1      22.566  19.089   3.713  0.00  0.00     0.105 A 
HETATM   13  C   UNK N   1      21.931  19.989   2.965  0.00  0.00     0.105 A 
HETATM   14  O   UNK N   1      23.849  19.424   3.826  0.00  0.00    -0.323 OA
HETATM   15  O   UNK N   1      22.800  20.920   2.577  0.00  0.00    -0.323 OA
HETATM   16  C   UNK N   1      20.568  19.887   2.674  0.00  0.00     0.040 A 
HETATM   17  C   UNK N   1      24.059  20.600   3.103  0.00  0.00     0.352 A 
HETATM   18  C   UNK N   1      19.861  18.777   3.192  0.00  0.00     0.010 A 
ENDBRANCH   9  10
ENDBRANCH   8   9
ENDBRANCH   3   8
BRANCH   1  19
HETATM   19  N   UNK N   1      23.802  14.405   5.554  0.00  0.00    -0.424 N 
HETATM   20  H   UNK N   1      24.643  14.077   5.080  0.00  0.00     0.150 HD
HETATM   21  H   UNK N   1      23.104  14.748   4.893  0.00  0.00     0.150 HD
ENDBRANCH   1  19
BRANCH   7  22
HETATM   22  C   UNK N   1      22.764  12.884   8.933  0.00  0.00    -0.010 A 
HETATM   23  C   UNK N   1      23.918  12.650   9.704  0.00  0.00     0.126 A 
HETATM   24  C   UNK N   1      23.796  12.284  11.048  0.00  0.00     0.088 A 
HETATM   25  F   UNK N   1      25.155  12.721   9.154  0.00  0.00    -0.205 F 
HETATM   26  C   UNK N   1      22.534  12.133  11.631  0.00  0.00     0.157 A 
HETATM   27  C   UNK N   1      21.386  12.362  10.876  0.00  0.00     0.155 A 
HETATM   28  F   UNK N   1      22.426  11.743  12.922  0.00  0.00    -0.203 F 
HETATM   29  C   UNK N   1      21.503  12.739   9.547  0.00  0.00     0.056 A 
HETATM   30  F   UNK N   1      20.154  12.191  11.416  0.00  0.00    -0.203 F 
ENDBRANCH   7  22
TORSDOF 5
ENDMDL
MODEL 6
REMARK VINA RESULT:      -8.3      1.488      2.169
REMARK  5 active torsions:
REMARK  status: ('A' for Active; 'I' for Inactive)
REMARK    1  A    between atoms: C_1  and  C_2 
REMARK    2  A    between atoms: C_1  and  N_15 
REMARK    3  A    between atoms: C_2  and  C_3 
REMARK    4  A    between atoms: C_24  and  C_7 
REMARK    5  A    between atoms: C_13  and  N_12 
ROOT
HETATM    1  C   UNK N   1      22.649  12.827   7.083  0.00  0.00     0.101 C 
HETATM    2  C   UNK N   1      23.603  13.993   7.107  0.00  0.00     0.151 C 
HETATM    3  N   UNK N   1      22.862  15.235   6.983  0.00  0.00    -0.350 N 
HETATM    4  C   UNK N   1      21.759  15.464   7.740  0.00  0.00     0.220 C 
HETATM    5  O   UNK N   1      21.227  16.573   7.719  0.00  0.00    -0.273 OA
HETATM    6  C   UNK N   1      20.990  14.345   8.351  0.00  0.00     0.114 C 
HETATM    7  C   UNK N   1      21.601  12.938   8.228  0.00  0.00     0.054 C 
ENDROOT
BRANCH   3   8
HETATM    8  C   UNK N   1      22.845  15.950   5.746  0.00  0.00     0.130 C 
BRANCH   8   9
HETATM    9  C   UNK N   1      24.074  16.367   4.986  0.00  0.00     0.058 C 
BRANCH   9  10
HETATM   10  C   UNK N   1      23.678  17.674   4.323  0.00  0.00    -0.054 A 
HETATM   11  C   UNK N   1      22.310  17.954   4.039  0.00  0.00     0.047 A 
HETATM   12  C   UNK N   1      21.982  19.157   3.461  0.00  0.00     0.105 A 
HETATM   13  C   UNK N   1      22.902  20.071   3.160  0.00  0.00     0.105 A 
HETATM   14  O   UNK N   1      20.774  19.610   3.133  0.00  0.00    -0.323 OA
HETATM   15  O   UNK N   1      22.298  21.137   2.637  0.00  0.00    -0.323 OA
HETATM   16  C   UNK N   1      24.263  19.865   3.401  0.00  0.00     0.040 A 
HETATM   17  C   UNK N   1      20.919  20.892   2.601  0.00  0.00     0.352 A 
HETATM   18  C   UNK N   1      24.652  18.642   3.995  0.00  0.00     0.010 A 
ENDBRANCH   9  10
ENDBRANCH   8   9
ENDBRANCH   3   8
BRANCH   1  19
HETATM   19  N   UNK N   1      21.976  12.836   5.791  0.00  0.00    -0.424 N 
HETATM   20  H   UNK N   1      21.204  12.332   5.355  0.00  0.00     0.150 HD
HETATM   21  H   UNK N   1      22.382  13.526   5.158  0.00  0.00     0.150 HD
ENDBRANCH   1  19
BRANCH   7  22
HETATM   22  C   UNK N   1      22.006  12.486   9.622  0.00  0.00    -0.010 A 
HETATM   23  C   UNK N   1      21.092  12.495  10.692  0.00  0.00     0.126 A 
HETATM   24  C   UNK N   1      21.535  12.220  11.990  0.00  0.00     0.088 A 
HETATM   25  F   UNK N   1      19.790  12.817  10.499  0.00  0.00    -0.205 F 
HETATM   26  C   UNK N   1      22.884  11.951  12.238  0.00  0.00     0.157 A 
HETATM   27  C   UNK N   1      23.797  11.940  11.185  0.00  0.00     0.155 A 
HETATM   28  F   UNK N   1      23.309  11.723  13.502  0.00  0.00    -0.203 F 
HETATM   29  C   UNK N   1      23.359  12.197   9.895  0.00  0.00     0.056 A 
HETATM   30  F   UNK N   1      25.114  11.712  11.411  0.00  0.00    -0.203 F 
ENDBRANCH   7  22
TORSDOF 5
ENDMDL
MODEL 7
REMARK VINA RESULT:      -8.2      5.854      7.920
REMARK  5 active torsions:
REMARK  status: ('A' for Active; 'I' for Inactive)
REMARK    1  A    between atoms: C_1  and  C_2 
REMARK    2  A    between atoms: C_1  and  N_15 
REMARK    3  A    between atoms: C_2  and  C_3 
REMARK    4  A    between atoms: C_24  and  C_7 
REMARK    5  A    between atoms: C_13  and  N_12 
ROOT
HETATM    1  C   UNK N   1      27.909  16.966   6.170  0.00  0.00     0.101 C 
HETATM    2  C   UNK N   1      27.864  17.954   5.032  0.00  0.00     0.151 C 
HETATM    3  N   UNK N   1      27.256  19.192   5.482  0.00  0.00    -0.350 N 
HETATM    4  C   UNK N   1      27.643  19.773   6.646  0.00  0.00     0.220 C 
HETATM    5  O   UNK N   1      27.215  20.888   6.942  0.00  0.00    -0.273 OA
HETATM    6  C   UNK N   1      28.315  18.990   7.719  0.00  0.00     0.114 C 
HETATM    7  C   UNK N   1      28.702  17.540   7.378  0.00  0.00     0.054 C 
ENDROOT
BRANCH   3   8
HETATM    8  C   UNK N   1      25.911  19.514   5.122  0.00  0.00     0.130 C 
BRANCH   8   9
HETATM    9  C   UNK N   1      25.453  19.814   3.720  0.00  0.00     0.058 C 
BRANCH   9  10
HETATM   10  C   UNK N   1      24.021  19.313   3.681  0.00  0.00    -0.054 A 
HETATM   11  C   UNK N   1      22.992  20.112   3.105  0.00  0.00     0.047 A 
HETATM   12  C   UNK N   1      21.709  19.619   3.062  0.00  0.00     0.105 A 
HETATM   13  C   UNK N   1      21.399  18.416   3.540  0.00  0.00     0.105 A 
HETATM   14  O   UNK N   1      20.622  20.196   2.558  0.00  0.00    -0.323 OA
HETATM   15  O   UNK N   1      20.100  18.194   3.345  0.00  0.00    -0.323 OA
HETATM   16  C   UNK N   1      22.352  17.579   4.127  0.00  0.00     0.040 A 
HETATM   17  C   UNK N   1      19.550  19.315   2.708  0.00  0.00     0.352 A 
HETATM   18  C   UNK N   1      23.687  18.040   4.195  0.00  0.00     0.010 A 
ENDBRANCH   9  10
ENDBRANCH   8   9
ENDBRANCH   3   8
BRANCH   1  19
HETATM   19  N   UNK N   1      26.534  16.688   6.564  0.00  0.00    -0.424 N 
HETATM   20  H   UNK N   1      25.931  15.868   6.618  0.00  0.00     0.150 HD
HETATM   21  H   UNK N   1      26.049  17.534   6.868  0.00  0.00     0.150 HD
ENDBRANCH   1  19
BRANCH   7  22
HETATM   22  C   UNK N   1      30.221  17.462   7.346  0.00  0.00    -0.010 A 
HETATM   23  C   UNK N   1      31.000  17.845   8.454  0.00  0.00     0.126 A 
HETATM   24  C   UNK N   1      32.393  17.906   8.339  0.00  0.00     0.088 A 
HETATM   25  F   UNK N   1      30.423  18.206   9.626  0.00  0.00    -0.205 F 
HETATM   26  C   UNK N   1      33.019  17.607   7.125  0.00  0.00     0.157 A 
HETATM   27  C   UNK N   1      32.256  17.228   6.023  0.00  0.00     0.155 A 
HETATM   28  F   UNK N   1      34.364  17.706   7.014  0.00  0.00    -0.203 F 
HETATM   29  C   UNK N   1      30.877  17.151   6.137  0.00  0.00     0.056 A 
HETATM   30  F   UNK N   1      32.844  16.964   4.830  0.00  0.00    -0.203 F 
ENDBRANCH   7  22
TORSDOF 5
ENDMDL
MODEL 8
REMARK VINA RESULT:      -8.0     10.325     13.461
REMARK  5 active torsions:
REMARK  status: ('A' for Active; 'I' for Inactive)
REMARK    1  A    between atoms: C_1  and  C_2 
REMARK    2  A    between atoms: C_1  and  N_15 
REMARK    3  A    between atoms: C_2  and  C_3 
REMARK    4  A    between atoms: C_24  and  C_7 
REMARK    5  A    between atoms: C_13  and  N_12 
ROOT
HETATM    1  C   UNK N   1      31.757  15.422   7.476  0.00  0.00     0.101 C 
HETATM    2  C   UNK N   1      32.222  16.159   8.706  0.00  0.00     0.151 C 
HETATM    3  N   UNK N   1      33.455  16.866   8.417  0.00  0.00    -0.350 N 
HETATM    4  C   UNK N   1      33.575  17.623   7.296  0.00  0.00     0.220 C 
HETATM    5  O   UNK N   1      34.576  18.321   7.138  0.00  0.00    -0.273 OA
HETATM    6  C   UNK N   1      32.698  17.403   6.114  0.00  0.00     0.114 C 
HETATM    7  C   UNK N   1      31.542  16.401   6.286  0.00  0.00     0.054 C 
ENDROOT
BRANCH   3   8
HETATM    8  C   UNK N   1      34.708  16.364   8.884  0.00  0.00     0.130 C 
BRANCH   8   9
HETATM    9  C   UNK N   1      35.334  16.731  10.203  0.00  0.00     0.058 C 
BRANCH   9  10
HETATM   10  C   UNK N   1      35.715  15.397  10.819  0.00  0.00    -0.054 A 
HETATM   11  C   UNK N   1      34.905  14.812  11.834  0.00  0.00     0.047 A 
HETATM   12  C   UNK N   1      35.264  13.591  12.353  0.00  0.00     0.105 A 
HETATM   13  C   UNK N   1      36.346  12.936  11.936  0.00  0.00     0.105 A 
HETATM   14  O   UNK N   1      34.639  12.877  13.286  0.00  0.00    -0.323 OA
HETATM   15  O   UNK N   1      36.432  11.781  12.592  0.00  0.00    -0.323 OA
HETATM   16  C   UNK N   1      37.194  13.450  10.951  0.00  0.00     0.040 A 
HETATM   17  C   UNK N   1      35.348  11.691  13.476  0.00  0.00     0.352 A 
HETATM   18  C   UNK N   1      36.867  14.704  10.384  0.00  0.00     0.010 A 
ENDBRANCH   9  10
ENDBRANCH   8   9
ENDBRANCH   3   8
BRANCH   1  19
HETATM   19  N   UNK N   1      32.782  14.445   7.135  0.00  0.00    -0.424 N 
HETATM   20  H   UNK N   1      32.845  13.428   7.076  0.00  0.00     0.150 HD
HETATM   21  H   UNK N   1      33.667  14.892   6.893  0.00  0.00     0.150 HD
ENDBRANCH   1  19
BRANCH   7  22
HETATM   22  C   UNK N   1      30.239  17.184   6.223  0.00  0.00    -0.010 A 
HETATM   23  C   UNK N   1      29.694  17.606   4.995  0.00  0.00     0.126 A 
HETATM   24  C   UNK N   1      28.580  18.451   4.981  0.00  0.00     0.088 A 
HETATM   25  F   UNK N   1      30.261  17.249   3.817  0.00  0.00    -0.205 F 
HETATM   26  C   UNK N   1      28.011  18.896   6.178  0.00  0.00     0.157 A 
HETATM   27  C   UNK N   1      28.544  18.484   7.398  0.00  0.00     0.155 A 
HETATM   28  F   UNK N   1      26.957  19.744   6.154  0.00  0.00    -0.203 F 
HETATM   29  C   UNK N   1      29.638  17.634   7.416  0.00  0.00     0.056 A 
HETATM   30  F   UNK N   1      28.024  18.929   8.568  0.00  0.00    -0.203 F 
ENDBRANCH   7  22
TORSDOF 5
ENDMDL
MODEL 9
REMARK VINA RESULT:      -7.9      4.219      8.917
REMARK  5 active torsions:
REMARK  status: ('A' for Active; 'I' for Inactive)
REMARK    1  A    between atoms: C_1  and  C_2 
REMARK    2  A    between atoms: C_1  and  N_15 
REMARK    3  A    between atoms: C_2  and  C_3 
REMARK    4  A    between atoms: C_24  and  C_7 
REMARK    5  A    between atoms: C_13  and  N_12 
ROOT
HETATM    1  C   UNK N   1      23.664  16.460   5.113  0.00  0.00     0.101 C 
HETATM    2  C   UNK N   1      22.837  15.285   4.657  0.00  0.00     0.151 C 
HETATM    3  N   UNK N   1      21.888  14.922   5.693  0.00  0.00    -0.350 N 
HETATM    4  C   UNK N   1      21.133  15.869   6.305  0.00  0.00     0.220 C 
HETATM    5  O   UNK N   1      20.241  15.528   7.081  0.00  0.00    -0.273 OA
HETATM    6  C   UNK N   1      21.541  17.301   6.316  0.00  0.00     0.114 C 
HETATM    7  C   UNK N   1      22.761  17.679   5.458  0.00  0.00     0.054 C 
ENDROOT
BRANCH   3   8
HETATM    8  C   UNK N   1      22.112  13.775   6.514  0.00  0.00     0.130 C 
BRANCH   8   9
HETATM    9  C   UNK N   1      23.409  13.467   7.213  0.00  0.00     0.058 C 
BRANCH   9  10
HETATM   10  C   UNK N   1      22.990  13.042   8.608  0.00  0.00    -0.054 A 
HETATM   11  C   UNK N   1      23.970  12.725   9.593  0.00  0.00     0.047 A 
HETATM   12  C   UNK N   1      23.557  12.368  10.854  0.00  0.00     0.105 A 
HETATM   13  C   UNK N   1      22.269  12.309  11.186  0.00  0.00     0.105 A 
HETATM   14  O   UNK N   1      24.307  12.053  11.907  0.00  0.00    -0.323 OA
HETATM   15  O   UNK N   1      22.168  11.961  12.467  0.00  0.00    -0.323 OA
HETATM   16  C   UNK N   1      21.251  12.597  10.273  0.00  0.00     0.040 A 
HETATM   17  C   UNK N   1      23.459  11.787  12.983  0.00  0.00     0.352 A 
HETATM   18  C   UNK N   1      21.624  12.971   8.961  0.00  0.00     0.010 A 
ENDBRANCH   9  10
ENDBRANCH   8   9
ENDBRANCH   3   8
BRANCH   1  19
HETATM   19  N   UNK N   1      24.407  16.042   6.295  0.00  0.00    -0.424 N 
HETATM   20  H   UNK N   1      24.874  16.502   7.076  0.00  0.00     0.150 HD
HETATM   21  H   UNK N   1      24.478  15.026   6.357  0.00  0.00     0.150 HD
ENDBRANCH   1  19
BRANCH   7  22
HETATM   22  C   UNK N   1      22.271  18.558   4.318  0.00  0.00    -0.010 A 
HETATM   23  C   UNK N   1      23.127  19.471   3.673  0.00  0.00     0.126 A 
HETATM   24  C   UNK N   1      22.609  20.370   2.735  0.00  0.00     0.088 A 
HETATM   25  F   UNK N   1      24.446  19.532   3.980  0.00  0.00    -0.205 F 
HETATM   26  C   UNK N   1      21.242  20.382   2.444  0.00  0.00     0.157 A 
HETATM   27  C   UNK N   1      20.386  19.483   3.078  0.00  0.00     0.155 A 
HETATM   28  F   UNK N   1      20.744  21.281   1.563  0.00  0.00    -0.203 F 
HETATM   29  C   UNK N   1      20.898  18.580   3.996  0.00  0.00     0.056 A 
HETATM   30  F   UNK N   1      19.054  19.502   2.830  0.00  0.00    -0.203 F 
ENDBRANCH   7  22
TORSDOF 5
ENDMDL
