REMARK  8 active torsions:
REMARK  status: ('A' for Active; 'I' for Inactive)
REMARK    1  A    between atoms: C_1  and  C_13 
REMARK       I    between atoms: C_1  and  N_20 
REMARK    2  A    between atoms: C_2  and  N_20 
REMARK    3  A    between atoms: C_3  and  C_6 
REMARK    4  A    between atoms: C_6  and  C_7 
REMARK    5  A    between atoms: C_9  and  C_10 
REMARK    6  A    between atoms: C_9  and  N_19 
REMARK    7  A    between atoms: C_18  and  N_19 
REMARK    8  A    between atoms: C_23  and  C_24 
ROOT
HETATM    1  C   UNK N   1       3.725   0.702   0.283  0.00  0.00     0.058 A 
HETATM    2  C   UNK N   1       4.781   1.550   0.650  0.00  0.00     0.019 A 
HETATM    3  C   UNK N   1       4.566   2.898   0.898  0.00  0.00     0.001 A 
HETATM    4  C   UNK N   1       3.277   3.408   0.832  0.00  0.00     0.002 A 
HETATM    5  C   UNK N   1       2.217   2.566   0.505  0.00  0.00     0.030 A 
HETATM    6  C   UNK N   1       2.412   1.207   0.200  0.00  0.00     0.044 A 
ENDROOT
BRANCH   1   7
HETATM    7  C   UNK N   1       4.050  -0.710   0.126  0.00  0.00     0.258 C 
HETATM    8  O   UNK N   1       4.884  -1.167   0.897  0.00  0.00    -0.267 OA
HETATM    9  N   UNK N   1       3.415  -1.525  -0.773  0.00  0.00    -0.323 N 
HETATM   10  H   UNK N   1       2.752  -1.148  -1.396  0.00  0.00     0.169 HD
BRANCH   9  11
HETATM   11  C   UNK N   1       3.715  -2.915  -0.808  0.00  0.00     0.035 A 
HETATM   12  C   UNK N   1       4.988  -3.354  -0.420  0.00  0.00     0.046 A 
HETATM   13  C   UNK N   1       5.201  -4.621   0.100  0.00  0.00     0.056 A 
HETATM   14  C   UNK N   1       4.092  -5.498   0.199  0.00  0.00    -0.043 A 
HETATM   15  C   UNK N   1       2.845  -5.104  -0.314  0.00  0.00     0.010 A 
HETATM   16  C   UNK N   1       2.653  -3.812  -0.802  0.00  0.00     0.030 A 
BRANCH  13  17
HETATM   17  C   UNK N   1       6.590  -4.905   0.634  0.00  0.00     0.418 C 
HETATM   18  F   UNK N   1       7.496  -4.897  -0.411  0.00  0.00    -0.166 F 
HETATM   19  F   UNK N   1       6.941  -3.903   1.526  0.00  0.00    -0.166 F 
HETATM   20  F   UNK N   1       6.691  -6.113   1.294  0.00  0.00    -0.166 F 
ENDBRANCH  13  17
BRANCH  14  21
HETATM   21  C   UNK N   1       4.177  -6.804   0.917  0.00  0.00     0.039 C 
BRANCH  21  22
HETATM   22  C   UNK N   1       3.974  -7.979  -0.007  0.00  0.00     0.000 C 
HETATM   23  C   UNK N   1       5.329  -8.468  -0.466  0.00  0.00     0.005 C 
ENDBRANCH  21  22
ENDBRANCH  14  21
ENDBRANCH   9  11
ENDBRANCH   1   7
BRANCH   6  24
HETATM   24  N   UNK N   1       1.310   0.328  -0.089  0.00  0.00    -0.385 N 
HETATM   25  H   UNK N   1       1.543  -0.608  -0.286  0.00  0.00     0.160 HD
BRANCH  24  26
HETATM   26  C   UNK N   1      -0.117   0.657  -0.126  0.00  0.00     0.160 C 
BRANCH  26  27
HETATM   27  C   UNK N   1      -0.377   2.111  -0.317  0.00  0.00    -0.025 A 
HETATM   28  C   UNK N   1      -0.876   2.872   0.746  0.00  0.00     0.100 A 
HETATM   29  N   UNK N   1      -0.907   4.225   0.657  0.00  0.00    -0.333 N 
HETATM   30  C   UNK N   1      -0.440   4.883  -0.459  0.00  0.00     0.245 A 
HETATM   31  H   UNK N   1      -1.272   4.748   1.407  0.00  0.00     0.168 HD
HETATM   32  C   UNK N   1       0.031   4.145  -1.551  0.00  0.00     0.075 A 
HETATM   33  O   UNK N   1      -0.431   6.091  -0.493  0.00  0.00    -0.268 OA
HETATM   34  C   UNK N   1       0.063   2.756  -1.479  0.00  0.00     0.015 A 
ENDBRANCH  26  27
ENDBRANCH  24  26
ENDBRANCH   6  24
TORSDOF 8
