MODEL 1
REMARK VINA RESULT:      -7.9      0.000      0.000
REMARK  8 active torsions:
REMARK  status: ('A' for Active; 'I' for Inactive)
REMARK    1  A    between atoms: C_1  and  C_13 
REMARK       I    between atoms: C_1  and  N_20 
REMARK    2  A    between atoms: C_2  and  N_20 
REMARK    3  A    between atoms: C_3  and  C_6 
REMARK    4  A    between atoms: C_6  and  C_7 
REMARK    5  A    between atoms: C_9  and  C_10 
REMARK    6  A    between atoms: C_9  and  N_19 
REMARK    7  A    between atoms: C_18  and  N_19 
REMARK    8  A    between atoms: C_23  and  C_24 
ROOT
HETATM    1  C   UNK N   1      25.668  18.664   4.071  0.00  0.00     0.058 A 
HETATM    2  C   UNK N   1      26.029  19.684   3.177  0.00  0.00     0.019 A 
HETATM    3  C   UNK N   1      25.074  20.526   2.626  0.00  0.00     0.001 A 
HETATM    4  C   UNK N   1      23.745  20.392   3.002  0.00  0.00     0.002 A 
HETATM    5  C   UNK N   1      23.383  19.407   3.917  0.00  0.00     0.030 A 
HETATM    6  C   UNK N   1      24.321  18.507   4.454  0.00  0.00     0.044 A 
ENDROOT
BRANCH   1   7
HETATM    7  C   UNK N   1      26.760  17.892   4.651  0.00  0.00     0.258 C 
HETATM    8  O   UNK N   1      26.645  16.674   4.615  0.00  0.00    -0.267 OA
HETATM    9  N   UNK N   1      27.900  18.468   5.143  0.00  0.00    -0.323 N 
HETATM   10  H   UNK N   1      27.981  19.449   5.177  0.00  0.00     0.169 HD
BRANCH   9  11
HETATM   11  C   UNK N   1      28.967  17.650   5.608  0.00  0.00     0.035 A 
HETATM   12  C   UNK N   1      30.112  17.496   4.815  0.00  0.00     0.046 A 
HETATM   13  C   UNK N   1      31.354  17.219   5.364  0.00  0.00     0.056 A 
HETATM   14  C   UNK N   1      31.441  17.052   6.769  0.00  0.00    -0.043 A 
HETATM   15  C   UNK N   1      30.272  17.074   7.547  0.00  0.00     0.010 A 
HETATM   16  C   UNK N   1      29.041  17.387   6.971  0.00  0.00     0.030 A 
BRANCH  13  17
HETATM   17  C   UNK N   1      32.532  17.245   4.412  0.00  0.00     0.418 C 
HETATM   18  F   UNK N   1      32.080  17.483   3.127  0.00  0.00    -0.166 F 
HETATM   19  F   UNK N   1      33.381  18.279   4.777  0.00  0.00    -0.166 F 
HETATM   20  F   UNK N   1      33.266  16.076   4.411  0.00  0.00    -0.166 F 
ENDBRANCH  13  17
BRANCH  14  21
HETATM   21  C   UNK N   1      32.753  16.943   7.473  0.00  0.00     0.039 C 
BRANCH  21  22
HETATM   22  C   UNK N   1      33.137  18.226   8.169  0.00  0.00     0.000 C 
HETATM   23  C   UNK N   1      34.645  18.339   8.167  0.00  0.00     0.005 C 
ENDBRANCH  21  22
ENDBRANCH  14  21
ENDBRANCH   9  11
ENDBRANCH   1   7
BRANCH   6  24
HETATM   24  N   UNK N   1      23.953  17.522   5.436  0.00  0.00    -0.385 N 
HETATM   25  H   UNK N   1      24.391  17.602   6.314  0.00  0.00     0.160 HD
BRANCH  24  26
HETATM   26  C   UNK N   1      23.005  16.415   5.288  0.00  0.00     0.160 C 
BRANCH  26  27
HETATM   27  C   UNK N   1      22.135  16.226   6.482  0.00  0.00    -0.025 A 
HETATM   28  C   UNK N   1      21.126  17.155   6.759  0.00  0.00     0.100 A 
HETATM   29  N   UNK N   1      20.192  16.882   7.704  0.00  0.00    -0.333 N 
HETATM   30  C   UNK N   1      20.199  15.694   8.400  0.00  0.00     0.245 A 
HETATM   31  H   UNK N   1      19.495  17.549   7.898  0.00  0.00     0.168 HD
HETATM   32  C   UNK N   1      21.218  14.763   8.168  0.00  0.00     0.075 A 
HETATM   33  O   UNK N   1      19.327  15.453   9.200  0.00  0.00    -0.268 OA
HETATM   34  C   UNK N   1      22.188  15.030   7.207  0.00  0.00     0.015 A 
ENDBRANCH  26  27
ENDBRANCH  24  26
ENDBRANCH   6  24
TORSDOF 8
ENDMDL
MODEL 2
REMARK VINA RESULT:      -7.8      3.885      5.485
REMARK  8 active torsions:
REMARK  status: ('A' for Active; 'I' for Inactive)
REMARK    1  A    between atoms: C_1  and  C_13 
REMARK       I    between atoms: C_1  and  N_20 
REMARK    2  A    between atoms: C_2  and  N_20 
REMARK    3  A    between atoms: C_3  and  C_6 
REMARK    4  A    between atoms: C_6  and  C_7 
REMARK    5  A    between atoms: C_9  and  C_10 
REMARK    6  A    between atoms: C_9  and  N_19 
REMARK    7  A    between atoms: C_18  and  N_19 
REMARK    8  A    between atoms: C_23  and  C_24 
ROOT
HETATM    1  C   UNK N   1      24.201  15.387   2.685  0.00  0.00     0.058 A 
HETATM    2  C   UNK N   1      24.769  14.732   1.581  0.00  0.00     0.019 A 
HETATM    3  C   UNK N   1      23.979  14.047   0.669  0.00  0.00     0.001 A 
HETATM    4  C   UNK N   1      22.600  14.050   0.821  0.00  0.00     0.002 A 
HETATM    5  C   UNK N   1      22.024  14.728   1.892  0.00  0.00     0.030 A 
HETATM    6  C   UNK N   1      22.802  15.389   2.860  0.00  0.00     0.044 A 
ENDROOT
BRANCH   1   7
HETATM    7  C   UNK N   1      25.114  16.142   3.533  0.00  0.00     0.258 C 
HETATM    8  O   UNK N   1      24.894  16.109   4.737  0.00  0.00    -0.267 OA
HETATM    9  N   UNK N   1      26.213  16.797   3.046  0.00  0.00    -0.323 N 
HETATM   10  H   UNK N   1      26.378  16.827   2.075  0.00  0.00     0.169 HD
BRANCH   9  11
HETATM   11  C   UNK N   1      27.115  17.436   3.941  0.00  0.00     0.035 A 
HETATM   12  C   UNK N   1      26.930  18.789   4.254  0.00  0.00     0.046 A 
HETATM   13  C   UNK N   1      27.357  19.330   5.458  0.00  0.00     0.056 A 
HETATM   14  C   UNK N   1      28.032  18.480   6.370  0.00  0.00    -0.043 A 
HETATM   15  C   UNK N   1      28.334  17.160   5.998  0.00  0.00     0.010 A 
HETATM   16  C   UNK N   1      27.865  16.635   4.794  0.00  0.00     0.030 A 
BRANCH  13  17
HETATM   17  C   UNK N   1      26.945  20.760   5.737  0.00  0.00     0.418 C 
HETATM   18  F   UNK N   1      28.062  21.504   6.072  0.00  0.00    -0.166 F 
HETATM   19  F   UNK N   1      26.388  21.299   4.587  0.00  0.00    -0.166 F 
HETATM   20  F   UNK N   1      26.017  20.879   6.752  0.00  0.00    -0.166 F 
ENDBRANCH  13  17
BRANCH  14  21
HETATM   21  C   UNK N   1      28.358  18.912   7.761  0.00  0.00     0.039 C 
BRANCH  21  22
HETATM   22  C   UNK N   1      29.538  18.164   8.330  0.00  0.00     0.000 C 
HETATM   23  C   UNK N   1      29.515  18.306   9.835  0.00  0.00     0.005 C 
ENDBRANCH  21  22
ENDBRANCH  14  21
ENDBRANCH   9  11
ENDBRANCH   1   7
BRANCH   6  24
HETATM   24  N   UNK N   1      22.204  16.131   3.938  0.00  0.00    -0.385 N 
HETATM   25  H   UNK N   1      22.669  16.086   4.805  0.00  0.00     0.160 HD
BRANCH  24  26
HETATM   26  C   UNK N   1      20.986  16.943   3.903  0.00  0.00     0.160 C 
BRANCH  26  27
HETATM   27  C   UNK N   1      21.101  18.131   3.013  0.00  0.00    -0.025 A 
HETATM   28  C   UNK N   1      20.305  18.217   1.864  0.00  0.00     0.100 A 
HETATM   29  N   UNK N   1      20.237  19.380   1.170  0.00  0.00    -0.333 N 
HETATM   30  C   UNK N   1      20.925  20.502   1.578  0.00  0.00     0.245 A 
HETATM   31  H   UNK N   1      19.684  19.424   0.357  0.00  0.00     0.168 HD
HETATM   32  C   UNK N   1      21.756  20.434   2.702  0.00  0.00     0.075 A 
HETATM   33  O   UNK N   1      20.807  21.541   0.972  0.00  0.00    -0.268 OA
HETATM   34  C   UNK N   1      21.843  19.246   3.421  0.00  0.00     0.015 A 
ENDBRANCH  26  27
ENDBRANCH  24  26
ENDBRANCH   6  24
TORSDOF 8
ENDMDL
MODEL 3
REMARK VINA RESULT:      -7.7     11.918     15.312
REMARK  8 active torsions:
REMARK  status: ('A' for Active; 'I' for Inactive)
REMARK    1  A    between atoms: C_1  and  C_13 
REMARK       I    between atoms: C_1  and  N_20 
REMARK    2  A    between atoms: C_2  and  N_20 
REMARK    3  A    between atoms: C_3  and  C_6 
REMARK    4  A    between atoms: C_6  and  C_7 
REMARK    5  A    between atoms: C_9  and  C_10 
REMARK    6  A    between atoms: C_9  and  N_19 
REMARK    7  A    between atoms: C_18  and  N_19 
REMARK    8  A    between atoms: C_23  and  C_24 
ROOT
HETATM    1  C   UNK N   1      28.340  20.966  -9.331  0.00  0.00     0.058 A 
HETATM    2  C   UNK N   1      28.116  20.771 -10.702  0.00  0.00     0.019 A 
HETATM    3  C   UNK N   1      28.884  19.877 -11.435  0.00  0.00     0.001 A 
HETATM    4  C   UNK N   1      29.856  19.125 -10.792  0.00  0.00     0.002 A 
HETATM    5  C   UNK N   1      30.061  19.284  -9.424  0.00  0.00     0.030 A 
HETATM    6  C   UNK N   1      29.332  20.218  -8.666  0.00  0.00     0.044 A 
ENDROOT
BRANCH   1   7
HETATM    7  C   UNK N   1      27.424  21.867  -8.644  0.00  0.00     0.258 C 
HETATM    8  O   UNK N   1      26.394  21.370  -8.208  0.00  0.00    -0.267 OA
HETATM    9  N   UNK N   1      27.709  23.187  -8.414  0.00  0.00    -0.323 N 
HETATM   10  H   UNK N   1      28.535  23.582  -8.776  0.00  0.00     0.169 HD
BRANCH   9  11
HETATM   11  C   UNK N   1      26.811  23.987  -7.654  0.00  0.00     0.035 A 
HETATM   12  C   UNK N   1      26.950  24.043  -6.261  0.00  0.00     0.046 A 
HETATM   13  C   UNK N   1      26.541  25.145  -5.526  0.00  0.00     0.056 A 
HETATM   14  C   UNK N   1      25.931  26.221  -6.218  0.00  0.00    -0.043 A 
HETATM   15  C   UNK N   1      25.671  26.106  -7.594  0.00  0.00     0.010 A 
HETATM   16  C   UNK N   1      26.123  24.999  -8.312  0.00  0.00     0.030 A 
BRANCH  13  17
HETATM   17  C   UNK N   1      26.903  25.145  -4.055  0.00  0.00     0.418 C 
HETATM   18  F   UNK N   1      26.809  23.858  -3.557  0.00  0.00    -0.166 F 
HETATM   19  F   UNK N   1      28.215  25.574  -3.916  0.00  0.00    -0.166 F 
HETATM   20  F   UNK N   1      26.105  25.971  -3.290  0.00  0.00    -0.166 F 
ENDBRANCH  13  17
BRANCH  14  21
HETATM   21  C   UNK N   1      25.633  27.523  -5.551  0.00  0.00     0.039 C 
BRANCH  21  22
HETATM   22  C   UNK N   1      26.803  28.473  -5.603  0.00  0.00     0.000 C 
HETATM   23  C   UNK N   1      26.784  29.326  -4.355  0.00  0.00     0.005 C 
ENDBRANCH  21  22
ENDBRANCH  14  21
ENDBRANCH   9  11
ENDBRANCH   1   7
BRANCH   6  24
HETATM   24  N   UNK N   1      29.511  20.346  -7.244  0.00  0.00    -0.385 N 
HETATM   25  H   UNK N   1      28.688  20.442  -6.711  0.00  0.00     0.160 HD
BRANCH  24  26
HETATM   26  C   UNK N   1      30.768  20.351  -6.492  0.00  0.00     0.160 C 
BRANCH  26  27
HETATM   27  C   UNK N   1      30.634  20.946  -5.133  0.00  0.00    -0.025 A 
HETATM   28  C   UNK N   1      31.497  20.539  -4.109  0.00  0.00     0.100 A 
HETATM   29  N   UNK N   1      31.534  21.224  -2.939  0.00  0.00    -0.333 N 
HETATM   30  C   UNK N   1      30.747  22.335  -2.731  0.00  0.00     0.245 A 
HETATM   31  H   UNK N   1      32.137  20.919  -2.223  0.00  0.00     0.168 HD
HETATM   32  C   UNK N   1      29.849  22.742  -3.725  0.00  0.00     0.075 A 
HETATM   33  O   UNK N   1      30.836  22.958  -1.700  0.00  0.00    -0.268 OA
HETATM   34  C   UNK N   1      29.793  22.046  -4.928  0.00  0.00     0.015 A 
ENDBRANCH  26  27
ENDBRANCH  24  26
ENDBRANCH   6  24
TORSDOF 8
ENDMDL
MODEL 4
REMARK VINA RESULT:      -7.6      5.541      9.927
REMARK  8 active torsions:
REMARK  status: ('A' for Active; 'I' for Inactive)
REMARK    1  A    between atoms: C_1  and  C_13 
REMARK       I    between atoms: C_1  and  N_20 
REMARK    2  A    between atoms: C_2  and  N_20 
REMARK    3  A    between atoms: C_3  and  C_6 
REMARK    4  A    between atoms: C_6  and  C_7 
REMARK    5  A    between atoms: C_9  and  C_10 
REMARK    6  A    between atoms: C_9  and  N_19 
REMARK    7  A    between atoms: C_18  and  N_19 
REMARK    8  A    between atoms: C_23  and  C_24 
ROOT
HETATM    1  C   UNK N   1      34.275  15.511   9.421  0.00  0.00     0.058 A 
HETATM    2  C   UNK N   1      34.246  15.273  10.804  0.00  0.00     0.019 A 
HETATM    3  C   UNK N   1      35.129  14.383  11.397  0.00  0.00     0.001 A 
HETATM    4  C   UNK N   1      36.091  13.753  10.620  0.00  0.00     0.002 A 
HETATM    5  C   UNK N   1      36.152  14.012   9.253  0.00  0.00     0.030 A 
HETATM    6  C   UNK N   1      35.239  14.871   8.616  0.00  0.00     0.044 A 
ENDROOT
BRANCH   1   7
HETATM    7  C   UNK N   1      33.358  16.525   8.917  0.00  0.00     0.258 C 
HETATM    8  O   UNK N   1      33.865  17.547   8.472  0.00  0.00    -0.267 OA
HETATM    9  N   UNK N   1      32.003  16.340   8.857  0.00  0.00    -0.323 N 
HETATM   10  H   UNK N   1      31.601  15.520   9.225  0.00  0.00     0.169 HD
BRANCH   9  11
HETATM   11  C   UNK N   1      31.175  17.334   8.265  0.00  0.00     0.035 A 
HETATM   12  C   UNK N   1      30.673  17.131   6.973  0.00  0.00     0.046 A 
HETATM   13  C   UNK N   1      29.486  17.707   6.546  0.00  0.00     0.056 A 
HETATM   14  C   UNK N   1      28.793  18.554   7.447  0.00  0.00    -0.043 A 
HETATM   15  C   UNK N   1      29.365  18.863   8.692  0.00  0.00     0.010 A 
HETATM   16  C   UNK N   1      30.544  18.243   9.107  0.00  0.00     0.030 A 
BRANCH  13  17
HETATM   17  C   UNK N   1      28.976  17.270   5.188  0.00  0.00     0.418 C 
HETATM   18  F   UNK N   1      28.910  18.366   4.347  0.00  0.00    -0.166 F 
HETATM   19  F   UNK N   1      29.866  16.355   4.648  0.00  0.00    -0.166 F 
HETATM   20  F   UNK N   1      27.731  16.675   5.232  0.00  0.00    -0.166 F 
ENDBRANCH  13  17
BRANCH  14  21
HETATM   21  C   UNK N   1      27.421  19.065   7.156  0.00  0.00     0.039 C 
BRANCH  21  22
HETATM   22  C   UNK N   1      27.445  20.397   6.449  0.00  0.00     0.000 C 
HETATM   23  C   UNK N   1      26.382  21.283   7.059  0.00  0.00     0.005 C 
ENDBRANCH  21  22
ENDBRANCH  14  21
ENDBRANCH   9  11
ENDBRANCH   1   7
BRANCH   6  24
HETATM   24  N   UNK N   1      35.334  15.175   7.213  0.00  0.00    -0.385 N 
HETATM   25  H   UNK N   1      35.789  16.017   6.982  0.00  0.00     0.160 HD
BRANCH  24  26
HETATM   26  C   UNK N   1      34.836  14.383   6.085  0.00  0.00     0.160 C 
BRANCH  26  27
HETATM   27  C   UNK N   1      34.274  15.219   4.988  0.00  0.00    -0.025 A 
HETATM   28  C   UNK N   1      34.036  14.647   3.733  0.00  0.00     0.100 A 
HETATM   29  N   UNK N   1      33.326  15.328   2.800  0.00  0.00    -0.333 N 
HETATM   30  C   UNK N   1      32.810  16.578   3.060  0.00  0.00     0.245 A 
HETATM   31  H   UNK N   1      33.176  14.919   1.917  0.00  0.00     0.168 HD
HETATM   32  C   UNK N   1      33.064  17.189   4.293  0.00  0.00     0.075 A 
HETATM   33  O   UNK N   1      32.137  17.143   2.230  0.00  0.00    -0.268 OA
HETATM   34  C   UNK N   1      33.797  16.507   5.259  0.00  0.00     0.015 A 
ENDBRANCH  26  27
ENDBRANCH  24  26
ENDBRANCH   6  24
TORSDOF 8
ENDMDL
MODEL 5
REMARK VINA RESULT:      -7.5      3.456      4.621
REMARK  8 active torsions:
REMARK  status: ('A' for Active; 'I' for Inactive)
REMARK    1  A    between atoms: C_1  and  C_13 
REMARK       I    between atoms: C_1  and  N_20 
REMARK    2  A    between atoms: C_2  and  N_20 
REMARK    3  A    between atoms: C_3  and  C_6 
REMARK    4  A    between atoms: C_6  and  C_7 
REMARK    5  A    between atoms: C_9  and  C_10 
REMARK    6  A    between atoms: C_9  and  N_19 
REMARK    7  A    between atoms: C_18  and  N_19 
REMARK    8  A    between atoms: C_23  and  C_24 
ROOT
HETATM    1  C   UNK N   1      25.981  15.942   3.543  0.00  0.00     0.058 A 
HETATM    2  C   UNK N   1      26.333  15.029   2.537  0.00  0.00     0.019 A 
HETATM    3  C   UNK N   1      25.364  14.362   1.802  0.00  0.00     0.001 A 
HETATM    4  C   UNK N   1      24.023  14.638   2.029  0.00  0.00     0.002 A 
HETATM    5  C   UNK N   1      23.664  15.570   3.000  0.00  0.00     0.030 A 
HETATM    6  C   UNK N   1      24.623  16.225   3.794  0.00  0.00     0.044 A 
ENDROOT
BRANCH   1   7
HETATM    7  C   UNK N   1      27.078  16.645   4.195  0.00  0.00     0.258 C 
HETATM    8  O   UNK N   1      27.214  17.828   3.910  0.00  0.00    -0.267 OA
HETATM    9  N   UNK N   1      27.879  16.062   5.140  0.00  0.00    -0.323 N 
HETATM   10  H   UNK N   1      27.769  15.108   5.357  0.00  0.00     0.169 HD
BRANCH   9  11
HETATM   11  C   UNK N   1      28.871  16.834   5.806  0.00  0.00     0.035 A 
HETATM   12  C   UNK N   1      28.626  17.293   7.107  0.00  0.00     0.046 A 
HETATM   13  C   UNK N   1      29.654  17.540   8.004  0.00  0.00     0.056 A 
HETATM   14  C   UNK N   1      30.987  17.353   7.561  0.00  0.00    -0.043 A 
HETATM   15  C   UNK N   1      31.235  17.022   6.219  0.00  0.00     0.010 A 
HETATM   16  C   UNK N   1      30.181  16.749   5.348  0.00  0.00     0.030 A 
BRANCH  13  17
HETATM   17  C   UNK N   1      29.243  17.869   9.425  0.00  0.00     0.418 C 
HETATM   18  F   UNK N   1      29.920  18.998   9.850  0.00  0.00    -0.166 F 
HETATM   19  F   UNK N   1      27.883  18.139   9.447  0.00  0.00    -0.166 F 
HETATM   20  F   UNK N   1      29.486  16.848  10.320  0.00  0.00    -0.166 F 
ENDBRANCH  13  17
BRANCH  14  21
HETATM   21  C   UNK N   1      32.148  17.405   8.499  0.00  0.00     0.039 C 
BRANCH  21  22
HETATM   22  C   UNK N   1      33.294  18.216   7.946  0.00  0.00     0.000 C 
HETATM   23  C   UNK N   1      34.568  17.770   8.626  0.00  0.00     0.005 C 
ENDBRANCH  21  22
ENDBRANCH  14  21
ENDBRANCH   9  11
ENDBRANCH   1   7
BRANCH   6  24
HETATM   24  N   UNK N   1      24.254  17.223   4.762  0.00  0.00    -0.385 N 
HETATM   25  H   UNK N   1      24.997  17.687   5.211  0.00  0.00     0.160 HD
BRANCH  24  26
HETATM   26  C   UNK N   1      22.905  17.634   5.160  0.00  0.00     0.160 C 
BRANCH  26  27
HETATM   27  C   UNK N   1      22.355  18.731   4.316  0.00  0.00    -0.025 A 
HETATM   28  C   UNK N   1      23.227  19.571   3.615  0.00  0.00     0.100 A 
HETATM   29  N   UNK N   1      22.743  20.423   2.678  0.00  0.00    -0.333 N 
HETATM   30  C   UNK N   1      21.400  20.475   2.378  0.00  0.00     0.245 A 
HETATM   31  H   UNK N   1      23.366  21.018   2.201  0.00  0.00     0.168 HD
HETATM   32  C   UNK N   1      20.501  19.671   3.089  0.00  0.00     0.075 A 
HETATM   33  O   UNK N   1      21.000  21.206   1.503  0.00  0.00    -0.268 OA
HETATM   34  C   UNK N   1      20.980  18.797   4.059  0.00  0.00     0.015 A 
ENDBRANCH  26  27
ENDBRANCH  24  26
ENDBRANCH   6  24
TORSDOF 8
ENDMDL
MODEL 6
REMARK VINA RESULT:      -7.5      9.986     14.355
REMARK  8 active torsions:
REMARK  status: ('A' for Active; 'I' for Inactive)
REMARK    1  A    between atoms: C_1  and  C_13 
REMARK       I    between atoms: C_1  and  N_20 
REMARK    2  A    between atoms: C_2  and  N_20 
REMARK    3  A    between atoms: C_3  and  C_6 
REMARK    4  A    between atoms: C_6  and  C_7 
REMARK    5  A    between atoms: C_9  and  C_10 
REMARK    6  A    between atoms: C_9  and  N_19 
REMARK    7  A    between atoms: C_18  and  N_19 
REMARK    8  A    between atoms: C_23  and  C_24 
ROOT
HETATM    1  C   UNK N   1      36.659  13.215  11.959  0.00  0.00     0.058 A 
HETATM    2  C   UNK N   1      37.788  12.422  11.703  0.00  0.00     0.019 A 
HETATM    3  C   UNK N   1      38.611  12.675  10.616  0.00  0.00     0.001 A 
HETATM    4  C   UNK N   1      38.344  13.760   9.793  0.00  0.00     0.002 A 
HETATM    5  C   UNK N   1      37.247  14.575  10.061  0.00  0.00     0.030 A 
HETATM    6  C   UNK N   1      36.367  14.314  11.126  0.00  0.00     0.044 A 
ENDROOT
BRANCH   1   7
HETATM    7  C   UNK N   1      35.913  12.911  13.173  0.00  0.00     0.258 C 
HETATM    8  O   UNK N   1      34.700  12.794  13.053  0.00  0.00    -0.267 OA
HETATM    9  N   UNK N   1      36.516  12.684  14.381  0.00  0.00    -0.323 N 
HETATM   10  H   UNK N   1      37.491  12.789  14.472  0.00  0.00     0.169 HD
BRANCH   9  11
HETATM   11  C   UNK N   1      35.734  12.298  15.505  0.00  0.00     0.035 A 
HETATM   12  C   UNK N   1      35.591  10.938  15.809  0.00  0.00     0.046 A 
HETATM   13  C   UNK N   1      35.356  10.495  17.102  0.00  0.00     0.056 A 
HETATM   14  C   UNK N   1      35.222  11.465  18.126  0.00  0.00    -0.043 A 
HETATM   15  C   UNK N   1      35.232  12.831  17.798  0.00  0.00     0.010 A 
HETATM   16  C   UNK N   1      35.502  13.246  16.495  0.00  0.00     0.030 A 
BRANCH  13  17
HETATM   17  C   UNK N   1      35.390   8.996  17.316  0.00  0.00     0.418 C 
HETATM   18  F   UNK N   1      35.232   8.352  16.102  0.00  0.00    -0.166 F 
HETATM   19  F   UNK N   1      36.626   8.646  17.840  0.00  0.00    -0.166 F 
HETATM   20  F   UNK N   1      34.419   8.540  18.185  0.00  0.00    -0.166 F 
ENDBRANCH  13  17
BRANCH  14  21
HETATM   21  C   UNK N   1      35.160  11.088  19.570  0.00  0.00     0.039 C 
BRANCH  21  22
HETATM   22  C   UNK N   1      36.530  10.871  20.163  0.00  0.00     0.000 C 
HETATM   23  C   UNK N   1      36.397   9.940  21.348  0.00  0.00     0.005 C 
ENDBRANCH  21  22
ENDBRANCH  14  21
ENDBRANCH   9  11
ENDBRANCH   1   7
BRANCH   6  24
HETATM   24  N   UNK N   1      35.263  15.185  11.430  0.00  0.00    -0.385 N 
HETATM   25  H   UNK N   1      35.359  15.741  12.237  0.00  0.00     0.160 HD
BRANCH  24  26
HETATM   26  C   UNK N   1      34.012  15.345  10.685  0.00  0.00     0.160 C 
BRANCH  26  27
HETATM   27  C   UNK N   1      34.203  15.979   9.351  0.00  0.00    -0.025 A 
HETATM   28  C   UNK N   1      33.915  15.252   8.190  0.00  0.00     0.100 A 
HETATM   29  N   UNK N   1      33.871  15.881   6.989  0.00  0.00    -0.333 N 
HETATM   30  C   UNK N   1      34.089  17.236   6.878  0.00  0.00     0.245 A 
HETATM   31  H   UNK N   1      33.679  15.356   6.178  0.00  0.00     0.168 HD
HETATM   32  C   UNK N   1      34.414  17.980   8.018  0.00  0.00     0.075 A 
HETATM   33  O   UNK N   1      33.993  17.781   5.804  0.00  0.00    -0.268 OA
HETATM   34  C   UNK N   1      34.470  17.350   9.257  0.00  0.00     0.015 A 
ENDBRANCH  26  27
ENDBRANCH  24  26
ENDBRANCH   6  24
TORSDOF 8
ENDMDL
MODEL 7
REMARK VINA RESULT:      -7.5     12.282     15.406
REMARK  8 active torsions:
REMARK  status: ('A' for Active; 'I' for Inactive)
REMARK    1  A    between atoms: C_1  and  C_13 
REMARK       I    between atoms: C_1  and  N_20 
REMARK    2  A    between atoms: C_2  and  N_20 
REMARK    3  A    between atoms: C_3  and  C_6 
REMARK    4  A    between atoms: C_6  and  C_7 
REMARK    5  A    between atoms: C_9  and  C_10 
REMARK    6  A    between atoms: C_9  and  N_19 
REMARK    7  A    between atoms: C_18  and  N_19 
REMARK    8  A    between atoms: C_23  and  C_24 
ROOT
HETATM    1  C   UNK N   1      26.714  23.256  -7.377  0.00  0.00     0.058 A 
HETATM    2  C   UNK N   1      25.397  22.775  -7.426  0.00  0.00     0.019 A 
HETATM    3  C   UNK N   1      25.125  21.461  -7.780  0.00  0.00     0.001 A 
HETATM    4  C   UNK N   1      26.176  20.593  -8.043  0.00  0.00     0.002 A 
HETATM    5  C   UNK N   1      27.488  21.052  -7.961  0.00  0.00     0.030 A 
HETATM    6  C   UNK N   1      27.791  22.391  -7.652  0.00  0.00     0.044 A 
ENDROOT
BRANCH   1   7
HETATM    7  C   UNK N   1      26.888  24.627  -6.914  0.00  0.00     0.258 C 
HETATM    8  O   UNK N   1      27.660  24.793  -5.978  0.00  0.00    -0.267 OA
HETATM    9  N   UNK N   1      26.295  25.700  -7.524  0.00  0.00    -0.323 N 
HETATM   10  H   UNK N   1      25.668  25.558  -8.271  0.00  0.00     0.169 HD
BRANCH   9  11
HETATM   11  C   UNK N   1      26.583  27.020  -7.079  0.00  0.00     0.035 A 
HETATM   12  C   UNK N   1      26.137  27.433  -5.816  0.00  0.00     0.046 A 
HETATM   13  C   UNK N   1      26.795  28.413  -5.090  0.00  0.00     0.056 A 
HETATM   14  C   UNK N   1      27.928  29.032  -5.675  0.00  0.00    -0.043 A 
HETATM   15  C   UNK N   1      28.293  28.712  -6.993  0.00  0.00     0.010 A 
HETATM   16  C   UNK N   1      27.632  27.699  -7.688  0.00  0.00     0.030 A 
BRANCH  13  17
HETATM   17  C   UNK N   1      26.307  28.643  -3.674  0.00  0.00     0.418 C 
HETATM   18  F   UNK N   1      25.977  29.976  -3.511  0.00  0.00    -0.166 F 
HETATM   19  F   UNK N   1      25.168  27.880  -3.463  0.00  0.00    -0.166 F 
HETATM   20  F   UNK N   1      27.232  28.298  -2.709  0.00  0.00    -0.166 F 
ENDBRANCH  13  17
BRANCH  14  21
HETATM   21  C   UNK N   1      28.813  29.954  -4.903  0.00  0.00     0.039 C 
BRANCH  21  22
HETATM   22  C   UNK N   1      29.992  29.238  -4.293  0.00  0.00     0.000 C 
HETATM   23  C   UNK N   1      30.365  29.940  -3.006  0.00  0.00     0.005 C 
ENDBRANCH  21  22
ENDBRANCH  14  21
ENDBRANCH   9  11
ENDBRANCH   1   7
BRANCH   6  24
HETATM   24  N   UNK N   1      29.148  22.851  -7.520  0.00  0.00    -0.385 N 
HETATM   25  H   UNK N   1      29.317  23.783  -7.786  0.00  0.00     0.160 HD
BRANCH  24  26
HETATM   26  C   UNK N   1      30.309  22.100  -7.036  0.00  0.00     0.160 C 
BRANCH  26  27
HETATM   27  C   UNK N   1      30.568  22.296  -5.582  0.00  0.00    -0.025 A 
HETATM   28  C   UNK N   1      30.822  23.581  -5.090  0.00  0.00     0.100 A 
HETATM   29  N   UNK N   1      30.839  23.805  -3.753  0.00  0.00    -0.333 N 
HETATM   30  C   UNK N   1      30.593  22.794  -2.851  0.00  0.00     0.245 A 
HETATM   31  H   UNK N   1      31.031  24.711  -3.419  0.00  0.00     0.168 HD
HETATM   32  C   UNK N   1      30.371  21.492  -3.315  0.00  0.00     0.075 A 
HETATM   33  O   UNK N   1      30.562  23.030  -1.666  0.00  0.00    -0.268 OA
HETATM   34  C   UNK N   1      30.358  21.243  -4.684  0.00  0.00     0.015 A 
ENDBRANCH  26  27
ENDBRANCH  24  26
ENDBRANCH   6  24
TORSDOF 8
ENDMDL
MODEL 8
REMARK VINA RESULT:      -7.5      7.145     11.019
REMARK  8 active torsions:
REMARK  status: ('A' for Active; 'I' for Inactive)
REMARK    1  A    between atoms: C_1  and  C_13 
REMARK       I    between atoms: C_1  and  N_20 
REMARK    2  A    between atoms: C_2  and  N_20 
REMARK    3  A    between atoms: C_3  and  C_6 
REMARK    4  A    between atoms: C_6  and  C_7 
REMARK    5  A    between atoms: C_9  and  C_10 
REMARK    6  A    between atoms: C_9  and  N_19 
REMARK    7  A    between atoms: C_18  and  N_19 
REMARK    8  A    between atoms: C_23  and  C_24 
ROOT
HETATM    1  C   UNK N   1      35.067  14.370   8.417  0.00  0.00     0.058 A 
HETATM    2  C   UNK N   1      35.551  13.203   7.807  0.00  0.00     0.019 A 
HETATM    3  C   UNK N   1      35.851  13.172   6.453  0.00  0.00     0.001 A 
HETATM    4  C   UNK N   1      35.719  14.329   5.697  0.00  0.00     0.002 A 
HETATM    5  C   UNK N   1      35.275  15.502   6.302  0.00  0.00     0.030 A 
HETATM    6  C   UNK N   1      34.916  15.550   7.661  0.00  0.00     0.044 A 
ENDROOT
BRANCH   1   7
HETATM    7  C   UNK N   1      34.862  14.313   9.859  0.00  0.00     0.258 C 
HETATM    8  O   UNK N   1      33.849  14.850  10.288  0.00  0.00    -0.267 OA
HETATM    9  N   UNK N   1      35.698  13.634  10.704  0.00  0.00    -0.323 N 
HETATM   10  H   UNK N   1      36.516  13.212  10.352  0.00  0.00     0.169 HD
BRANCH   9  11
HETATM   11  C   UNK N   1      35.387  13.539  12.088  0.00  0.00     0.035 A 
HETATM   12  C   UNK N   1      34.628  12.455  12.550  0.00  0.00     0.046 A 
HETATM   13  C   UNK N   1      34.740  11.981  13.848  0.00  0.00     0.056 A 
HETATM   14  C   UNK N   1      35.625  12.649  14.730  0.00  0.00    -0.043 A 
HETATM   15  C   UNK N   1      36.283  13.815  14.305  0.00  0.00     0.010 A 
HETATM   16  C   UNK N   1      36.177  14.250  12.985  0.00  0.00     0.030 A 
BRANCH  13  17
HETATM   17  C   UNK N   1      33.990  10.703  14.164  0.00  0.00     0.418 C 
HETATM   18  F   UNK N   1      33.007  10.966  15.101  0.00  0.00    -0.166 F 
HETATM   19  F   UNK N   1      33.380  10.242  13.007  0.00  0.00    -0.166 F 
HETATM   20  F   UNK N   1      34.798   9.694  14.647  0.00  0.00    -0.166 F 
ENDBRANCH  13  17
BRANCH  14  21
HETATM   21  C   UNK N   1      35.959  12.104  16.079  0.00  0.00     0.039 C 
BRANCH  21  22
HETATM   22  C   UNK N   1      35.147  12.750  17.174  0.00  0.00     0.000 C 
HETATM   23  C   UNK N   1      35.272  11.909  18.424  0.00  0.00     0.005 C 
ENDBRANCH  21  22
ENDBRANCH  14  21
ENDBRANCH   9  11
ENDBRANCH   1   7
BRANCH   6  24
HETATM   24  N   UNK N   1      34.505  16.774   8.295  0.00  0.00    -0.385 N 
HETATM   25  H   UNK N   1      34.791  16.896   9.229  0.00  0.00     0.160 HD
BRANCH  24  26
HETATM   26  C   UNK N   1      33.711  17.863   7.719  0.00  0.00     0.160 C 
BRANCH  26  27
HETATM   27  C   UNK N   1      32.274  17.511   7.549  0.00  0.00    -0.025 A 
HETATM   28  C   UNK N   1      31.365  17.787   8.577  0.00  0.00     0.100 A 
HETATM   29  N   UNK N   1      30.032  17.679   8.353  0.00  0.00    -0.333 N 
HETATM   30  C   UNK N   1      29.537  17.317   7.120  0.00  0.00     0.245 A 
HETATM   31  H   UNK N   1      29.404  17.864   9.089  0.00  0.00     0.168 HD
HETATM   32  C   UNK N   1      30.424  17.000   6.084  0.00  0.00     0.075 A 
HETATM   33  O   UNK N   1      28.344  17.277   6.931  0.00  0.00    -0.268 OA
HETATM   34  C   UNK N   1      31.795  17.099   6.299  0.00  0.00     0.015 A 
ENDBRANCH  26  27
ENDBRANCH  24  26
ENDBRANCH   6  24
TORSDOF 8
ENDMDL
MODEL 9
REMARK VINA RESULT:      -7.4     11.952     13.729
REMARK  8 active torsions:
REMARK  status: ('A' for Active; 'I' for Inactive)
REMARK    1  A    between atoms: C_1  and  C_13 
REMARK       I    between atoms: C_1  and  N_20 
REMARK    2  A    between atoms: C_2  and  N_20 
REMARK    3  A    between atoms: C_3  and  C_6 
REMARK    4  A    between atoms: C_6  and  C_7 
REMARK    5  A    between atoms: C_9  and  C_10 
REMARK    6  A    between atoms: C_9  and  N_19 
REMARK    7  A    between atoms: C_18  and  N_19 
REMARK    8  A    between atoms: C_23  and  C_24 
ROOT
HETATM    1  C   UNK N   1      27.099  26.819  -3.895  0.00  0.00     0.058 A 
HETATM    2  C   UNK N   1      27.617  27.697  -2.930  0.00  0.00     0.019 A 
HETATM    3  C   UNK N   1      27.243  29.033  -2.901  0.00  0.00     0.001 A 
HETATM    4  C   UNK N   1      26.303  29.499  -3.809  0.00  0.00     0.002 A 
HETATM    5  C   UNK N   1      25.755  28.627  -4.746  0.00  0.00     0.030 A 
HETATM    6  C   UNK N   1      26.152  27.280  -4.831  0.00  0.00     0.044 A 
ENDROOT
BRANCH   1   7
HETATM    7  C   UNK N   1      27.498  25.422  -3.782  0.00  0.00     0.258 C 
HETATM    8  O   UNK N   1      26.646  24.643  -3.374  0.00  0.00    -0.267 OA
HETATM    9  N   UNK N   1      28.726  24.963  -4.179  0.00  0.00    -0.323 N 
HETATM   10  H   UNK N   1      29.408  25.597  -4.497  0.00  0.00     0.169 HD
BRANCH   9  11
HETATM   11  C   UNK N   1      29.015  23.571  -4.130  0.00  0.00     0.035 A 
HETATM   12  C   UNK N   1      29.070  22.837  -5.322  0.00  0.00     0.046 A 
HETATM   13  C   UNK N   1      29.847  21.696  -5.446  0.00  0.00     0.056 A 
HETATM   14  C   UNK N   1      30.569  21.252  -4.311  0.00  0.00    -0.043 A 
HETATM   15  C   UNK N   1      30.407  21.912  -3.081  0.00  0.00     0.010 A 
HETATM   16  C   UNK N   1      29.644  23.076  -2.994  0.00  0.00     0.030 A 
BRANCH  13  17
HETATM   17  C   UNK N   1      29.948  21.098  -6.835  0.00  0.00     0.418 C 
HETATM   18  F   UNK N   1      29.666  19.745  -6.775  0.00  0.00    -0.166 F 
HETATM   19  F   UNK N   1      29.008  21.706  -7.654  0.00  0.00    -0.166 F 
HETATM   20  F   UNK N   1      31.187  21.264  -7.418  0.00  0.00    -0.166 F 
ENDBRANCH  13  17
BRANCH  14  21
HETATM   21  C   UNK N   1      31.577  20.154  -4.393  0.00  0.00     0.039 C 
BRANCH  21  22
HETATM   22  C   UNK N   1      32.973  20.675  -4.628  0.00  0.00     0.000 C 
HETATM   23  C   UNK N   1      33.703  20.706  -3.305  0.00  0.00     0.005 C 
ENDBRANCH  21  22
ENDBRANCH  14  21
ENDBRANCH   9  11
ENDBRANCH   1   7
BRANCH   6  24
HETATM   24  N   UNK N   1      25.549  26.368  -5.767  0.00  0.00    -0.385 N 
HETATM   25  H   UNK N   1      24.776  25.857  -5.436  0.00  0.00     0.160 HD
BRANCH  24  26
HETATM   26  C   UNK N   1      25.947  26.108  -7.152  0.00  0.00     0.160 C 
BRANCH  26  27
HETATM   27  C   UNK N   1      25.726  24.696  -7.569  0.00  0.00    -0.025 A 
HETATM   28  C   UNK N   1      25.679  24.373  -8.930  0.00  0.00     0.100 A 
HETATM   29  N   UNK N   1      25.702  23.075  -9.321  0.00  0.00    -0.333 N 
HETATM   30  C   UNK N   1      25.786  22.049  -8.406  0.00  0.00     0.245 A 
HETATM   31  H   UNK N   1      25.655  22.861 -10.281  0.00  0.00     0.168 HD
HETATM   32  C   UNK N   1      25.798  22.342  -7.037  0.00  0.00     0.075 A 
HETATM   33  O   UNK N   1      25.857  20.903  -8.782  0.00  0.00    -0.268 OA
HETATM   34  C   UNK N   1      25.769  23.669  -6.619  0.00  0.00     0.015 A 
ENDBRANCH  26  27
ENDBRANCH  24  26
ENDBRANCH   6  24
TORSDOF 8
ENDMDL
