MODEL 1
REMARK VINA RESULT:      -8.1      0.000      0.000
REMARK  5 active torsions:
REMARK  status: ('A' for Active; 'I' for Inactive)
REMARK    1  A    between atoms: C_2  and  C_3 
REMARK    2  A    between atoms: C_8  and  C_9 
REMARK    3  A    between atoms: N_20  and  C_19 
REMARK    4  A    between atoms: N_20  and  C_21 
REMARK    5  A    between atoms: C_25  and  O_26 
ROOT
HETATM    1  C   UNK N   1      34.995  14.867  11.223  0.00  0.00    -0.007 A 
HETATM    2  C   UNK N   1      35.399  16.130  10.759  0.00  0.00     0.044 A 
HETATM    3  C   UNK N   1      33.931  14.213  10.596  0.00  0.00     0.015 A 
HETATM    4  C   UNK N   1      33.246  14.822   9.555  0.00  0.00     0.017 A 
HETATM    5  C   UNK N   1      33.595  16.105   9.119  0.00  0.00     0.017 A 
HETATM    6  C   UNK N   1      34.713  16.745   9.702  0.00  0.00     0.045 A 
HETATM    7  N   UNK N   1      35.101  17.971   9.259  0.00  0.00    -0.365 N 
ATOM      8  HN  UNK N   1      35.907  18.425   9.691  1.00  0.00     0.165 HD
HETATM    9  C   UNK N   1      34.442  18.604   8.253  0.00  0.00     0.090 A 
HETATM   10  C   UNK N   1      33.312  18.023   7.671  0.00  0.00     0.047 A 
HETATM   11  C   UNK N   1      32.862  16.775   8.112  0.00  0.00     0.046 A 
ENDROOT
BRANCH  11  12
HETATM   12  N   UNK N   1      31.675  16.234   7.530  0.00  0.00    -0.355 N 
HETATM   13  H   UNK N   1      31.705  15.300   7.219  0.00  0.00     0.166 HD
BRANCH  12  14
HETATM   14  C   UNK N   1      30.447  16.947   7.364  0.00  0.00     0.041 A 
HETATM   15  C   UNK N   1      29.636  17.258   8.472  0.00  0.00     0.066 A 
HETATM   16  C   UNK N   1      28.425  17.928   8.306  0.00  0.00     0.067 A 
HETATM   17  C   UNK N   1      28.016  18.318   7.031  0.00  0.00     0.037 A 
HETATM   18  C   UNK N   1      28.825  18.045   5.924  0.00  0.00     0.012 A 
HETATM   19  C   UNK N   1      30.038  17.363   6.085  0.00  0.00    -0.035 A 
HETATM   20  C   UNK N   1      30.873  17.077   4.884  0.00  0.00     0.050 C 
BRANCH  16  21
HETATM   21  O   UNK N   1      27.650  18.187   9.371  0.00  0.00    -0.361 OA
HETATM   22  H   UNK N   1      27.630  18.839  10.044  0.00  0.00     0.217 HD
ENDBRANCH  16  21
ENDBRANCH  12  14
ENDBRANCH  11  12
BRANCH   1  23
HETATM   23  C   UNK N   1      35.622  14.257  12.409  0.00  0.00     0.050 A 
HETATM   24  C   UNK N   1      35.617  12.862  12.632  0.00  0.00     0.082 A 
HETATM   25  S   UNK N   1      36.338  12.665  14.108  0.00  0.00    -0.079 SA
HETATM   26  C   UNK N   1      36.632  14.254  14.439  0.00  0.00     0.112 A 
HETATM   27  N   UNK N   1      36.185  15.018  13.414  0.00  0.00    -0.347 N 
ATOM     28  HN  UNK N   1      36.255  16.035  13.389  1.00  0.00     0.167 HD
BRANCH  26  29
HETATM   29  C   UNK N   1      37.246  14.788  15.655  0.00  0.00     0.295 C 
HETATM   30  O   UNK N   1      37.649  15.940  15.691  0.00  0.00    -0.299 OA
ENDBRANCH  26  29
ENDBRANCH   1  23
TORSDOF 5
ENDMDL
MODEL 2
REMARK VINA RESULT:      -7.6      2.195      3.000
REMARK  5 active torsions:
REMARK  status: ('A' for Active; 'I' for Inactive)
REMARK    1  A    between atoms: C_2  and  C_3 
REMARK    2  A    between atoms: C_8  and  C_9 
REMARK    3  A    between atoms: N_20  and  C_19 
REMARK    4  A    between atoms: N_20  and  C_21 
REMARK    5  A    between atoms: C_25  and  O_26 
ROOT
HETATM    1  C   UNK N   1      35.242  14.887  11.339  0.00  0.00    -0.007 A 
HETATM    2  C   UNK N   1      35.462  16.222  10.962  0.00  0.00     0.044 A 
HETATM    3  C   UNK N   1      34.524  14.042  10.489  0.00  0.00     0.015 A 
HETATM    4  C   UNK N   1      33.990  14.526   9.303  0.00  0.00     0.017 A 
HETATM    5  C   UNK N   1      34.147  15.868   8.940  0.00  0.00     0.017 A 
HETATM    6  C   UNK N   1      34.929  16.712   9.762  0.00  0.00     0.045 A 
HETATM    7  N   UNK N   1      35.137  18.007   9.402  0.00  0.00    -0.365 N 
ATOM      8  HN  UNK N   1      35.700  18.608  10.005  1.00  0.00     0.165 HD
HETATM    9  C   UNK N   1      34.614  18.519   8.256  0.00  0.00     0.090 A 
HETATM   10  C   UNK N   1      33.807  17.730   7.432  0.00  0.00     0.047 A 
HETATM   11  C   UNK N   1      33.546  16.400   7.776  0.00  0.00     0.046 A 
ENDROOT
BRANCH  11  12
HETATM   12  N   UNK N   1      32.676  15.639   6.938  0.00  0.00    -0.355 N 
HETATM   13  H   UNK N   1      32.286  14.816   7.313  0.00  0.00     0.166 HD
BRANCH  12  14
HETATM   14  C   UNK N   1      32.329  15.979   5.593  0.00  0.00     0.041 A 
HETATM   15  C   UNK N   1      33.194  15.677   4.524  0.00  0.00     0.066 A 
HETATM   16  C   UNK N   1      32.867  16.035   3.218  0.00  0.00     0.067 A 
HETATM   17  C   UNK N   1      31.658  16.679   2.955  0.00  0.00     0.037 A 
HETATM   18  C   UNK N   1      30.774  16.957   4.001  0.00  0.00     0.012 A 
HETATM   19  C   UNK N   1      31.102  16.609   5.317  0.00  0.00    -0.035 A 
HETATM   20  C   UNK N   1      30.143  16.929   6.412  0.00  0.00     0.050 C 
BRANCH  16  21
HETATM   21  O   UNK N   1      33.720  15.768   2.215  0.00  0.00    -0.361 OA
HETATM   22  H   UNK N   1      33.785  16.000   1.310  0.00  0.00     0.217 HD
ENDBRANCH  16  21
ENDBRANCH  12  14
ENDBRANCH  11  12
BRANCH   1  23
HETATM   23  C   UNK N   1      35.688  14.384  12.651  0.00  0.00     0.050 A 
HETATM   24  C   UNK N   1      35.335  13.102  13.128  0.00  0.00     0.082 A 
HETATM   25  S   UNK N   1      35.971  13.026  14.653  0.00  0.00    -0.079 SA
HETATM   26  C   UNK N   1      36.647  14.530  14.701  0.00  0.00     0.112 A 
HETATM   27  N   UNK N   1      36.412  15.166  13.529  0.00  0.00    -0.347 N 
ATOM     28  HN  UNK N   1      36.732  16.112  13.320  1.00  0.00     0.167 HD
BRANCH  26  29
HETATM   29  C   UNK N   1      37.363  15.124  15.830  0.00  0.00     0.295 C 
HETATM   30  O   UNK N   1      37.539  16.331  15.885  0.00  0.00    -0.299 OA
ENDBRANCH  26  29
ENDBRANCH   1  23
TORSDOF 5
ENDMDL
MODEL 3
REMARK VINA RESULT:      -7.4      2.436      3.142
REMARK  5 active torsions:
REMARK  status: ('A' for Active; 'I' for Inactive)
REMARK    1  A    between atoms: C_2  and  C_3 
REMARK    2  A    between atoms: C_8  and  C_9 
REMARK    3  A    between atoms: N_20  and  C_19 
REMARK    4  A    between atoms: N_20  and  C_21 
REMARK    5  A    between atoms: C_25  and  O_26 
ROOT
HETATM    1  C   UNK N   1      35.771  14.503  11.318  0.00  0.00    -0.007 A 
HETATM    2  C   UNK N   1      36.261  13.832  10.186  0.00  0.00     0.044 A 
HETATM    3  C   UNK N   1      34.909  15.591  11.153  0.00  0.00     0.015 A 
HETATM    4  C   UNK N   1      34.575  16.037   9.882  0.00  0.00     0.017 A 
HETATM    5  C   UNK N   1      35.102  15.418   8.743  0.00  0.00     0.017 A 
HETATM    6  C   UNK N   1      35.920  14.276   8.901  0.00  0.00     0.045 A 
HETATM    7  N   UNK N   1      36.402  13.629   7.806  0.00  0.00    -0.365 N 
ATOM      8  HN  UNK N   1      36.995  12.808   7.932  1.00  0.00     0.165 HD
HETATM    9  C   UNK N   1      36.110  14.050   6.546  0.00  0.00     0.090 A 
HETATM   10  C   UNK N   1      35.332  15.193   6.345  0.00  0.00     0.047 A 
HETATM   11  C   UNK N   1      34.836  15.904   7.441  0.00  0.00     0.046 A 
ENDROOT
BRANCH  11  12
HETATM   12  N   UNK N   1      34.088  17.096   7.199  0.00  0.00    -0.355 N 
HETATM   13  H   UNK N   1      34.401  17.926   7.628  0.00  0.00     0.166 HD
BRANCH  12  14
HETATM   14  C   UNK N   1      32.919  17.177   6.380  0.00  0.00     0.041 A 
HETATM   15  C   UNK N   1      33.023  17.295   4.981  0.00  0.00     0.066 A 
HETATM   16  C   UNK N   1      31.883  17.401   4.186  0.00  0.00     0.067 A 
HETATM   17  C   UNK N   1      30.619  17.367   4.775  0.00  0.00     0.037 A 
HETATM   18  C   UNK N   1      30.499  17.218   6.160  0.00  0.00     0.012 A 
HETATM   19  C   UNK N   1      31.642  17.120   6.964  0.00  0.00    -0.035 A 
HETATM   20  C   UNK N   1      31.480  16.972   8.437  0.00  0.00     0.050 C 
BRANCH  16  21
HETATM   21  O   UNK N   1      32.003  17.548   2.856  0.00  0.00    -0.361 OA
HETATM   22  H   UNK N   1      31.416  17.546   2.126  0.00  0.00     0.217 HD
ENDBRANCH  16  21
ENDBRANCH  12  14
ENDBRANCH  11  12
BRANCH   1  23
HETATM   23  C   UNK N   1      36.213  14.130  12.674  0.00  0.00     0.050 A 
HETATM   24  C   UNK N   1      36.190  12.795  13.135  0.00  0.00     0.082 A 
HETATM   25  S   UNK N   1      36.675  12.882  14.714  0.00  0.00    -0.079 SA
HETATM   26  C   UNK N   1      36.896  14.514  14.802  0.00  0.00     0.112 A 
HETATM   27  N   UNK N   1      36.604  15.073  13.603  0.00  0.00    -0.347 N 
ATOM     28  HN  UNK N   1      36.666  16.073  13.411  1.00  0.00     0.167 HD
BRANCH  26  29
HETATM   29  C   UNK N   1      37.307  15.272  15.984  0.00  0.00     0.295 C 
HETATM   30  O   UNK N   1      37.570  16.462  15.897  0.00  0.00    -0.299 OA
ENDBRANCH  26  29
ENDBRANCH   1  23
TORSDOF 5
ENDMDL
MODEL 4
REMARK VINA RESULT:      -7.2      5.016     10.430
REMARK  5 active torsions:
REMARK  status: ('A' for Active; 'I' for Inactive)
REMARK    1  A    between atoms: C_2  and  C_3 
REMARK    2  A    between atoms: C_8  and  C_9 
REMARK    3  A    between atoms: N_20  and  C_19 
REMARK    4  A    between atoms: N_20  and  C_21 
REMARK    5  A    between atoms: C_25  and  O_26 
ROOT
HETATM    1  C   UNK N   1      27.098  18.270   4.980  0.00  0.00    -0.007 A 
HETATM    2  C   UNK N   1      28.071  17.893   4.040  0.00  0.00     0.044 A 
HETATM    3  C   UNK N   1      27.413  18.252   6.341  0.00  0.00     0.015 A 
HETATM    4  C   UNK N   1      28.661  17.822   6.768  0.00  0.00     0.017 A 
HETATM    5  C   UNK N   1      29.623  17.385   5.850  0.00  0.00     0.017 A 
HETATM    6  C   UNK N   1      29.335  17.464   4.468  0.00  0.00     0.045 A 
HETATM    7  N   UNK N   1      30.274  17.093   3.557  0.00  0.00    -0.365 N 
ATOM      8  HN  UNK N   1      30.053  17.150   2.562  1.00  0.00     0.165 HD
HETATM    9  C   UNK N   1      31.501  16.650   3.940  0.00  0.00     0.090 A 
HETATM   10  C   UNK N   1      31.816  16.525   5.296  0.00  0.00     0.047 A 
HETATM   11  C   UNK N   1      30.873  16.870   6.268  0.00  0.00     0.046 A 
ENDROOT
BRANCH  11  12
HETATM   12  N   UNK N   1      31.210  16.682   7.643  0.00  0.00    -0.355 N 
HETATM   13  H   UNK N   1      30.479  16.469   8.267  0.00  0.00     0.166 HD
BRANCH  12  14
HETATM   14  C   UNK N   1      32.531  16.779   8.182  0.00  0.00     0.041 A 
HETATM   15  C   UNK N   1      33.257  17.982   8.104  0.00  0.00     0.066 A 
HETATM   16  C   UNK N   1      34.555  18.067   8.606  0.00  0.00     0.067 A 
HETATM   17  C   UNK N   1      35.139  16.956   9.215  0.00  0.00     0.037 A 
HETATM   18  C   UNK N   1      34.419  15.764   9.329  0.00  0.00     0.012 A 
HETATM   19  C   UNK N   1      33.118  15.671   8.818  0.00  0.00    -0.035 A 
HETATM   20  C   UNK N   1      32.381  14.382   8.945  0.00  0.00     0.050 C 
BRANCH  16  21
HETATM   21  O   UNK N   1      35.245  19.214   8.492  0.00  0.00    -0.361 OA
HETATM   22  H   UNK N   1      35.296  20.016   8.973  0.00  0.00     0.217 HD
ENDBRANCH  16  21
ENDBRANCH  12  14
ENDBRANCH  11  12
BRANCH   1  23
HETATM   23  C   UNK N   1      25.725  18.606   4.560  0.00  0.00     0.050 A 
HETATM   24  C   UNK N   1      24.623  17.770   4.843  0.00  0.00     0.082 A 
HETATM   25  S   UNK N   1      23.335  18.499   4.103  0.00  0.00    -0.079 SA
HETATM   26  C   UNK N   1      24.134  19.792   3.464  0.00  0.00     0.112 A 
HETATM   27  N   UNK N   1      25.445  19.721   3.796  0.00  0.00    -0.347 N 
ATOM     28  HN  UNK N   1      26.142  20.411   3.515  1.00  0.00     0.167 HD
BRANCH  26  29
HETATM   29  C   UNK N   1      23.553  20.848   2.634  0.00  0.00     0.295 C 
HETATM   30  O   UNK N   1      22.467  21.331   2.916  0.00  0.00    -0.299 OA
ENDBRANCH  26  29
ENDBRANCH   1  23
TORSDOF 5
ENDMDL
MODEL 5
REMARK VINA RESULT:      -7.2     10.663     11.971
REMARK  5 active torsions:
REMARK  status: ('A' for Active; 'I' for Inactive)
REMARK    1  A    between atoms: C_2  and  C_3 
REMARK    2  A    between atoms: C_8  and  C_9 
REMARK    3  A    between atoms: N_20  and  C_19 
REMARK    4  A    between atoms: N_20  and  C_21 
REMARK    5  A    between atoms: C_25  and  O_26 
ROOT
HETATM    1  C   UNK N   1      22.199  14.472   7.990  0.00  0.00    -0.007 A 
HETATM    2  C   UNK N   1      23.119  14.101   6.996  0.00  0.00     0.044 A 
HETATM    3  C   UNK N   1      21.560  15.713   7.908  0.00  0.00     0.015 A 
HETATM    4  C   UNK N   1      21.866  16.594   6.881  0.00  0.00     0.017 A 
HETATM    5  C   UNK N   1      22.824  16.266   5.915  0.00  0.00     0.017 A 
HETATM    6  C   UNK N   1      23.424  14.987   5.953  0.00  0.00     0.045 A 
HETATM    7  N   UNK N   1      24.321  14.628   4.996  0.00  0.00    -0.365 N 
ATOM      8  HN  UNK N   1      24.751  13.704   5.036  1.00  0.00     0.165 HD
HETATM    9  C   UNK N   1      24.657  15.473   3.985  0.00  0.00     0.090 A 
HETATM   10  C   UNK N   1      24.113  16.759   3.927  0.00  0.00     0.047 A 
HETATM   11  C   UNK N   1      23.206  17.179   4.904  0.00  0.00     0.046 A 
ENDROOT
BRANCH  11  12
HETATM   12  N   UNK N   1      22.710  18.517   4.843  0.00  0.00    -0.355 N 
HETATM   13  H   UNK N   1      22.953  19.127   5.577  0.00  0.00     0.166 HD
BRANCH  12  14
HETATM   14  C   UNK N   1      21.885  19.037   3.797  0.00  0.00     0.041 A 
HETATM   15  C   UNK N   1      20.549  18.618   3.654  0.00  0.00     0.066 A 
HETATM   16  C   UNK N   1      19.755  19.105   2.617  0.00  0.00     0.067 A 
HETATM   17  C   UNK N   1      20.277  20.038   1.720  0.00  0.00     0.037 A 
HETATM   18  C   UNK N   1      21.592  20.488   1.869  0.00  0.00     0.012 A 
HETATM   19  C   UNK N   1      22.397  19.995   2.904  0.00  0.00    -0.035 A 
HETATM   20  C   UNK N   1      23.797  20.487   3.029  0.00  0.00     0.050 C 
BRANCH  16  21
HETATM   21  O   UNK N   1      18.493  18.667   2.475  0.00  0.00    -0.361 OA
HETATM   22  H   UNK N   1      17.657  18.907   2.824  0.00  0.00     0.217 HD
ENDBRANCH  16  21
ENDBRANCH  12  14
ENDBRANCH  11  12
BRANCH   1  23
HETATM   23  C   UNK N   1      21.955  13.609   9.160  0.00  0.00     0.050 A 
HETATM   24  C   UNK N   1      20.653  13.247   9.573  0.00  0.00     0.082 A 
HETATM   25  S   UNK N   1      20.874  12.371  10.958  0.00  0.00    -0.079 SA
HETATM   26  C   UNK N   1      22.520  12.453  11.027  0.00  0.00     0.112 A 
HETATM   27  N   UNK N   1      22.980  13.166   9.971  0.00  0.00    -0.347 N 
ATOM     28  HN  UNK N   1      23.968  13.354   9.797  1.00  0.00     0.167 HD
BRANCH  26  29
HETATM   29  C   UNK N   1      23.375  11.885  12.070  0.00  0.00     0.295 C 
HETATM   30  O   UNK N   1      24.591  11.936  11.970  0.00  0.00    -0.299 OA
ENDBRANCH  26  29
ENDBRANCH   1  23
TORSDOF 5
ENDMDL
MODEL 6
REMARK VINA RESULT:      -7.1      3.113      4.269
REMARK  5 active torsions:
REMARK  status: ('A' for Active; 'I' for Inactive)
REMARK    1  A    between atoms: C_2  and  C_3 
REMARK    2  A    between atoms: C_8  and  C_9 
REMARK    3  A    between atoms: N_20  and  C_19 
REMARK    4  A    between atoms: N_20  and  C_21 
REMARK    5  A    between atoms: C_25  and  O_26 
ROOT
HETATM    1  C   UNK N   1      33.630  15.969   8.188  0.00  0.00    -0.007 A 
HETATM    2  C   UNK N   1      33.970  16.407   6.897  0.00  0.00     0.044 A 
HETATM    3  C   UNK N   1      32.284  15.869   8.548  0.00  0.00     0.015 A 
HETATM    4  C   UNK N   1      31.288  16.246   7.658  0.00  0.00     0.017 A 
HETATM    5  C   UNK N   1      31.609  16.742   6.390  0.00  0.00     0.017 A 
HETATM    6  C   UNK N   1      32.965  16.782   5.994  0.00  0.00     0.045 A 
HETATM    7  N   UNK N   1      33.297  17.214   4.747  0.00  0.00    -0.365 N 
ATOM      8  HN  UNK N   1      34.279  17.242   4.474  1.00  0.00     0.165 HD
HETATM    9  C   UNK N   1      32.348  17.606   3.856  0.00  0.00     0.090 A 
HETATM   10  C   UNK N   1      30.998  17.615   4.217  0.00  0.00     0.047 A 
HETATM   11  C   UNK N   1      30.614  17.203   5.496  0.00  0.00     0.046 A 
ENDROOT
BRANCH  11  12
HETATM   12  N   UNK N   1      29.231  17.273   5.848  0.00  0.00    -0.355 N 
HETATM   13  H   UNK N   1      28.803  16.450   6.179  0.00  0.00     0.166 HD
BRANCH  12  14
HETATM   14  C   UNK N   1      28.421  18.448   5.757  0.00  0.00     0.041 A 
HETATM   15  C   UNK N   1      27.910  18.878   4.518  0.00  0.00     0.066 A 
HETATM   16  C   UNK N   1      27.144  20.039   4.426  0.00  0.00     0.067 A 
HETATM   17  C   UNK N   1      26.856  20.775   5.575  0.00  0.00     0.037 A 
HETATM   18  C   UNK N   1      27.330  20.343   6.817  0.00  0.00     0.012 A 
HETATM   19  C   UNK N   1      28.108  19.183   6.913  0.00  0.00    -0.035 A 
HETATM   20  C   UNK N   1      28.607  18.755   8.250  0.00  0.00     0.050 C 
BRANCH  16  21
HETATM   21  O   UNK N   1      26.692  20.452   3.230  0.00  0.00    -0.361 OA
HETATM   22  H   UNK N   1      27.052  20.531   2.368  0.00  0.00     0.217 HD
ENDBRANCH  16  21
ENDBRANCH  12  14
ENDBRANCH  11  12
BRANCH   1  23
HETATM   23  C   UNK N   1      34.671  15.687   9.193  0.00  0.00     0.050 A 
HETATM   24  C   UNK N   1      34.726  16.364  10.432  0.00  0.00     0.082 A 
HETATM   25  S   UNK N   1      36.093  15.793  11.168  0.00  0.00    -0.079 SA
HETATM   26  C   UNK N   1      36.582  14.756   9.982  0.00  0.00     0.112 A 
HETATM   27  N   UNK N   1      35.702  14.801   8.953  0.00  0.00    -0.347 N 
ATOM     28  HN  UNK N   1      35.791  14.246   8.102  1.00  0.00     0.167 HD
BRANCH  26  29
HETATM   29  C   UNK N   1      37.790  13.929   9.994  0.00  0.00     0.295 C 
HETATM   30  O   UNK N   1      38.727  14.192   9.258  0.00  0.00    -0.299 OA
ENDBRANCH  26  29
ENDBRANCH   1  23
TORSDOF 5
ENDMDL
MODEL 7
REMARK VINA RESULT:      -7.1      3.838      6.374
REMARK  5 active torsions:
REMARK  status: ('A' for Active; 'I' for Inactive)
REMARK    1  A    between atoms: C_2  and  C_3 
REMARK    2  A    between atoms: C_8  and  C_9 
REMARK    3  A    between atoms: N_20  and  C_19 
REMARK    4  A    between atoms: N_20  and  C_21 
REMARK    5  A    between atoms: C_25  and  O_26 
ROOT
HETATM    1  C   UNK N   1      30.943  17.017   7.640  0.00  0.00    -0.007 A 
HETATM    2  C   UNK N   1      30.633  16.060   6.660  0.00  0.00     0.044 A 
HETATM    3  C   UNK N   1      29.979  17.959   8.010  0.00  0.00     0.015 A 
HETATM    4  C   UNK N   1      28.741  17.981   7.385  0.00  0.00     0.017 A 
HETATM    5  C   UNK N   1      28.436  17.073   6.364  0.00  0.00     0.017 A 
HETATM    6  C   UNK N   1      29.380  16.076   6.031  0.00  0.00     0.045 A 
HETATM    7  N   UNK N   1      29.085  15.152   5.077  0.00  0.00    -0.365 N 
ATOM      8  HN  UNK N   1      29.776  14.439   4.842  1.00  0.00     0.165 HD
HETATM    9  C   UNK N   1      27.888  15.155   4.432  0.00  0.00     0.090 A 
HETATM   10  C   UNK N   1      26.938  16.143   4.706  0.00  0.00     0.047 A 
HETATM   11  C   UNK N   1      27.209  17.128   5.661  0.00  0.00     0.046 A 
ENDROOT
BRANCH  11  12
HETATM   12  N   UNK N   1      26.237  18.151   5.879  0.00  0.00    -0.355 N 
HETATM   13  H   UNK N   1      25.965  18.330   6.809  0.00  0.00     0.166 HD
BRANCH  12  14
HETATM   14  C   UNK N   1      25.630  18.936   4.850  0.00  0.00     0.041 A 
HETATM   15  C   UNK N   1      24.255  18.819   4.569  0.00  0.00     0.066 A 
HETATM   16  C   UNK N   1      23.669  19.565   3.547  0.00  0.00     0.067 A 
HETATM   17  C   UNK N   1      24.444  20.457   2.805  0.00  0.00     0.037 A 
HETATM   18  C   UNK N   1      25.803  20.607   3.094  0.00  0.00     0.012 A 
HETATM   19  C   UNK N   1      26.398  19.854   4.114  0.00  0.00    -0.035 A 
HETATM   20  C   UNK N   1      27.852  20.029   4.390  0.00  0.00     0.050 C 
BRANCH  16  21
HETATM   21  O   UNK N   1      22.363  19.415   3.271  0.00  0.00    -0.361 OA
HETATM   22  H   UNK N   1      21.784  19.702   2.593  0.00  0.00     0.217 HD
ENDBRANCH  16  21
ENDBRANCH  12  14
ENDBRANCH  11  12
BRANCH   1  23
HETATM   23  C   UNK N   1      32.293  17.096   8.226  0.00  0.00     0.050 A 
HETATM   24  C   UNK N   1      33.260  18.022   7.773  0.00  0.00     0.082 A 
HETATM   25  S   UNK N   1      34.622  17.674   8.645  0.00  0.00    -0.079 SA
HETATM   26  C   UNK N   1      34.018  16.424   9.536  0.00  0.00     0.112 A 
HETATM   27  N   UNK N   1      32.722  16.217   9.199  0.00  0.00    -0.347 N 
ATOM     28  HN  UNK N   1      32.134  15.495   9.617  1.00  0.00     0.167 HD
BRANCH  26  29
HETATM   29  C   UNK N   1      34.751  15.624  10.517  0.00  0.00     0.295 C 
HETATM   30  O   UNK N   1      35.962  15.495  10.431  0.00  0.00    -0.299 OA
ENDBRANCH  26  29
ENDBRANCH   1  23
TORSDOF 5
ENDMDL
MODEL 8
REMARK VINA RESULT:      -7.1      6.369     11.521
REMARK  5 active torsions:
REMARK  status: ('A' for Active; 'I' for Inactive)
REMARK    1  A    between atoms: C_2  and  C_3 
REMARK    2  A    between atoms: C_8  and  C_9 
REMARK    3  A    between atoms: N_20  and  C_19 
REMARK    4  A    between atoms: N_20  and  C_21 
REMARK    5  A    between atoms: C_25  and  O_26 
ROOT
HETATM    1  C   UNK N   1      25.010  17.800   3.939  0.00  0.00    -0.007 A 
HETATM    2  C   UNK N   1      25.323  16.550   3.379  0.00  0.00     0.044 A 
HETATM    3  C   UNK N   1      26.039  18.702   4.223  0.00  0.00     0.015 A 
HETATM    4  C   UNK N   1      27.363  18.353   3.999  0.00  0.00     0.017 A 
HETATM    5  C   UNK N   1      27.697  17.089   3.498  0.00  0.00     0.017 A 
HETATM    6  C   UNK N   1      26.659  16.197   3.146  0.00  0.00     0.045 A 
HETATM    7  N   UNK N   1      26.959  14.983   2.610  0.00  0.00    -0.365 N 
ATOM      8  HN  UNK N   1      26.202  14.346   2.363  1.00  0.00     0.165 HD
HETATM    9  C   UNK N   1      28.247  14.601   2.394  0.00  0.00     0.090 A 
HETATM   10  C   UNK N   1      29.304  15.439   2.758  0.00  0.00     0.047 A 
HETATM   11  C   UNK N   1      29.043  16.685   3.335  0.00  0.00     0.046 A 
ENDROOT
BRANCH  11  12
HETATM   12  N   UNK N   1      30.148  17.493   3.741  0.00  0.00    -0.355 N 
HETATM   13  H   UNK N   1      30.408  18.239   3.153  0.00  0.00     0.166 HD
BRANCH  12  14
HETATM   14  C   UNK N   1      30.906  17.300   4.938  0.00  0.00     0.041 A 
HETATM   15  C   UNK N   1      30.275  17.264   6.196  0.00  0.00     0.066 A 
HETATM   16  C   UNK N   1      31.019  17.105   7.364  0.00  0.00     0.067 A 
HETATM   17  C   UNK N   1      32.403  16.955   7.291  0.00  0.00     0.037 A 
HETATM   18  C   UNK N   1      33.041  16.956   6.048  0.00  0.00     0.012 A 
HETATM   19  C   UNK N   1      32.299  17.126   4.872  0.00  0.00    -0.035 A 
HETATM   20  C   UNK N   1      33.010  17.133   3.562  0.00  0.00     0.050 C 
BRANCH  16  21
HETATM   21  O   UNK N   1      30.402  17.107   8.557  0.00  0.00    -0.361 OA
HETATM   22  H   UNK N   1      30.011  16.460   9.111  0.00  0.00     0.217 HD
ENDBRANCH  16  21
ENDBRANCH  12  14
ENDBRANCH  11  12
BRANCH   1  23
HETATM   23  C   UNK N   1      23.625  18.143   4.306  0.00  0.00     0.050 A 
HETATM   24  C   UNK N   1      22.981  17.584   5.433  0.00  0.00     0.082 A 
HETATM   25  S   UNK N   1      21.440  18.181   5.382  0.00  0.00    -0.079 SA
HETATM   26  C   UNK N   1      21.585  19.089   4.013  0.00  0.00     0.112 A 
HETATM   27  N   UNK N   1      22.844  18.973   3.527  0.00  0.00    -0.347 N 
ATOM     28  HN  UNK N   1      23.175  19.444   2.685  1.00  0.00     0.167 HD
BRANCH  26  29
HETATM   29  C   UNK N   1      20.528  19.878   3.378  0.00  0.00     0.295 C 
HETATM   30  O   UNK N   1      20.119  20.902   3.903  0.00  0.00    -0.299 OA
ENDBRANCH  26  29
ENDBRANCH   1  23
TORSDOF 5
ENDMDL
MODEL 9
REMARK VINA RESULT:      -7.1      6.083      9.585
REMARK  5 active torsions:
REMARK  status: ('A' for Active; 'I' for Inactive)
REMARK    1  A    between atoms: C_2  and  C_3 
REMARK    2  A    between atoms: C_8  and  C_9 
REMARK    3  A    between atoms: N_20  and  C_19 
REMARK    4  A    between atoms: N_20  and  C_21 
REMARK    5  A    between atoms: C_25  and  O_26 
ROOT
HETATM    1  C   UNK N   1      28.395  17.697   5.406  0.00  0.00    -0.007 A 
HETATM    2  C   UNK N   1      28.214  18.802   4.558  0.00  0.00     0.044 A 
HETATM    3  C   UNK N   1      27.288  16.932   5.785  0.00  0.00     0.015 A 
HETATM    4  C   UNK N   1      26.013  17.285   5.367  0.00  0.00     0.017 A 
HETATM    5  C   UNK N   1      25.806  18.419   4.572  0.00  0.00     0.017 A 
HETATM    6  C   UNK N   1      26.927  19.158   4.130  0.00  0.00     0.045 A 
HETATM    7  N   UNK N   1      26.754  20.232   3.315  0.00  0.00    -0.365 N 
ATOM      8  HN  UNK N   1      27.570  20.761   3.005  1.00  0.00     0.165 HD
HETATM    9  C   UNK N   1      25.517  20.618   2.901  0.00  0.00     0.090 A 
HETATM   10  C   UNK N   1      24.379  19.936   3.341  0.00  0.00     0.047 A 
HETATM   11  C   UNK N   1      24.508  18.841   4.199  0.00  0.00     0.046 A 
ENDROOT
BRANCH  11  12
HETATM   12  N   UNK N   1      23.322  18.199   4.669  0.00  0.00    -0.355 N 
HETATM   13  H   UNK N   1      23.240  18.047   5.639  0.00  0.00     0.166 HD
BRANCH  12  14
HETATM   14  C   UNK N   1      22.244  17.761   3.838  0.00  0.00     0.041 A 
HETATM   15  C   UNK N   1      21.176  18.623   3.525  0.00  0.00     0.066 A 
HETATM   16  C   UNK N   1      20.112  18.185   2.738  0.00  0.00     0.067 A 
HETATM   17  C   UNK N   1      20.111  16.886   2.231  0.00  0.00     0.037 A 
HETATM   18  C   UNK N   1      21.180  16.028   2.506  0.00  0.00     0.012 A 
HETATM   19  C   UNK N   1      22.247  16.460   3.305  0.00  0.00    -0.035 A 
HETATM   20  C   UNK N   1      23.366  15.519   3.588  0.00  0.00     0.050 C 
BRANCH  16  21
HETATM   21  O   UNK N   1      19.086  19.011   2.479  0.00  0.00    -0.361 OA
HETATM   22  H   UNK N   1      18.153  18.930   2.441  0.00  0.00     0.217 HD
ENDBRANCH  16  21
ENDBRANCH  12  14
ENDBRANCH  11  12
BRANCH   1  23
HETATM   23  C   UNK N   1      29.720  17.378   5.967  0.00  0.00     0.050 A 
HETATM   24  C   UNK N   1      29.900  17.012   7.319  0.00  0.00     0.082 A 
HETATM   25  S   UNK N   1      31.535  16.849   7.503  0.00  0.00    -0.079 SA
HETATM   26  C   UNK N   1      31.982  17.224   5.960  0.00  0.00     0.112 A 
HETATM   27  N   UNK N   1      30.878  17.493   5.224  0.00  0.00    -0.347 N 
ATOM     28  HN  UNK N   1      30.900  17.751   4.237  1.00  0.00     0.167 HD
BRANCH  26  29
HETATM   29  C   UNK N   1      33.351  17.297   5.446  0.00  0.00     0.295 C 
HETATM   30  O   UNK N   1      34.249  17.751   6.138  0.00  0.00    -0.299 OA
ENDBRANCH  26  29
ENDBRANCH   1  23
TORSDOF 5
ENDMDL
