REMARK  5 active torsions:
REMARK  status: ('A' for Active; 'I' for Inactive)
REMARK    1  A    between atoms: C_2  and  C_3 
REMARK    2  A    between atoms: C_8  and  C_9 
REMARK    3  A    between atoms: N_20  and  C_19 
REMARK    4  A    between atoms: N_20  and  C_21 
REMARK    5  A    between atoms: C_25  and  O_26 
ROOT
HETATM    1  C   UNK N   1      -0.410   2.147   0.533  0.00  0.00    -0.007 A 
HETATM    2  C   UNK N   1       0.785   2.709   0.054  0.00  0.00     0.044 A 
HETATM    3  C   UNK N   1      -0.421   0.817   0.962  0.00  0.00     0.015 A 
HETATM    4  C   UNK N   1       0.725   0.040   0.873  0.00  0.00     0.017 A 
HETATM    5  C   UNK N   1       1.909   0.565   0.342  0.00  0.00     0.017 A 
HETATM    6  C   UNK N   1       1.946   1.928  -0.031  0.00  0.00     0.045 A 
HETATM    7  N   UNK N   1       3.100   2.472  -0.502  0.00  0.00    -0.365 N 
ATOM      8  HN  UNK N   1       3.114   3.456  -0.772  1.00  0.00     0.165 HD
HETATM    9  C   UNK N   1       4.237   1.735  -0.619  0.00  0.00     0.090 A 
HETATM   10  C   UNK N   1       4.236   0.376  -0.293  0.00  0.00     0.047 A 
HETATM   11  C   UNK N   1       3.066  -0.231   0.171  0.00  0.00     0.046 A 
ENDROOT
BRANCH  11  12
HETATM   12  N   UNK N   1       3.088  -1.632   0.446  0.00  0.00    -0.355 N 
HETATM   13  H   UNK N   1       3.897  -2.001   0.870  0.00  0.00     0.166 HD
BRANCH  12  14
HETATM   14  C   UNK N   1       2.024  -2.541   0.152  0.00  0.00     0.041 A 
HETATM   15  C   UNK N   1       1.035  -2.214  -0.795  0.00  0.00     0.066 A 
HETATM   16  C   UNK N   1      -0.017  -3.089  -1.060  0.00  0.00     0.067 A 
HETATM   17  C   UNK N   1      -0.084  -4.316  -0.400  0.00  0.00     0.037 A 
HETATM   18  C   UNK N   1       0.908  -4.669   0.519  0.00  0.00     0.012 A 
HETATM   19  C   UNK N   1       1.962  -3.789   0.796  0.00  0.00    -0.035 A 
HETATM   20  C   UNK N   1       2.998  -4.190   1.789  0.00  0.00     0.050 C 
BRANCH  16  21
HETATM   21  O   UNK N   1      -0.970  -2.745  -1.942  0.00  0.00    -0.361 OA
HETATM   22  H   UNK N   1      -1.094  -2.050  -2.558  0.00  0.00     0.217 HD
ENDBRANCH  16  21
ENDBRANCH  12  14
ENDBRANCH  11  12
BRANCH   1  23
HETATM   23  C   UNK N   1      -1.670   2.912   0.516  0.00  0.00     0.050 A 
HETATM   24  C   UNK N   1      -2.894   2.361   0.957  0.00  0.00     0.082 A 
HETATM   25  S   UNK N   1      -4.020   3.536   0.662  0.00  0.00    -0.079 SA
HETATM   26  C   UNK N   1      -3.012   4.669   0.013  0.00  0.00     0.112 A 
HETATM   27  N   UNK N   1      -1.746   4.188  -0.005  0.00  0.00    -0.347 N 
ATOM     28  HN  UNK N   1      -0.944   4.708  -0.362  1.00  0.00     0.167 HD
BRANCH  26  29
HETATM   29  C   UNK N   1      -3.400   5.982  -0.504  0.00  0.00     0.295 C 
HETATM   30  O   UNK N   1      -4.570   6.331  -0.493  0.00  0.00    -0.299 OA
ENDBRANCH  26  29
ENDBRANCH   1  23
TORSDOF 5
