MODEL 1
REMARK VINA RESULT:      -8.5      0.000      0.000
REMARK  4 active torsions:
REMARK  status: ('A' for Active; 'I' for Inactive)
REMARK    1  A    between atoms: C_8  and  N_9 
REMARK       I    between atoms: N_9  and  C_10 
REMARK    2  A    between atoms: C_10  and  C_12 
REMARK    3  A    between atoms: C_16  and  C_18 
REMARK    4  A    between atoms: C_20  and  C_21 
ROOT
HETATM    1  N   UNK N   1      36.060   8.497  19.462  0.00  0.00    -0.191 NA
HETATM    2  C   UNK N   1      35.802   9.573  19.121  0.00  0.00     0.099 C 
HETATM    3  C   UNK N   1      35.488  10.898  18.670  0.00  0.00     0.046 A 
HETATM    4  C   UNK N   1      35.439  11.977  19.556  0.00  0.00     0.023 A 
HETATM    5  C   UNK N   1      35.163  13.264  19.072  0.00  0.00     0.004 A 
HETATM    6  C   UNK N   1      34.951  13.472  17.702  0.00  0.00     0.029 A 
HETATM    7  C   UNK N   1      35.269  11.109  17.318  0.00  0.00     0.052 A 
HETATM    8  C   UNK N   1      34.989  12.390  16.819  0.00  0.00     0.036 A 
ENDROOT
BRANCH   8   9
HETATM    9  N   UNK N   1      34.878  12.610  15.418  0.00  0.00    -0.323 N 
HETATM   10  C   UNK N   1      35.917  13.033  14.649  0.00  0.00     0.256 C 
HETATM   11  O   UNK N   1      37.059  13.041  15.091  0.00  0.00    -0.267 OA
HETATM   12  H   UNK N   1      34.009  12.448  14.985  0.00  0.00     0.169 HD
BRANCH  10  13
HETATM   13  C   UNK N   1      35.683  13.552  13.299  0.00  0.00     0.032 A 
HETATM   14  C   UNK N   1      35.070  12.707  12.383  0.00  0.00     0.018 A 
HETATM   15  C   UNK N   1      34.856  13.125  11.090  0.00  0.00     0.013 A 
HETATM   16  C   UNK N   1      35.243  14.405  10.661  0.00  0.00    -0.025 A 
HETATM   17  C   UNK N   1      35.880  15.259  11.576  0.00  0.00     0.013 A 
HETATM   18  C   UNK N   1      36.113  14.827  12.893  0.00  0.00     0.018 A 
BRANCH  16  19
HETATM   19  C   UNK N   1      34.855  14.800   9.280  0.00  0.00    -0.019 A 
HETATM   20  C   UNK N   1      33.672  15.526   9.177  0.00  0.00     0.028 A 
HETATM   21  C   UNK N   1      33.214  16.052   7.991  0.00  0.00     0.018 A 
HETATM   22  C   UNK N   1      33.953  15.848   6.822  0.00  0.00     0.016 A 
HETATM   23  C   UNK N   1      35.140  15.096   6.877  0.00  0.00     0.008 A 
HETATM   24  C   UNK N   1      35.603  14.569   8.097  0.00  0.00    -0.051 A 
HETATM   25  C   UNK N   1      36.890  13.814   8.099  0.00  0.00     0.049 C 
BRANCH  21  26
HETATM   26  C   UNK N   1      31.986  16.847   8.064  0.00  0.00     0.174 A 
HETATM   27  O   UNK N   1      30.989  16.702   7.222  0.00  0.00    -0.278 OA
HETATM   28  C   UNK N   1      30.067  17.540   7.608  0.00  0.00     0.136 A 
HETATM   29  C   UNK N   1      28.756  17.720   6.929  0.00  0.00     0.099 C 
HETATM   30  N   UNK N   1      30.472  18.216   8.700  0.00  0.00    -0.281 N 
HETATM   31  N   UNK N   1      31.689  17.776   8.989  0.00  0.00    -0.277 N 
ATOM     32  HN  UNK N   1      29.945  18.928   9.206  1.00  0.00     0.189 HD
ATOM     33  HN  UNK N   1      32.283  18.083   9.760  1.00  0.00     0.189 HD
ENDBRANCH  21  26
ENDBRANCH  16  19
ENDBRANCH  10  13
ENDBRANCH   8   9
TORSDOF 4
ENDMDL
MODEL 2
REMARK VINA RESULT:      -8.1      3.021     11.174
REMARK  4 active torsions:
REMARK  status: ('A' for Active; 'I' for Inactive)
REMARK    1  A    between atoms: C_8  and  N_9 
REMARK       I    between atoms: N_9  and  C_10 
REMARK    2  A    between atoms: C_10  and  C_12 
REMARK    3  A    between atoms: C_16  and  C_18 
REMARK    4  A    between atoms: C_20  and  C_21 
ROOT
HETATM    1  N   UNK N   1      33.048  17.278   8.698  0.00  0.00    -0.191 NA
HETATM    2  C   UNK N   1      33.683  16.340   8.938  0.00  0.00     0.099 C 
HETATM    3  C   UNK N   1      34.459  15.179   9.265  0.00  0.00     0.046 A 
HETATM    4  C   UNK N   1      35.519  14.760   8.458  0.00  0.00     0.023 A 
HETATM    5  C   UNK N   1      36.277  13.641   8.829  0.00  0.00     0.004 A 
HETATM    6  C   UNK N   1      35.984  12.950  10.013  0.00  0.00     0.029 A 
HETATM    7  C   UNK N   1      34.168  14.487  10.430  0.00  0.00     0.052 A 
HETATM    8  C   UNK N   1      34.914  13.363  10.813  0.00  0.00     0.036 A 
ENDROOT
BRANCH   8   9
HETATM    9  N   UNK N   1      34.677  12.731  12.065  0.00  0.00    -0.323 N 
HETATM   10  C   UNK N   1      35.316  13.091  13.211  0.00  0.00     0.256 C 
HETATM   11  O   UNK N   1      35.973  14.123  13.262  0.00  0.00    -0.267 OA
HETATM   12  H   UNK N   1      34.019  11.999  12.104  0.00  0.00     0.169 HD
BRANCH  10  13
HETATM   13  C   UNK N   1      35.286  12.218  14.387  0.00  0.00     0.032 A 
HETATM   14  C   UNK N   1      34.245  11.304  14.484  0.00  0.00     0.018 A 
HETATM   15  C   UNK N   1      34.143  10.483  15.582  0.00  0.00     0.013 A 
HETATM   16  C   UNK N   1      35.080  10.538  16.626  0.00  0.00    -0.025 A 
HETATM   17  C   UNK N   1      36.126  11.472  16.545  0.00  0.00     0.013 A 
HETATM   18  C   UNK N   1      36.221  12.323  15.431  0.00  0.00     0.018 A 
BRANCH  16  19
HETATM   19  C   UNK N   1      34.948   9.523  17.706  0.00  0.00    -0.019 A 
HETATM   20  C   UNK N   1      34.462  10.002  18.920  0.00  0.00     0.028 A 
HETATM   21  C   UNK N   1      34.188   9.187  19.994  0.00  0.00     0.018 A 
HETATM   22  C   UNK N   1      34.413   7.812  19.884  0.00  0.00     0.016 A 
HETATM   23  C   UNK N   1      34.929   7.290  18.685  0.00  0.00     0.008 A 
HETATM   24  C   UNK N   1      35.198   8.132  17.589  0.00  0.00    -0.051 A 
HETATM   25  C   UNK N   1      35.707   7.514  16.330  0.00  0.00     0.049 C 
BRANCH  21  26
HETATM   26  C   UNK N   1      33.620   9.839  21.176  0.00  0.00     0.174 A 
HETATM   27  O   UNK N   1      33.016   9.180  22.136  0.00  0.00    -0.278 OA
HETATM   28  C   UNK N   1      32.675  10.070  23.026  0.00  0.00     0.136 A 
HETATM   29  C   UNK N   1      31.952   9.764  24.290  0.00  0.00     0.099 C 
HETATM   30  N   UNK N   1      33.067  11.298  22.638  0.00  0.00    -0.281 N 
HETATM   31  N   UNK N   1      33.666  11.152  21.464  0.00  0.00    -0.277 N 
ATOM     32  HN  UNK N   1      32.929  12.172  23.147  1.00  0.00     0.189 HD
ATOM     33  HN  UNK N   1      34.079  11.889  20.893  1.00  0.00     0.189 HD
ENDBRANCH  21  26
ENDBRANCH  16  19
ENDBRANCH  10  13
ENDBRANCH   8   9
TORSDOF 4
ENDMDL
MODEL 3
REMARK VINA RESULT:      -8.1      2.488     11.006
REMARK  4 active torsions:
REMARK  status: ('A' for Active; 'I' for Inactive)
REMARK    1  A    between atoms: C_8  and  N_9 
REMARK       I    between atoms: N_9  and  C_10 
REMARK    2  A    between atoms: C_10  and  C_12 
REMARK    3  A    between atoms: C_16  and  C_18 
REMARK    4  A    between atoms: C_20  and  C_21 
ROOT
HETATM    1  N   UNK N   1      26.086  22.042   7.373  0.00  0.00    -0.191 NA
HETATM    2  C   UNK N   1      26.484  21.190   6.697  0.00  0.00     0.099 C 
HETATM    3  C   UNK N   1      27.002  20.133   5.878  0.00  0.00     0.046 A 
HETATM    4  C   UNK N   1      26.518  19.908   4.587  0.00  0.00     0.023 A 
HETATM    5  C   UNK N   1      27.074  18.887   3.803  0.00  0.00     0.004 A 
HETATM    6  C   UNK N   1      28.121  18.102   4.305  0.00  0.00     0.029 A 
HETATM    7  C   UNK N   1      28.032  19.349   6.372  0.00  0.00     0.052 A 
HETATM    8  C   UNK N   1      28.596  18.321   5.601  0.00  0.00     0.036 A 
ENDROOT
BRANCH   8   9
HETATM    9  N   UNK N   1      29.726  17.599   6.077  0.00  0.00    -0.323 N 
HETATM   10  C   UNK N   1      29.839  17.160   7.360  0.00  0.00     0.256 C 
HETATM   11  O   UNK N   1      28.874  17.178   8.114  0.00  0.00    -0.267 OA
HETATM   12  H   UNK N   1      30.459  17.409   5.449  0.00  0.00     0.169 HD
BRANCH  10  13
HETATM   13  C   UNK N   1      31.133  16.717   7.885  0.00  0.00     0.032 A 
HETATM   14  C   UNK N   1      31.305  15.356   8.106  0.00  0.00     0.018 A 
HETATM   15  C   UNK N   1      32.485  14.884   8.632  0.00  0.00     0.013 A 
HETATM   16  C   UNK N   1      33.542  15.750   8.954  0.00  0.00    -0.025 A 
HETATM   17  C   UNK N   1      33.369  17.129   8.750  0.00  0.00     0.013 A 
HETATM   18  C   UNK N   1      32.158  17.615   8.228  0.00  0.00     0.018 A 
BRANCH  16  19
HETATM   19  C   UNK N   1      34.816  15.125   9.399  0.00  0.00    -0.019 A 
HETATM   20  C   UNK N   1      34.940  14.936  10.773  0.00  0.00     0.028 A 
HETATM   21  C   UNK N   1      36.007  14.287  11.349  0.00  0.00     0.018 A 
HETATM   22  C   UNK N   1      37.032  13.797  10.533  0.00  0.00     0.016 A 
HETATM   23  C   UNK N   1      36.959  13.991   9.142  0.00  0.00     0.008 A 
HETATM   24  C   UNK N   1      35.858  14.650   8.563  0.00  0.00    -0.051 A 
HETATM   25  C   UNK N   1      35.819  14.790   7.078  0.00  0.00     0.049 C 
BRANCH  21  26
HETATM   26  C   UNK N   1      35.955  14.114  12.802  0.00  0.00     0.174 A 
HETATM   27  O   UNK N   1      35.059  13.365  13.402  0.00  0.00    -0.278 OA
HETATM   28  C   UNK N   1      35.337  13.421  14.676  0.00  0.00     0.136 A 
HETATM   29  C   UNK N   1      34.564  12.721  15.737  0.00  0.00     0.099 C 
HETATM   30  N   UNK N   1      36.414  14.200  14.889  0.00  0.00    -0.281 N 
HETATM   31  N   UNK N   1      36.806  14.640  13.701  0.00  0.00    -0.277 N 
ATOM     32  HN  UNK N   1      36.844  14.412  15.790  1.00  0.00     0.189 HD
ATOM     33  HN  UNK N   1      37.596  15.256  13.508  1.00  0.00     0.189 HD
ENDBRANCH  21  26
ENDBRANCH  16  19
ENDBRANCH  10  13
ENDBRANCH   8   9
TORSDOF 4
ENDMDL
MODEL 4
REMARK VINA RESULT:      -8.0      1.915     10.501
REMARK  4 active torsions:
REMARK  status: ('A' for Active; 'I' for Inactive)
REMARK    1  A    between atoms: C_8  and  N_9 
REMARK       I    between atoms: N_9  and  C_10 
REMARK    2  A    between atoms: C_10  and  C_12 
REMARK    3  A    between atoms: C_16  and  C_18 
REMARK    4  A    between atoms: C_20  and  C_21 
ROOT
HETATM    1  N   UNK N   1      26.736  21.392   6.724  0.00  0.00    -0.191 NA
HETATM    2  C   UNK N   1      27.198  20.338   6.598  0.00  0.00     0.099 C 
HETATM    3  C   UNK N   1      27.794  19.040   6.463  0.00  0.00     0.046 A 
HETATM    4  C   UNK N   1      27.455  18.190   5.407  0.00  0.00     0.023 A 
HETATM    5  C   UNK N   1      28.085  16.943   5.287  0.00  0.00     0.004 A 
HETATM    6  C   UNK N   1      29.061  16.553   6.215  0.00  0.00     0.029 A 
HETATM    7  C   UNK N   1      28.753  18.646   7.381  0.00  0.00     0.052 A 
HETATM    8  C   UNK N   1      29.389  17.400   7.277  0.00  0.00     0.036 A 
ENDROOT
BRANCH   8   9
HETATM    9  N   UNK N   1      30.451  17.056   8.160  0.00  0.00    -0.323 N 
HETATM   10  C   UNK N   1      31.763  17.164   7.819  0.00  0.00     0.256 C 
HETATM   11  O   UNK N   1      32.099  17.768   6.808  0.00  0.00    -0.267 OA
HETATM   12  H   UNK N   1      30.225  16.724   9.058  0.00  0.00     0.169 HD
BRANCH  10  13
HETATM   13  C   UNK N   1      32.798  16.505   8.619  0.00  0.00     0.032 A 
HETATM   14  C   UNK N   1      32.568  15.192   9.013  0.00  0.00     0.018 A 
HETATM   15  C   UNK N   1      33.487  14.532   9.796  0.00  0.00     0.013 A 
HETATM   16  C   UNK N   1      34.674  15.154  10.212  0.00  0.00    -0.025 A 
HETATM   17  C   UNK N   1      34.907  16.487   9.833  0.00  0.00     0.013 A 
HETATM   18  C   UNK N   1      33.962  17.167   9.047  0.00  0.00     0.018 A 
BRANCH  16  19
HETATM   19  C   UNK N   1      35.654  14.312  10.950  0.00  0.00    -0.019 A 
HETATM   20  C   UNK N   1      35.314  14.017  12.268  0.00  0.00     0.028 A 
HETATM   21  C   UNK N   1      36.055  13.175  13.064  0.00  0.00     0.018 A 
HETATM   22  C   UNK N   1      37.214  12.589  12.547  0.00  0.00     0.016 A 
HETATM   23  C   UNK N   1      37.609  12.882  11.230  0.00  0.00     0.008 A 
HETATM   24  C   UNK N   1      36.838  13.739  10.421  0.00  0.00    -0.051 A 
HETATM   25  C   UNK N   1      37.286  13.981   9.019  0.00  0.00     0.049 C 
BRANCH  21  26
HETATM   26  C   UNK N   1      35.527  12.916  14.405  0.00  0.00     0.174 A 
HETATM   27  O   UNK N   1      35.848  13.639  15.453  0.00  0.00    -0.278 OA
HETATM   28  C   UNK N   1      35.171  13.145  16.453  0.00  0.00     0.136 A 
HETATM   29  C   UNK N   1      35.236  13.657  17.848  0.00  0.00     0.099 C 
HETATM   30  N   UNK N   1      34.413  12.111  16.043  0.00  0.00    -0.281 N 
HETATM   31  N   UNK N   1      34.638  11.965  14.745  0.00  0.00    -0.277 N 
ATOM     32  HN  UNK N   1      33.787  11.548  16.620  1.00  0.00     0.189 HD
ATOM     33  HN  UNK N   1      34.221  11.269  14.126  1.00  0.00     0.189 HD
ENDBRANCH  21  26
ENDBRANCH  16  19
ENDBRANCH  10  13
ENDBRANCH   8   9
TORSDOF 4
ENDMDL
MODEL 5
REMARK VINA RESULT:      -7.8      6.888     11.558
REMARK  4 active torsions:
REMARK  status: ('A' for Active; 'I' for Inactive)
REMARK    1  A    between atoms: C_8  and  N_9 
REMARK       I    between atoms: N_9  and  C_10 
REMARK    2  A    between atoms: C_10  and  C_12 
REMARK    3  A    between atoms: C_16  and  C_18 
REMARK    4  A    between atoms: C_20  and  C_21 
ROOT
HETATM    1  N   UNK N   1      35.336  13.324   7.756  0.00  0.00    -0.191 NA
HETATM    2  C   UNK N   1      34.759  14.327   7.808  0.00  0.00     0.099 C 
HETATM    3  C   UNK N   1      34.023  15.557   7.854  0.00  0.00     0.046 A 
HETATM    4  C   UNK N   1      34.611  16.742   8.301  0.00  0.00     0.023 A 
HETATM    5  C   UNK N   1      33.870  17.932   8.298  0.00  0.00     0.004 A 
HETATM    6  C   UNK N   1      32.547  17.939   7.836  0.00  0.00     0.029 A 
HETATM    7  C   UNK N   1      32.711  15.568   7.407  0.00  0.00     0.052 A 
HETATM    8  C   UNK N   1      31.955  16.749   7.402  0.00  0.00     0.036 A 
ENDROOT
BRANCH   8   9
HETATM    9  N   UNK N   1      30.650  16.769   6.835  0.00  0.00    -0.323 N 
HETATM   10  C   UNK N   1      30.393  17.224   5.580  0.00  0.00     0.256 C 
HETATM   11  O   UNK N   1      31.307  17.441   4.794  0.00  0.00    -0.267 OA
HETATM   12  H   UNK N   1      29.899  16.437   7.378  0.00  0.00     0.169 HD
BRANCH  10  13
HETATM   13  C   UNK N   1      29.022  17.527   5.163  0.00  0.00     0.032 A 
HETATM   14  C   UNK N   1      28.299  18.427   5.935  0.00  0.00     0.018 A 
HETATM   15  C   UNK N   1      26.995  18.724   5.614  0.00  0.00     0.013 A 
HETATM   16  C   UNK N   1      26.361  18.138   4.507  0.00  0.00    -0.025 A 
HETATM   17  C   UNK N   1      27.080  17.213   3.732  0.00  0.00     0.013 A 
HETATM   18  C   UNK N   1      28.407  16.897   4.067  0.00  0.00     0.018 A 
BRANCH  16  19
HETATM   19  C   UNK N   1      24.993  18.621   4.178  0.00  0.00    -0.019 A 
HETATM   20  C   UNK N   1      23.955  17.965   4.834  0.00  0.00     0.028 A 
HETATM   21  C   UNK N   1      22.637  18.345   4.721  0.00  0.00     0.018 A 
HETATM   22  C   UNK N   1      22.305  19.430   3.904  0.00  0.00     0.016 A 
HETATM   23  C   UNK N   1      23.321  20.102   3.202  0.00  0.00     0.008 A 
HETATM   24  C   UNK N   1      24.667  19.711   3.332  0.00  0.00    -0.051 A 
HETATM   25  C   UNK N   1      25.704  20.489   2.593  0.00  0.00     0.049 C 
BRANCH  21  26
HETATM   26  C   UNK N   1      21.673  17.592   5.527  0.00  0.00     0.174 A 
HETATM   27  O   UNK N   1      21.445  17.848   6.794  0.00  0.00    -0.278 OA
HETATM   28  C   UNK N   1      20.516  17.013   7.169  0.00  0.00     0.136 A 
HETATM   29  C   UNK N   1      19.952  16.943   8.544  0.00  0.00     0.099 C 
HETATM   30  N   UNK N   1      20.146  16.227   6.140  0.00  0.00    -0.281 N 
HETATM   31  N   UNK N   1      20.880  16.594   5.099  0.00  0.00    -0.277 N 
ATOM     32  HN  UNK N   1      19.439  15.491   6.159  1.00  0.00     0.189 HD
ATOM     33  HN  UNK N   1      20.850  16.197   4.159  1.00  0.00     0.189 HD
ENDBRANCH  21  26
ENDBRANCH  16  19
ENDBRANCH  10  13
ENDBRANCH   8   9
TORSDOF 4
ENDMDL
MODEL 6
REMARK VINA RESULT:      -7.8      3.495     11.620
REMARK  4 active torsions:
REMARK  status: ('A' for Active; 'I' for Inactive)
REMARK    1  A    between atoms: C_8  and  N_9 
REMARK       I    between atoms: N_9  and  C_10 
REMARK    2  A    between atoms: C_10  and  C_12 
REMARK    3  A    between atoms: C_16  and  C_18 
REMARK    4  A    between atoms: C_20  and  C_21 
ROOT
HETATM    1  N   UNK N   1      24.960  20.470   1.957  0.00  0.00    -0.191 NA
HETATM    2  C   UNK N   1      25.555  20.425   2.950  0.00  0.00     0.099 C 
HETATM    3  C   UNK N   1      26.308  20.344   4.168  0.00  0.00     0.046 A 
HETATM    4  C   UNK N   1      25.897  21.011   5.324  0.00  0.00     0.023 A 
HETATM    5  C   UNK N   1      26.639  20.880   6.506  0.00  0.00     0.004 A 
HETATM    6  C   UNK N   1      27.784  20.071   6.535  0.00  0.00     0.029 A 
HETATM    7  C   UNK N   1      27.445  19.553   4.200  0.00  0.00     0.052 A 
HETATM    8  C   UNK N   1      28.201  19.414   5.374  0.00  0.00     0.036 A 
ENDROOT
BRANCH   8   9
HETATM    9  N   UNK N   1      29.299  18.511   5.422  0.00  0.00    -0.323 N 
HETATM   10  C   UNK N   1      29.375  17.482   6.308  0.00  0.00     0.256 C 
HETATM   11  O   UNK N   1      28.397  17.153   6.969  0.00  0.00    -0.267 OA
HETATM   12  H   UNK N   1      30.038  18.637   4.784  0.00  0.00     0.169 HD
BRANCH  10  13
HETATM   13  C   UNK N   1      30.644  16.789   6.540  0.00  0.00     0.032 A 
HETATM   14  C   UNK N   1      31.738  17.559   6.915  0.00  0.00     0.018 A 
HETATM   15  C   UNK N   1      32.966  16.970   7.111  0.00  0.00     0.013 A 
HETATM   16  C   UNK N   1      33.149  15.588   6.946  0.00  0.00    -0.025 A 
HETATM   17  C   UNK N   1      32.052  14.805   6.550  0.00  0.00     0.013 A 
HETATM   18  C   UNK N   1      30.802  15.408   6.334  0.00  0.00     0.018 A 
BRANCH  16  19
HETATM   19  C   UNK N   1      34.484  15.037   7.303  0.00  0.00    -0.019 A 
HETATM   20  C   UNK N   1      34.804  15.077   8.658  0.00  0.00     0.028 A 
HETATM   21  C   UNK N   1      35.953  14.525   9.175  0.00  0.00     0.018 A 
HETATM   22  C   UNK N   1      36.861  13.902   8.313  0.00  0.00     0.016 A 
HETATM   23  C   UNK N   1      36.590  13.865   6.934  0.00  0.00     0.008 A 
HETATM   24  C   UNK N   1      35.406  14.425   6.416  0.00  0.00    -0.051 A 
HETATM   25  C   UNK N   1      35.156  14.319   4.950  0.00  0.00     0.049 C 
BRANCH  21  26
HETATM   26  C   UNK N   1      36.109  14.594  10.629  0.00  0.00     0.174 A 
HETATM   27  O   UNK N   1      36.104  13.532  11.401  0.00  0.00    -0.278 OA
HETATM   28  C   UNK N   1      36.298  13.967  12.615  0.00  0.00     0.136 A 
HETATM   29  C   UNK N   1      36.358  13.098  13.821  0.00  0.00     0.099 C 
HETATM   30  N   UNK N   1      36.434  15.307  12.619  0.00  0.00    -0.281 N 
HETATM   31  N   UNK N   1      36.314  15.704  11.360  0.00  0.00    -0.277 N 
ATOM     32  HN  UNK N   1      36.597  15.900  13.433  1.00  0.00     0.189 HD
ATOM     33  HN  UNK N   1      36.365  16.663  11.014  1.00  0.00     0.189 HD
ENDBRANCH  21  26
ENDBRANCH  16  19
ENDBRANCH  10  13
ENDBRANCH   8   9
TORSDOF 4
ENDMDL
MODEL 7
REMARK VINA RESULT:      -7.7      1.599      2.274
REMARK  4 active torsions:
REMARK  status: ('A' for Active; 'I' for Inactive)
REMARK    1  A    between atoms: C_8  and  N_9 
REMARK       I    between atoms: N_9  and  C_10 
REMARK    2  A    between atoms: C_10  and  C_12 
REMARK    3  A    between atoms: C_16  and  C_18 
REMARK    4  A    between atoms: C_20  and  C_21 
ROOT
HETATM    1  N   UNK N   1      32.991   6.794  19.310  0.00  0.00    -0.191 NA
HETATM    2  C   UNK N   1      33.538   7.814  19.333  0.00  0.00     0.099 C 
HETATM    3  C   UNK N   1      34.223   9.074  19.331  0.00  0.00     0.046 A 
HETATM    4  C   UNK N   1      34.607   9.695  20.522  0.00  0.00     0.023 A 
HETATM    5  C   UNK N   1      35.307  10.910  20.480  0.00  0.00     0.004 A 
HETATM    6  C   UNK N   1      35.633  11.495  19.248  0.00  0.00     0.029 A 
HETATM    7  C   UNK N   1      34.540   9.661  18.117  0.00  0.00     0.052 A 
HETATM    8  C   UNK N   1      35.236  10.878  18.058  0.00  0.00     0.036 A 
ENDROOT
BRANCH   8   9
HETATM    9  N   UNK N   1      35.652  11.411  16.807  0.00  0.00    -0.323 N 
HETATM   10  C   UNK N   1      35.186  12.588  16.309  0.00  0.00     0.256 C 
HETATM   11  O   UNK N   1      34.544  13.354  17.016  0.00  0.00    -0.267 OA
HETATM   12  H   UNK N   1      36.309  10.903  16.276  0.00  0.00     0.169 HD
BRANCH  10  13
HETATM   13  C   UNK N   1      35.386  12.933  14.900  0.00  0.00     0.032 A 
HETATM   14  C   UNK N   1      34.788  12.118  13.947  0.00  0.00     0.018 A 
HETATM   15  C   UNK N   1      34.969  12.370  12.607  0.00  0.00     0.013 A 
HETATM   16  C   UNK N   1      35.751  13.449  12.164  0.00  0.00    -0.025 A 
HETATM   17  C   UNK N   1      36.374  14.267  13.121  0.00  0.00     0.013 A 
HETATM   18  C   UNK N   1      36.203  14.001  14.490  0.00  0.00     0.018 A 
BRANCH  16  19
HETATM   19  C   UNK N   1      35.780  13.705  10.699  0.00  0.00    -0.019 A 
HETATM   20  C   UNK N   1      34.761  14.521  10.215  0.00  0.00     0.028 A 
HETATM   21  C   UNK N   1      34.690  14.938   8.906  0.00  0.00     0.018 A 
HETATM   22  C   UNK N   1      35.672  14.522   8.002  0.00  0.00     0.016 A 
HETATM   23  C   UNK N   1      36.704  13.674   8.443  0.00  0.00     0.008 A 
HETATM   24  C   UNK N   1      36.771  13.261   9.787  0.00  0.00    -0.051 A 
HETATM   25  C   UNK N   1      37.912  12.394  10.204  0.00  0.00     0.049 C 
BRANCH  21  26
HETATM   26  C   UNK N   1      33.592  15.847   8.572  0.00  0.00     0.174 A 
HETATM   27  O   UNK N   1      33.025  15.881   7.388  0.00  0.00    -0.278 OA
HETATM   28  C   UNK N   1      32.078  16.774   7.467  0.00  0.00     0.136 A 
HETATM   29  C   UNK N   1      31.178  17.148   6.344  0.00  0.00     0.099 C 
HETATM   30  N   UNK N   1      32.034  17.306   8.703  0.00  0.00    -0.281 N 
HETATM   31  N   UNK N   1      32.995  16.719   9.404  0.00  0.00    -0.277 N 
ATOM     32  HN  UNK N   1      31.389  18.023   9.036  1.00  0.00     0.189 HD
ATOM     33  HN  UNK N   1      33.234  16.894  10.380  1.00  0.00     0.189 HD
ENDBRANCH  21  26
ENDBRANCH  16  19
ENDBRANCH  10  13
ENDBRANCH   8   9
TORSDOF 4
ENDMDL
MODEL 8
REMARK VINA RESULT:      -7.6      3.853     11.900
REMARK  4 active torsions:
REMARK  status: ('A' for Active; 'I' for Inactive)
REMARK    1  A    between atoms: C_8  and  N_9 
REMARK       I    between atoms: N_9  and  C_10 
REMARK    2  A    between atoms: C_10  and  C_12 
REMARK    3  A    between atoms: C_16  and  C_18 
REMARK    4  A    between atoms: C_20  and  C_21 
ROOT
HETATM    1  N   UNK N   1      37.953  12.138   8.451  0.00  0.00    -0.191 NA
HETATM    2  C   UNK N   1      37.384  12.824   9.190  0.00  0.00     0.099 C 
HETATM    3  C   UNK N   1      36.674  13.649  10.125  0.00  0.00     0.046 A 
HETATM    4  C   UNK N   1      36.173  14.900   9.758  0.00  0.00     0.023 A 
HETATM    5  C   UNK N   1      35.454  15.663  10.689  0.00  0.00     0.004 A 
HETATM    6  C   UNK N   1      35.224  15.168  11.980  0.00  0.00     0.029 A 
HETATM    7  C   UNK N   1      36.452  13.169  11.405  0.00  0.00     0.052 A 
HETATM    8  C   UNK N   1      35.737  13.922  12.349  0.00  0.00     0.036 A 
ENDROOT
BRANCH   8   9
HETATM    9  N   UNK N   1      35.420  13.369  13.621  0.00  0.00    -0.323 N 
HETATM   10  C   UNK N   1      36.054  13.735  14.768  0.00  0.00     0.256 C 
HETATM   11  O   UNK N   1      36.785  14.718  14.792  0.00  0.00    -0.267 OA
HETATM   12  H   UNK N   1      34.709  12.691  13.674  0.00  0.00     0.169 HD
BRANCH  10  13
HETATM   13  C   UNK N   1      35.928  12.924  15.981  0.00  0.00     0.032 A 
HETATM   14  C   UNK N   1      36.327  11.595  15.911  0.00  0.00     0.018 A 
HETATM   15  C   UNK N   1      36.199  10.774  17.007  0.00  0.00     0.013 A 
HETATM   16  C   UNK N   1      35.672  11.248  18.219  0.00  0.00    -0.025 A 
HETATM   17  C   UNK N   1      35.250  12.586  18.293  0.00  0.00     0.013 A 
HETATM   18  C   UNK N   1      35.365  13.421  17.170  0.00  0.00     0.018 A 
BRANCH  16  19
HETATM   19  C   UNK N   1      35.693  10.312  19.375  0.00  0.00    -0.019 A 
HETATM   20  C   UNK N   1      36.594  10.633  20.387  0.00  0.00     0.028 A 
HETATM   21  C   UNK N   1      36.677   9.933  21.568  0.00  0.00     0.018 A 
HETATM   22  C   UNK N   1      35.834   8.837  21.775  0.00  0.00     0.016 A 
HETATM   23  C   UNK N   1      34.928   8.462  20.767  0.00  0.00     0.008 A 
HETATM   24  C   UNK N   1      34.846   9.191  19.565  0.00  0.00    -0.051 A 
HETATM   25  C   UNK N   1      33.838   8.768  18.550  0.00  0.00     0.049 C 
BRANCH  21  26
HETATM   26  C   UNK N   1      37.632  10.439  22.557  0.00  0.00     0.174 A 
HETATM   27  O   UNK N   1      38.698  11.133  22.233  0.00  0.00    -0.278 OA
HETATM   28  C   UNK N   1      39.286  11.437  23.357  0.00  0.00     0.136 A 
HETATM   29  C   UNK N   1      40.547  12.219  23.463  0.00  0.00     0.099 C 
HETATM   30  N   UNK N   1      38.592  10.943  24.400  0.00  0.00    -0.281 N 
HETATM   31  N   UNK N   1      37.544  10.309  23.893  0.00  0.00    -0.277 N 
ATOM     32  HN  UNK N   1      38.828  11.036  25.388  1.00  0.00     0.189 HD
ATOM     33  HN  UNK N   1      36.815   9.820  24.413  1.00  0.00     0.189 HD
ENDBRANCH  21  26
ENDBRANCH  16  19
ENDBRANCH  10  13
ENDBRANCH   8   9
TORSDOF 4
ENDMDL
MODEL 9
REMARK VINA RESULT:      -7.6      2.549      3.115
REMARK  4 active torsions:
REMARK  status: ('A' for Active; 'I' for Inactive)
REMARK    1  A    between atoms: C_8  and  N_9 
REMARK       I    between atoms: N_9  and  C_10 
REMARK    2  A    between atoms: C_10  and  C_12 
REMARK    3  A    between atoms: C_16  and  C_18 
REMARK    4  A    between atoms: C_20  and  C_21 
ROOT
HETATM    1  N   UNK N   1      36.595   8.418  18.961  0.00  0.00    -0.191 NA
HETATM    2  C   UNK N   1      36.278   9.493  18.669  0.00  0.00     0.099 C 
HETATM    3  C   UNK N   1      35.900  10.820  18.280  0.00  0.00     0.046 A 
HETATM    4  C   UNK N   1      35.462  11.758  19.218  0.00  0.00     0.023 A 
HETATM    5  C   UNK N   1      35.135  13.057  18.804  0.00  0.00     0.004 A 
HETATM    6  C   UNK N   1      35.259  13.421  17.456  0.00  0.00     0.029 A 
HETATM    7  C   UNK N   1      36.012  11.184  16.947  0.00  0.00     0.052 A 
HETATM    8  C   UNK N   1      35.685  12.478  16.517  0.00  0.00     0.036 A 
ENDROOT
BRANCH   8   9
HETATM    9  N   UNK N   1      35.912  12.869  15.168  0.00  0.00    -0.323 N 
HETATM   10  C   UNK N   1      35.071  12.545  14.150  0.00  0.00     0.256 C 
HETATM   11  O   UNK N   1      33.961  12.080  14.380  0.00  0.00    -0.267 OA
HETATM   12  H   UNK N   1      36.716  13.399  14.963  0.00  0.00     0.169 HD
BRANCH  10  13
HETATM   13  C   UNK N   1      35.499  12.681  12.756  0.00  0.00     0.032 A 
HETATM   14  C   UNK N   1      36.028  13.905  12.363  0.00  0.00     0.018 A 
HETATM   15  C   UNK N   1      36.414  14.105  11.058  0.00  0.00     0.013 A 
HETATM   16  C   UNK N   1      36.293  13.092  10.094  0.00  0.00    -0.025 A 
HETATM   17  C   UNK N   1      35.742  11.858  10.479  0.00  0.00     0.013 A 
HETATM   18  C   UNK N   1      35.333  11.657  11.808  0.00  0.00     0.018 A 
BRANCH  16  19
HETATM   19  C   UNK N   1      36.854  13.372   8.745  0.00  0.00    -0.019 A 
HETATM   20  C   UNK N   1      35.958  13.913   7.827  0.00  0.00     0.028 A 
HETATM   21  C   UNK N   1      36.329  14.320   6.566  0.00  0.00     0.018 A 
HETATM   22  C   UNK N   1      37.661  14.182   6.167  0.00  0.00     0.016 A 
HETATM   23  C   UNK N   1      38.593  13.615   7.054  0.00  0.00     0.008 A 
HETATM   24  C   UNK N   1      38.204  13.209   8.345  0.00  0.00    -0.051 A 
HETATM   25  C   UNK N   1      39.247  12.652   9.255  0.00  0.00     0.049 C 
BRANCH  21  26
HETATM   26  C   UNK N   1      35.279  14.927   5.745  0.00  0.00     0.174 A 
HETATM   27  O   UNK N   1      34.777  16.115   5.989  0.00  0.00    -0.278 OA
HETATM   28  C   UNK N   1      33.903  16.338   5.046  0.00  0.00     0.136 A 
HETATM   29  C   UNK N   1      33.081  17.573   4.935  0.00  0.00     0.099 C 
HETATM   30  N   UNK N   1      33.851  15.295   4.196  0.00  0.00    -0.281 N 
HETATM   31  N   UNK N   1      34.724  14.400   4.639  0.00  0.00    -0.277 N 
ATOM     32  HN  UNK N   1      33.256  15.209   3.372  1.00  0.00     0.189 HD
ATOM     33  HN  UNK N   1      34.932  13.492   4.224  1.00  0.00     0.189 HD
ENDBRANCH  21  26
ENDBRANCH  16  19
ENDBRANCH  10  13
ENDBRANCH   8   9
TORSDOF 4
ENDMDL
