REMARK  5 active torsions:
REMARK  status: ('A' for Active; 'I' for Inactive)
REMARK       I    between atoms: N_3  and  C_2 
REMARK    1  A    between atoms: C_8  and  C_2 
REMARK    2  A    between atoms: N_3  and  C_4 
REMARK    3  A    between atoms: C_5  and  C_4 
REMARK    4  A    between atoms: C_14  and  C_13 
REMARK    5  A    between atoms: C_20  and  C_21 
ROOT
HETATM    1  C   UNK N   1      -0.940  -2.009   0.022  0.00  0.00    -0.019 A 
HETATM    2  C   UNK N   1      -2.045  -2.907   0.035  0.00  0.00    -0.051 A 
HETATM    3  C   UNK N   1      -3.464  -2.446   0.054  0.00  0.00     0.049 C 
HETATM    4  C   UNK N   1      -1.816  -4.290   0.010  0.00  0.00     0.008 A 
HETATM    5  C   UNK N   1      -0.514  -4.800  -0.021  0.00  0.00     0.016 A 
HETATM    6  C   UNK N   1       0.351  -2.552  -0.015  0.00  0.00     0.028 A 
HETATM    7  C   UNK N   1       0.573  -3.924  -0.033  0.00  0.00     0.018 A 
ENDROOT
BRANCH   1   8
HETATM    8  C   UNK N   1      -1.051  -0.517   0.031  0.00  0.00    -0.025 A 
HETATM    9  C   UNK N   1      -2.277   0.147   0.174  0.00  0.00     0.013 A 
HETATM   10  C   UNK N   1      -2.337   1.544   0.150  0.00  0.00     0.018 A 
HETATM   11  C   UNK N   1      -1.175   2.311  -0.030  0.00  0.00     0.032 A 
HETATM   12  C   UNK N   1       0.050   1.648  -0.158  0.00  0.00     0.018 A 
HETATM   13  C   UNK N   1       0.113   0.257  -0.123  0.00  0.00     0.013 A 
BRANCH  11  14
HETATM   14  C   UNK N   1      -1.288   3.802  -0.090  0.00  0.00     0.251 C 
HETATM   15  O   UNK N   1      -2.388   4.306   0.072  0.00  0.00    -0.268 OA
HETATM   16  N   UNK N   1      -0.233   4.633  -0.328  0.00  0.00    -0.356 N 
HETATM   17  H   UNK N   1      -0.415   5.600  -0.335  0.00  0.00     0.162 HD
BRANCH  16  18
HETATM   18  C   UNK N   1       1.125   4.213  -0.569  0.00  0.00     0.127 C 
BRANCH  18  19
HETATM   19  C   UNK N   1       2.029   4.776   0.507  0.00  0.00     0.003 A 
HETATM   20  C   UNK N   1       2.604   6.097   0.042  0.00  0.00     0.007 A 
HETATM   21  C   UNK N   1       3.447   4.838  -0.017  0.00  0.00     0.007 A 
ENDBRANCH  18  19
ENDBRANCH  16  18
ENDBRANCH  11  14
ENDBRANCH   1   8
BRANCH   7  22
HETATM   22  C   UNK N   1       1.957  -4.406  -0.056  0.00  0.00     0.174 A 
HETATM   23  O   UNK N   1       3.006  -3.620  -0.071  0.00  0.00    -0.278 OA
HETATM   24  C   UNK N   1       4.047  -4.410  -0.084  0.00  0.00     0.136 A 
HETATM   25  C   UNK N   1       5.459  -3.947  -0.105  0.00  0.00     0.099 C 
HETATM   26  N   UNK N   1       3.662  -5.700  -0.075  0.00  0.00    -0.281 N 
HETATM   27  N   UNK N   1       2.337  -5.699  -0.058  0.00  0.00    -0.277 N 
ATOM     28  HN  UNK N   1       4.270  -6.519  -0.082  1.00  0.00     0.189 HD
ATOM     29  HN  UNK N   1       1.725  -6.515  -0.047  1.00  0.00     0.189 HD
ENDBRANCH   7  22
TORSDOF 5
