MODEL 1
REMARK VINA RESULT:      -7.8      0.000      0.000
REMARK  5 active torsions:
REMARK  status: ('A' for Active; 'I' for Inactive)
REMARK       I    between atoms: N_3  and  C_2 
REMARK    1  A    between atoms: C_8  and  C_2 
REMARK    2  A    between atoms: N_3  and  C_4 
REMARK    3  A    between atoms: C_5  and  C_4 
REMARK    4  A    between atoms: C_14  and  C_13 
REMARK    5  A    between atoms: C_20  and  C_21 
ROOT
HETATM    1  C   UNK N   1      29.946  16.701   5.373  0.00  0.00    -0.019 A 
HETATM    2  C   UNK N   1      29.631  15.388   4.922  0.00  0.00    -0.051 A 
HETATM    3  C   UNK N   1      30.452  14.192   5.270  0.00  0.00     0.049 C 
HETATM    4  C   UNK N   1      28.492  15.181   4.129  0.00  0.00     0.008 A 
HETATM    5  C   UNK N   1      27.665  16.251   3.771  0.00  0.00     0.016 A 
HETATM    6  C   UNK N   1      29.095  17.749   5.001  0.00  0.00     0.028 A 
HETATM    7  C   UNK N   1      27.971  17.540   4.210  0.00  0.00     0.018 A 
ENDROOT
BRANCH   1   8
HETATM    8  C   UNK N   1      31.120  17.050   6.233  0.00  0.00    -0.025 A 
HETATM    9  C   UNK N   1      30.997  17.320   7.602  0.00  0.00     0.013 A 
HETATM   10  C   UNK N   1      32.119  17.669   8.362  0.00  0.00     0.018 A 
HETATM   11  C   UNK N   1      33.387  17.768   7.769  0.00  0.00     0.032 A 
HETATM   12  C   UNK N   1      33.511  17.484   6.405  0.00  0.00     0.018 A 
HETATM   13  C   UNK N   1      32.397  17.126   5.649  0.00  0.00     0.013 A 
BRANCH  11  14
HETATM   14  C   UNK N   1      34.554  18.183   8.610  0.00  0.00     0.251 C 
HETATM   15  O   UNK N   1      35.084  19.257   8.374  0.00  0.00    -0.268 OA
HETATM   16  N   UNK N   1      35.069  17.424   9.619  0.00  0.00    -0.356 N 
HETATM   17  H   UNK N   1      35.831  17.796  10.117  0.00  0.00     0.162 HD
BRANCH  16  18
HETATM   18  C   UNK N   1      34.590  16.123  10.016  0.00  0.00     0.127 C 
BRANCH  18  19
HETATM   19  C   UNK N   1      35.216  15.062   9.137  0.00  0.00     0.003 A 
HETATM   20  C   UNK N   1      34.125  14.266   8.452  0.00  0.00     0.007 A 
HETATM   21  C   UNK N   1      34.837  13.694   9.662  0.00  0.00     0.007 A 
ENDBRANCH  18  19
ENDBRANCH  16  18
ENDBRANCH  11  14
ENDBRANCH   1   8
BRANCH   7  22
HETATM   22  C   UNK N   1      27.143  18.696   3.855  0.00  0.00     0.174 A 
HETATM   23  O   UNK N   1      25.842  18.646   3.699  0.00  0.00    -0.278 OA
HETATM   24  C   UNK N   1      25.469  19.861   3.395  0.00  0.00     0.136 A 
HETATM   25  C   UNK N   1      24.066  20.272   3.128  0.00  0.00     0.099 C 
HETATM   26  N   UNK N   1      26.531  20.687   3.360  0.00  0.00    -0.281 N 
HETATM   27  N   UNK N   1      27.594  19.950   3.650  0.00  0.00    -0.277 N 
ATOM     28  HN  UNK N   1      26.522  21.685   3.148  1.00  0.00     0.189 HD
ATOM     29  HN  UNK N   1      28.561  20.268   3.708  1.00  0.00     0.189 HD
ENDBRANCH   7  22
TORSDOF 5
ENDMDL
MODEL 2
REMARK VINA RESULT:      -7.6      6.393     10.650
REMARK  5 active torsions:
REMARK  status: ('A' for Active; 'I' for Inactive)
REMARK       I    between atoms: N_3  and  C_2 
REMARK    1  A    between atoms: C_8  and  C_2 
REMARK    2  A    between atoms: N_3  and  C_4 
REMARK    3  A    between atoms: C_5  and  C_4 
REMARK    4  A    between atoms: C_14  and  C_13 
REMARK    5  A    between atoms: C_20  and  C_21 
ROOT
HETATM    1  C   UNK N   1      36.033  13.456  12.935  0.00  0.00    -0.019 A 
HETATM    2  C   UNK N   1      36.891  12.557  12.241  0.00  0.00    -0.051 A 
HETATM    3  C   UNK N   1      37.687  11.500  12.931  0.00  0.00     0.049 C 
HETATM    4  C   UNK N   1      36.997  12.636  10.845  0.00  0.00     0.008 A 
HETATM    5  C   UNK N   1      36.274  13.593  10.125  0.00  0.00     0.016 A 
HETATM    6  C   UNK N   1      35.318  14.398  12.184  0.00  0.00     0.028 A 
HETATM    7  C   UNK N   1      35.431  14.477  10.801  0.00  0.00     0.018 A 
ENDROOT
BRANCH   1   8
HETATM    8  C   UNK N   1      35.821  13.464  14.417  0.00  0.00    -0.025 A 
HETATM    9  C   UNK N   1      36.698  14.110  15.299  0.00  0.00     0.013 A 
HETATM   10  C   UNK N   1      36.476  14.069  16.680  0.00  0.00     0.018 A 
HETATM   11  C   UNK N   1      35.380  13.372  17.212  0.00  0.00     0.032 A 
HETATM   12  C   UNK N   1      34.497  12.740  16.329  0.00  0.00     0.018 A 
HETATM   13  C   UNK N   1      34.711  12.789  14.953  0.00  0.00     0.013 A 
BRANCH  11  14
HETATM   14  C   UNK N   1      35.201  13.319  18.697  0.00  0.00     0.251 C 
HETATM   15  O   UNK N   1      34.851  14.337  19.274  0.00  0.00    -0.268 OA
HETATM   16  N   UNK N   1      35.417  12.201  19.447  0.00  0.00    -0.356 N 
HETATM   17  H   UNK N   1      35.259  12.272  20.415  0.00  0.00     0.162 HD
BRANCH  16  18
HETATM   18  C   UNK N   1      35.859  10.926  18.939  0.00  0.00     0.127 C 
BRANCH  18  19
HETATM   19  C   UNK N   1      34.664  10.015  18.747  0.00  0.00     0.003 A 
HETATM   20  C   UNK N   1      35.117   8.572  18.806  0.00  0.00     0.007 A 
HETATM   21  C   UNK N   1      34.840   9.228  17.467  0.00  0.00     0.007 A 
ENDBRANCH  18  19
ENDBRANCH  16  18
ENDBRANCH  11  14
ENDBRANCH   1   8
BRANCH   7  22
HETATM   22  C   UNK N   1      34.658  15.503  10.096  0.00  0.00     0.174 A 
HETATM   23  O   UNK N   1      35.196  16.501   9.436  0.00  0.00    -0.278 OA
HETATM   24  C   UNK N   1      34.198  17.188   8.948  0.00  0.00     0.136 A 
HETATM   25  C   UNK N   1      34.341  18.417   8.124  0.00  0.00     0.099 C 
HETATM   26  N   UNK N   1      33.023  16.629   9.294  0.00  0.00    -0.281 N 
HETATM   27  N   UNK N   1      33.314  15.561  10.023  0.00  0.00    -0.277 N 
ATOM     28  HN  UNK N   1      32.091  16.962   9.047  1.00  0.00     0.189 HD
ATOM     29  HN  UNK N   1      32.651  14.909  10.444  1.00  0.00     0.189 HD
ENDBRANCH   7  22
TORSDOF 5
ENDMDL
MODEL 3
REMARK VINA RESULT:      -7.4      2.064      8.884
REMARK  5 active torsions:
REMARK  status: ('A' for Active; 'I' for Inactive)
REMARK       I    between atoms: N_3  and  C_2 
REMARK    1  A    between atoms: C_8  and  C_2 
REMARK    2  A    between atoms: N_3  and  C_4 
REMARK    3  A    between atoms: C_5  and  C_4 
REMARK    4  A    between atoms: C_14  and  C_13 
REMARK    5  A    between atoms: C_20  and  C_21 
ROOT
HETATM    1  C   UNK N   1      31.387  16.715   6.376  0.00  0.00    -0.019 A 
HETATM    2  C   UNK N   1      32.334  17.234   5.448  0.00  0.00    -0.051 A 
HETATM    3  C   UNK N   1      31.950  17.762   4.107  0.00  0.00     0.049 C 
HETATM    4  C   UNK N   1      33.693  17.278   5.794  0.00  0.00     0.008 A 
HETATM    5  C   UNK N   1      34.130  16.813   7.038  0.00  0.00     0.016 A 
HETATM    6  C   UNK N   1      31.858  16.263   7.616  0.00  0.00     0.028 A 
HETATM    7  C   UNK N   1      33.206  16.302   7.951  0.00  0.00     0.018 A 
ENDROOT
BRANCH   1   8
HETATM    8  C   UNK N   1      29.913  16.628   6.134  0.00  0.00    -0.025 A 
HETATM    9  C   UNK N   1      29.341  15.645   5.315  0.00  0.00     0.013 A 
HETATM   10  C   UNK N   1      27.960  15.618   5.095  0.00  0.00     0.018 A 
HETATM   11  C   UNK N   1      27.119  16.578   5.679  0.00  0.00     0.032 A 
HETATM   12  C   UNK N   1      27.690  17.550   6.509  0.00  0.00     0.018 A 
HETATM   13  C   UNK N   1      29.063  17.572   6.737  0.00  0.00     0.013 A 
BRANCH  11  14
HETATM   14  C   UNK N   1      25.652  16.537   5.387  0.00  0.00     0.251 C 
HETATM   15  O   UNK N   1      24.945  15.815   6.071  0.00  0.00    -0.268 OA
HETATM   16  N   UNK N   1      25.058  17.253   4.389  0.00  0.00    -0.356 N 
HETATM   17  H   UNK N   1      24.083  17.162   4.290  0.00  0.00     0.162 HD
BRANCH  16  18
HETATM   18  C   UNK N   1      25.738  18.130   3.469  0.00  0.00     0.127 C 
BRANCH  18  19
HETATM   19  C   UNK N   1      25.205  19.539   3.623  0.00  0.00     0.003 A 
HETATM   20  C   UNK N   1      26.241  20.527   3.131  0.00  0.00     0.007 A 
HETATM   21  C   UNK N   1      26.062  20.290   4.618  0.00  0.00     0.007 A 
ENDBRANCH  18  19
ENDBRANCH  16  18
ENDBRANCH  11  14
ENDBRANCH   1   8
BRANCH   7  22
HETATM   22  C   UNK N   1      33.613  15.794   9.264  0.00  0.00     0.174 A 
HETATM   23  O   UNK N   1      34.806  15.968   9.779  0.00  0.00    -0.278 OA
HETATM   24  C   UNK N   1      34.782  15.382  10.947  0.00  0.00     0.136 A 
HETATM   25  C   UNK N   1      35.930  15.327  11.889  0.00  0.00     0.099 C 
HETATM   26  N   UNK N   1      33.573  14.835  11.178  0.00  0.00    -0.281 N 
HETATM   27  N   UNK N   1      32.831  15.095  10.111  0.00  0.00    -0.277 N 
ATOM     28  HN  UNK N   1      33.284  14.320  12.010  1.00  0.00     0.189 HD
ATOM     29  HN  UNK N   1      31.860  14.822   9.961  1.00  0.00     0.189 HD
ENDBRANCH   7  22
TORSDOF 5
ENDMDL
MODEL 4
REMARK VINA RESULT:      -7.4      3.707      9.891
REMARK  5 active torsions:
REMARK  status: ('A' for Active; 'I' for Inactive)
REMARK       I    between atoms: N_3  and  C_2 
REMARK    1  A    between atoms: C_8  and  C_2 
REMARK    2  A    between atoms: N_3  and  C_4 
REMARK    3  A    between atoms: C_5  and  C_4 
REMARK    4  A    between atoms: C_14  and  C_13 
REMARK    5  A    between atoms: C_20  and  C_21 
ROOT
HETATM    1  C   UNK N   1      35.222  14.656   9.961  0.00  0.00    -0.019 A 
HETATM    2  C   UNK N   1      36.301  14.060   9.249  0.00  0.00    -0.051 A 
HETATM    3  C   UNK N   1      36.406  14.093   7.760  0.00  0.00     0.049 C 
HETATM    4  C   UNK N   1      37.332  13.424   9.955  0.00  0.00     0.008 A 
HETATM    5  C   UNK N   1      37.311  13.362  11.352  0.00  0.00     0.016 A 
HETATM    6  C   UNK N   1      35.234  14.581  11.360  0.00  0.00     0.028 A 
HETATM    7  C   UNK N   1      36.255  13.944  12.055  0.00  0.00     0.018 A 
ENDROOT
BRANCH   1   8
HETATM    8  C   UNK N   1      34.072  15.374   9.327  0.00  0.00    -0.025 A 
HETATM    9  C   UNK N   1      34.096  16.750   9.064  0.00  0.00     0.013 A 
HETATM   10  C   UNK N   1      32.988  17.385   8.495  0.00  0.00     0.018 A 
HETATM   11  C   UNK N   1      31.825  16.663   8.185  0.00  0.00     0.032 A 
HETATM   12  C   UNK N   1      31.807  15.286   8.435  0.00  0.00     0.018 A 
HETATM   13  C   UNK N   1      32.914  14.650   8.992  0.00  0.00     0.013 A 
BRANCH  11  14
HETATM   14  C   UNK N   1      30.647  17.387   7.614  0.00  0.00     0.251 C 
HETATM   15  O   UNK N   1      29.935  18.026   8.374  0.00  0.00    -0.268 OA
HETATM   16  N   UNK N   1      30.312  17.367   6.292  0.00  0.00    -0.356 N 
HETATM   17  H   UNK N   1      29.524  17.888   6.019  0.00  0.00     0.162 HD
BRANCH  16  18
HETATM   18  C   UNK N   1      31.018  16.646   5.262  0.00  0.00     0.127 C 
BRANCH  18  19
HETATM   19  C   UNK N   1      31.827  17.617   4.427  0.00  0.00     0.003 A 
HETATM   20  C   UNK N   1      32.820  16.848   3.581  0.00  0.00     0.007 A 
HETATM   21  C   UNK N   1      33.278  17.545   4.847  0.00  0.00     0.007 A 
ENDBRANCH  18  19
ENDBRANCH  16  18
ENDBRANCH  11  14
ENDBRANCH   1   8
BRANCH   7  22
HETATM   22  C   UNK N   1      36.180  13.900  13.518  0.00  0.00     0.174 A 
HETATM   23  O   UNK N   1      35.182  13.373  14.185  0.00  0.00    -0.278 OA
HETATM   24  C   UNK N   1      35.477  13.518  15.449  0.00  0.00     0.136 A 
HETATM   25  C   UNK N   1      34.620  13.063  16.575  0.00  0.00     0.099 C 
HETATM   26  N   UNK N   1      36.665  14.136  15.590  0.00  0.00    -0.281 N 
HETATM   27  N   UNK N   1      37.112  14.379  14.366  0.00  0.00    -0.277 N 
ATOM     28  HN  UNK N   1      37.131  14.372  16.466  1.00  0.00     0.189 HD
ATOM     29  HN  UNK N   1      37.988  14.837  14.115  1.00  0.00     0.189 HD
ENDBRANCH   7  22
TORSDOF 5
ENDMDL
MODEL 5
REMARK VINA RESULT:      -7.3     11.746     15.607
REMARK  5 active torsions:
REMARK  status: ('A' for Active; 'I' for Inactive)
REMARK       I    between atoms: N_3  and  C_2 
REMARK    1  A    between atoms: C_8  and  C_2 
REMARK    2  A    between atoms: N_3  and  C_4 
REMARK    3  A    between atoms: C_5  and  C_4 
REMARK    4  A    between atoms: C_14  and  C_13 
REMARK    5  A    between atoms: C_20  and  C_21 
ROOT
HETATM    1  C   UNK N   1      28.313  22.521  -6.474  0.00  0.00    -0.019 A 
HETATM    2  C   UNK N   1      28.105  21.605  -7.544  0.00  0.00    -0.051 A 
HETATM    3  C   UNK N   1      26.999  21.753  -8.535  0.00  0.00     0.049 C 
HETATM    4  C   UNK N   1      28.975  20.518  -7.706  0.00  0.00     0.008 A 
HETATM    5  C   UNK N   1      30.043  20.318  -6.825  0.00  0.00     0.016 A 
HETATM    6  C   UNK N   1      29.395  22.296  -5.614  0.00  0.00     0.028 A 
HETATM    7  C   UNK N   1      30.252  21.213  -5.775  0.00  0.00     0.018 A 
ENDROOT
BRANCH   1   8
HETATM    8  C   UNK N   1      27.467  23.725  -6.204  0.00  0.00    -0.025 A 
HETATM    9  C   UNK N   1      27.709  24.968  -6.805  0.00  0.00     0.013 A 
HETATM   10  C   UNK N   1      26.909  26.074  -6.502  0.00  0.00     0.018 A 
HETATM   11  C   UNK N   1      25.854  25.968  -5.581  0.00  0.00     0.032 A 
HETATM   12  C   UNK N   1      25.604  24.724  -4.993  0.00  0.00     0.018 A 
HETATM   13  C   UNK N   1      26.393  23.619  -5.302  0.00  0.00     0.013 A 
BRANCH  11  14
HETATM   14  C   UNK N   1      25.047  27.184  -5.255  0.00  0.00     0.251 C 
HETATM   15  O   UNK N   1      24.080  27.443  -5.955  0.00  0.00    -0.268 OA
HETATM   16  N   UNK N   1      25.335  28.031  -4.225  0.00  0.00    -0.356 N 
HETATM   17  H   UNK N   1      24.731  28.797  -4.090  0.00  0.00     0.162 HD
BRANCH  16  18
HETATM   18  C   UNK N   1      26.448  27.898  -3.318  0.00  0.00     0.127 C 
BRANCH  18  19
HETATM   19  C   UNK N   1      27.218  29.200  -3.265  0.00  0.00     0.003 A 
HETATM   20  C   UNK N   1      26.356  30.318  -3.811  0.00  0.00     0.007 A 
HETATM   21  C   UNK N   1      27.441  29.704  -4.674  0.00  0.00     0.007 A 
ENDBRANCH  18  19
ENDBRANCH  16  18
ENDBRANCH  11  14
ENDBRANCH   1   8
BRANCH   7  22
HETATM   22  C   UNK N   1      31.350  21.045  -4.819  0.00  0.00     0.174 A 
HETATM   23  O   UNK N   1      32.616  21.192  -5.124  0.00  0.00    -0.278 OA
HETATM   24  C   UNK N   1      33.281  20.969  -4.021  0.00  0.00     0.136 A 
HETATM   25  C   UNK N   1      34.761  21.026  -3.900  0.00  0.00     0.099 C 
HETATM   26  N   UNK N   1      32.438  20.680  -3.012  0.00  0.00    -0.281 N 
HETATM   27  N   UNK N   1      31.214  20.727  -3.516  0.00  0.00    -0.277 N 
ATOM     28  HN  UNK N   1      32.691  20.465  -2.047  1.00  0.00     0.189 HD
ATOM     29  HN  UNK N   1      30.340  20.559  -3.017  1.00  0.00     0.189 HD
ENDBRANCH   7  22
TORSDOF 5
ENDMDL
MODEL 6
REMARK VINA RESULT:      -7.1      3.290      9.249
REMARK  5 active torsions:
REMARK  status: ('A' for Active; 'I' for Inactive)
REMARK       I    between atoms: N_3  and  C_2 
REMARK    1  A    between atoms: C_8  and  C_2 
REMARK    2  A    between atoms: N_3  and  C_4 
REMARK    3  A    between atoms: C_5  and  C_4 
REMARK    4  A    between atoms: C_14  and  C_13 
REMARK    5  A    between atoms: C_20  and  C_21 
ROOT
HETATM    1  C   UNK N   1      29.065  17.902   5.562  0.00  0.00    -0.019 A 
HETATM    2  C   UNK N   1      29.292  17.846   6.967  0.00  0.00    -0.051 A 
HETATM    3  C   UNK N   1      28.312  18.362   7.967  0.00  0.00     0.049 C 
HETATM    4  C   UNK N   1      30.471  17.267   7.458  0.00  0.00     0.008 A 
HETATM    5  C   UNK N   1      31.432  16.750   6.583  0.00  0.00     0.016 A 
HETATM    6  C   UNK N   1      30.045  17.370   4.714  0.00  0.00     0.028 A 
HETATM    7  C   UNK N   1      31.216  16.803   5.205  0.00  0.00     0.018 A 
ENDROOT
BRANCH   1   8
HETATM    8  C   UNK N   1      27.845  18.478   4.916  0.00  0.00    -0.025 A 
HETATM    9  C   UNK N   1      26.876  17.682   4.290  0.00  0.00     0.013 A 
HETATM   10  C   UNK N   1      25.764  18.265   3.675  0.00  0.00     0.018 A 
HETATM   11  C   UNK N   1      25.600  19.659   3.658  0.00  0.00     0.032 A 
HETATM   12  C   UNK N   1      26.560  20.453   4.295  0.00  0.00     0.018 A 
HETATM   13  C   UNK N   1      27.663  19.872   4.919  0.00  0.00     0.013 A 
BRANCH  11  14
HETATM   14  C   UNK N   1      24.417  20.246   2.954  0.00  0.00     0.251 C 
HETATM   15  O   UNK N   1      24.615  21.087   2.092  0.00  0.00    -0.268 OA
HETATM   16  N   UNK N   1      23.126  19.904   3.229  0.00  0.00    -0.356 N 
HETATM   17  H   UNK N   1      22.422  20.342   2.698  0.00  0.00     0.162 HD
BRANCH  16  18
HETATM   18  C   UNK N   1      22.706  18.955   4.230  0.00  0.00     0.127 C 
BRANCH  18  19
HETATM   19  C   UNK N   1      21.195  18.873   4.250  0.00  0.00     0.003 A 
HETATM   20  C   UNK N   1      20.687  18.590   2.852  0.00  0.00     0.007 A 
HETATM   21  C   UNK N   1      20.625  19.997   3.413  0.00  0.00     0.007 A 
ENDBRANCH  18  19
ENDBRANCH  16  18
ENDBRANCH  11  14
ENDBRANCH   1   8
BRANCH   7  22
HETATM   22  C   UNK N   1      32.195  16.284   4.246  0.00  0.00     0.174 A 
HETATM   23  O   UNK N   1      32.913  15.205   4.443  0.00  0.00    -0.278 OA
HETATM   24  C   UNK N   1      33.654  15.066   3.376  0.00  0.00     0.136 A 
HETATM   25  C   UNK N   1      34.632  13.968   3.164  0.00  0.00     0.099 C 
HETATM   26  N   UNK N   1      33.408  16.056   2.497  0.00  0.00    -0.281 N 
HETATM   27  N   UNK N   1      32.483  16.829   3.048  0.00  0.00    -0.277 N 
ATOM     28  HN  UNK N   1      33.848  16.187   1.586  1.00  0.00     0.189 HD
ATOM     29  HN  UNK N   1      32.070  17.670   2.644  1.00  0.00     0.189 HD
ENDBRANCH   7  22
TORSDOF 5
ENDMDL
MODEL 7
REMARK VINA RESULT:      -7.0      4.409     10.516
REMARK  5 active torsions:
REMARK  status: ('A' for Active; 'I' for Inactive)
REMARK       I    between atoms: N_3  and  C_2 
REMARK    1  A    between atoms: C_8  and  C_2 
REMARK    2  A    between atoms: N_3  and  C_4 
REMARK    3  A    between atoms: C_5  and  C_4 
REMARK    4  A    between atoms: C_14  and  C_13 
REMARK    5  A    between atoms: C_20  and  C_21 
ROOT
HETATM    1  C   UNK N   1      25.260  19.096   4.369  0.00  0.00    -0.019 A 
HETATM    2  C   UNK N   1      25.848  20.048   3.489  0.00  0.00    -0.051 A 
HETATM    3  C   UNK N   1      25.186  20.507   2.232  0.00  0.00     0.049 C 
HETATM    4  C   UNK N   1      27.094  20.608   3.804  0.00  0.00     0.008 A 
HETATM    5  C   UNK N   1      27.771  20.238   4.970  0.00  0.00     0.016 A 
HETATM    6  C   UNK N   1      25.962  18.751   5.532  0.00  0.00     0.028 A 
HETATM    7  C   UNK N   1      27.200  19.304   5.836  0.00  0.00     0.018 A 
ENDROOT
BRANCH   1   8
HETATM    8  C   UNK N   1      23.933  18.439   4.155  0.00  0.00    -0.025 A 
HETATM    9  C   UNK N   1      22.760  19.168   3.919  0.00  0.00     0.013 A 
HETATM   10  C   UNK N   1      21.536  18.513   3.750  0.00  0.00     0.018 A 
HETATM   11  C   UNK N   1      21.453  17.113   3.827  0.00  0.00     0.032 A 
HETATM   12  C   UNK N   1      22.626  16.385   4.048  0.00  0.00     0.018 A 
HETATM   13  C   UNK N   1      23.848  17.036   4.205  0.00  0.00     0.013 A 
BRANCH  11  14
HETATM   14  C   UNK N   1      20.117  16.454   3.681  0.00  0.00     0.251 C 
HETATM   15  O   UNK N   1      19.408  16.357   4.670  0.00  0.00    -0.268 OA
HETATM   16  N   UNK N   1      19.649  15.942   2.507  0.00  0.00    -0.356 N 
HETATM   17  H   UNK N   1      18.751  15.539   2.518  0.00  0.00     0.162 HD
BRANCH  16  18
HETATM   18  C   UNK N   1      20.359  15.942   1.252  0.00  0.00     0.127 C 
BRANCH  18  19
HETATM   19  C   UNK N   1      20.595  14.516   0.802  0.00  0.00     0.003 A 
HETATM   20  C   UNK N   1      21.091  13.693   1.972  0.00  0.00     0.007 A 
HETATM   21  C   UNK N   1      22.068  14.193   0.924  0.00  0.00     0.007 A 
ENDBRANCH  18  19
ENDBRANCH  16  18
ENDBRANCH  11  14
ENDBRANCH   1   8
BRANCH   7  22
HETATM   22  C   UNK N   1      27.872  18.876   7.067  0.00  0.00     0.174 A 
HETATM   23  O   UNK N   1      28.983  18.181   7.090  0.00  0.00    -0.278 OA
HETATM   24  C   UNK N   1      29.267  18.000   8.353  0.00  0.00     0.136 A 
HETATM   25  C   UNK N   1      30.452  17.257   8.854  0.00  0.00     0.099 C 
HETATM   26  N   UNK N   1      28.338  18.581   9.135  0.00  0.00    -0.281 N 
HETATM   27  N   UNK N   1      27.452  19.136   8.321  0.00  0.00    -0.277 N 
ATOM     28  HN  UNK N   1      28.318  18.592  10.155  1.00  0.00     0.189 HD
ATOM     29  HN  UNK N   1      26.618  19.659   8.589  1.00  0.00     0.189 HD
ENDBRANCH   7  22
TORSDOF 5
ENDMDL
MODEL 8
REMARK VINA RESULT:      -6.9     11.379     15.359
REMARK  5 active torsions:
REMARK  status: ('A' for Active; 'I' for Inactive)
REMARK       I    between atoms: N_3  and  C_2 
REMARK    1  A    between atoms: C_8  and  C_2 
REMARK    2  A    between atoms: N_3  and  C_4 
REMARK    3  A    between atoms: C_5  and  C_4 
REMARK    4  A    between atoms: C_14  and  C_13 
REMARK    5  A    between atoms: C_20  and  C_21 
ROOT
HETATM    1  C   UNK N   1      35.536  11.775  17.719  0.00  0.00    -0.019 A 
HETATM    2  C   UNK N   1      35.326  13.022  18.372  0.00  0.00    -0.051 A 
HETATM    3  C   UNK N   1      34.875  13.129  19.790  0.00  0.00     0.049 C 
HETATM    4  C   UNK N   1      35.565  14.218  17.679  0.00  0.00     0.008 A 
HETATM    5  C   UNK N   1      36.001  14.200  16.350  0.00  0.00     0.016 A 
HETATM    6  C   UNK N   1      35.979  11.792  16.390  0.00  0.00     0.028 A 
HETATM    7  C   UNK N   1      36.208  12.979  15.705  0.00  0.00     0.018 A 
ENDROOT
BRANCH   1   8
HETATM    8  C   UNK N   1      35.333  10.434  18.351  0.00  0.00    -0.025 A 
HETATM    9  C   UNK N   1      34.385   9.515  17.882  0.00  0.00     0.013 A 
HETATM   10  C   UNK N   1      34.210   8.283  18.520  0.00  0.00     0.018 A 
HETATM   11  C   UNK N   1      34.969   7.945  19.652  0.00  0.00     0.032 A 
HETATM   12  C   UNK N   1      35.925   8.857  20.111  0.00  0.00     0.018 A 
HETATM   13  C   UNK N   1      36.109  10.080  19.469  0.00  0.00     0.013 A 
BRANCH  11  14
HETATM   14  C   UNK N   1      34.723   6.634  20.330  0.00  0.00     0.251 C 
HETATM   15  O   UNK N   1      35.500   5.717  20.116  0.00  0.00    -0.268 OA
HETATM   16  N   UNK N   1      33.672   6.399  21.166  0.00  0.00    -0.356 N 
HETATM   17  H   UNK N   1      33.609   5.504  21.569  0.00  0.00     0.162 HD
BRANCH  16  18
HETATM   18  C   UNK N   1      32.646   7.353  21.509  0.00  0.00     0.127 C 
BRANCH  18  19
HETATM   19  C   UNK N   1      31.293   6.812  21.097  0.00  0.00     0.003 A 
HETATM   20  C   UNK N   1      31.309   6.484  19.620  0.00  0.00     0.007 A 
HETATM   21  C   UNK N   1      30.657   7.763  20.107  0.00  0.00     0.007 A 
ENDBRANCH  18  19
ENDBRANCH  16  18
ENDBRANCH  11  14
ENDBRANCH   1   8
BRANCH   7  22
HETATM   22  C   UNK N   1      36.655  12.905  14.311  0.00  0.00     0.174 A 
HETATM   23  O   UNK N   1      36.913  11.783  13.683  0.00  0.00    -0.278 OA
HETATM   24  C   UNK N   1      37.275  12.123  12.474  0.00  0.00     0.136 A 
HETATM   25  C   UNK N   1      37.664  11.164  11.408  0.00  0.00     0.099 C 
HETATM   26  N   UNK N   1      37.245  13.461  12.330  0.00  0.00    -0.281 N 
HETATM   27  N   UNK N   1      36.853  13.958  13.494  0.00  0.00    -0.277 N 
ATOM     28  HN  UNK N   1      37.481  13.990  11.490  1.00  0.00     0.189 HD
ATOM     29  HN  UNK N   1      36.725  14.943  13.726  1.00  0.00     0.189 HD
ENDBRANCH   7  22
TORSDOF 5
ENDMDL
MODEL 9
REMARK VINA RESULT:      -6.8      5.874      9.057
REMARK  5 active torsions:
REMARK  status: ('A' for Active; 'I' for Inactive)
REMARK       I    between atoms: N_3  and  C_2 
REMARK    1  A    between atoms: C_8  and  C_2 
REMARK    2  A    between atoms: N_3  and  C_4 
REMARK    3  A    between atoms: C_5  and  C_4 
REMARK    4  A    between atoms: C_14  and  C_13 
REMARK    5  A    between atoms: C_20  and  C_21 
ROOT
HETATM    1  C   UNK N   1      26.092  15.869   5.739  0.00  0.00    -0.019 A 
HETATM    2  C   UNK N   1      26.258  16.309   4.395  0.00  0.00    -0.051 A 
HETATM    3  C   UNK N   1      25.253  16.042   3.325  0.00  0.00     0.049 C 
HETATM    4  C   UNK N   1      27.399  17.043   4.041  0.00  0.00     0.008 A 
HETATM    5  C   UNK N   1      28.381  17.344   4.991  0.00  0.00     0.016 A 
HETATM    6  C   UNK N   1      27.091  16.192   6.667  0.00  0.00     0.028 A 
HETATM    7  C   UNK N   1      28.223  16.914   6.310  0.00  0.00     0.018 A 
ENDROOT
BRANCH   1   8
HETATM    8  C   UNK N   1      24.917  15.094   6.245  0.00  0.00    -0.025 A 
HETATM    9  C   UNK N   1      23.652  15.671   6.421  0.00  0.00     0.013 A 
HETATM   10  C   UNK N   1      22.587  14.915   6.922  0.00  0.00     0.018 A 
HETATM   11  C   UNK N   1      22.765  13.567   7.272  0.00  0.00     0.032 A 
HETATM   12  C   UNK N   1      24.024  12.988   7.083  0.00  0.00     0.018 A 
HETATM   13  C   UNK N   1      25.082  13.736   6.573  0.00  0.00     0.013 A 
BRANCH  11  14
HETATM   14  C   UNK N   1      21.611  12.804   7.843  0.00  0.00     0.251 C 
HETATM   15  O   UNK N   1      20.743  12.410   7.080  0.00  0.00    -0.268 OA
HETATM   16  N   UNK N   1      21.465  12.533   9.172  0.00  0.00    -0.356 N 
HETATM   17  H   UNK N   1      20.673  12.013   9.440  0.00  0.00     0.162 HD
BRANCH  16  18
HETATM   18  C   UNK N   1      22.372  12.943  10.214  0.00  0.00     0.127 C 
BRANCH  18  19
HETATM   19  C   UNK N   1      23.077  11.728  10.780  0.00  0.00     0.003 A 
HETATM   20  C   UNK N   1      23.352  11.945  12.253  0.00  0.00     0.007 A 
HETATM   21  C   UNK N   1      24.463  12.126  11.238  0.00  0.00     0.007 A 
ENDBRANCH  18  19
ENDBRANCH  16  18
ENDBRANCH  11  14
ENDBRANCH   1   8
BRANCH   7  22
HETATM   22  C   UNK N   1      29.225  17.194   7.342  0.00  0.00     0.174 A 
HETATM   23  O   UNK N   1      30.503  17.358   7.096  0.00  0.00    -0.278 OA
HETATM   24  C   UNK N   1      31.064  17.592   8.253  0.00  0.00     0.136 A 
HETATM   25  C   UNK N   1      32.516  17.838   8.454  0.00  0.00     0.099 C 
HETATM   26  N   UNK N   1      30.144  17.580   9.236  0.00  0.00    -0.281 N 
HETATM   27  N   UNK N   1      28.978  17.327   8.660  0.00  0.00    -0.277 N 
ATOM     28  HN  UNK N   1      30.311  17.733  10.231  1.00  0.00     0.189 HD
ATOM     29  HN  UNK N   1      28.072  17.250   9.121  1.00  0.00     0.189 HD
ENDBRANCH   7  22
TORSDOF 5
ENDMDL
