MODEL 1
REMARK VINA RESULT:      -7.7      0.000      0.000
REMARK  6 active torsions:
REMARK  status: ('A' for Active; 'I' for Inactive)
REMARK    1  A    between atoms: C_4  and  N_14 
REMARK    2  A    between atoms: C_7  and  C_26 
REMARK    3  A    between atoms: C_11  and  C_12 
REMARK       I    between atoms: C_12  and  N_14 
REMARK    4  A    between atoms: C_16  and  C_17 
REMARK    5  A    between atoms: C_20  and  C_23 
REMARK       I    between atoms: C_23  and  N_25 
REMARK    6  A    between atoms: N_25  and  C_26 
ROOT
HETATM    1  C   UNK N   1      37.542  11.693  12.272  0.00  0.00     0.049 C 
HETATM    2  C   UNK N   1      37.013  12.967  11.701  0.00  0.00    -0.051 A 
HETATM    3  C   UNK N   1      37.154  13.185  10.319  0.00  0.00     0.009 A 
HETATM    4  C   UNK N   1      36.635  14.346   9.722  0.00  0.00     0.017 A 
HETATM    5  C   UNK N   1      36.015  15.315  10.518  0.00  0.00     0.032 A 
HETATM    6  C   UNK N   1      35.918  15.110  11.879  0.00  0.00     0.029 A 
HETATM    7  C   UNK N   1      36.377  13.958  12.497  0.00  0.00    -0.019 A 
ENDROOT
BRANCH   7   8
HETATM    8  C   UNK N   1      36.051  13.843  13.936  0.00  0.00    -0.025 A 
HETATM    9  C   UNK N   1      35.020  12.965  14.338  0.00  0.00     0.013 A 
HETATM   10  C   UNK N   1      34.746  12.745  15.682  0.00  0.00     0.018 A 
HETATM   11  C   UNK N   1      35.537  13.365  16.648  0.00  0.00     0.032 A 
HETATM   12  C   UNK N   1      36.569  14.231  16.253  0.00  0.00     0.018 A 
HETATM   13  C   UNK N   1      36.823  14.471  14.911  0.00  0.00     0.013 A 
BRANCH  11  14
HETATM   14  C   UNK N   1      35.216  13.266  18.070  0.00  0.00     0.251 C 
HETATM   15  O   UNK N   1      35.186  14.259  18.783  0.00  0.00    -0.268 OA
HETATM   16  N   UNK N   1      35.145  12.026  18.595  0.00  0.00    -0.356 N 
HETATM   17  H   UNK N   1      34.908  11.279  17.998  0.00  0.00     0.162 HD
BRANCH  16  18
HETATM   18  C   UNK N   1      35.395  11.741  19.973  0.00  0.00     0.127 C 
BRANCH  18  19
HETATM   19  C   UNK N   1      35.741  10.248  20.048  0.00  0.00     0.003 A 
HETATM   20  C   UNK N   1      36.726   9.892  18.954  0.00  0.00     0.007 A 
HETATM   21  C   UNK N   1      37.223  10.028  20.369  0.00  0.00     0.007 A 
ENDBRANCH  18  19
ENDBRANCH  16  18
ENDBRANCH  11  14
ENDBRANCH   7   8
BRANCH   5  22
HETATM   22  C   UNK N   1      35.306  16.493   9.986  0.00  0.00     0.252 C 
HETATM   23  O   UNK N   1      35.531  17.591  10.472  0.00  0.00    -0.268 OA
HETATM   24  N   UNK N   1      34.337  16.353   9.047  0.00  0.00    -0.352 N 
HETATM   25  H   UNK N   1      34.206  15.477   8.616  0.00  0.00     0.163 HD
BRANCH  24  26
HETATM   26  C   UNK N   1      33.489  17.465   8.663  0.00  0.00     0.084 A 
HETATM   27  C   UNK N   1      32.455  16.991   7.666  0.00  0.00     0.027 A 
HETATM   28  C   UNK N   1      33.642  17.791   7.184  0.00  0.00     0.027 A 
ENDBRANCH  24  26
ENDBRANCH   5  22
TORSDOF 6
ENDMDL
MODEL 2
REMARK VINA RESULT:      -7.7     12.197     15.451
REMARK  6 active torsions:
REMARK  status: ('A' for Active; 'I' for Inactive)
REMARK    1  A    between atoms: C_4  and  N_14 
REMARK    2  A    between atoms: C_7  and  C_26 
REMARK    3  A    between atoms: C_11  and  C_12 
REMARK       I    between atoms: C_12  and  N_14 
REMARK    4  A    between atoms: C_16  and  C_17 
REMARK    5  A    between atoms: C_20  and  C_23 
REMARK       I    between atoms: C_23  and  N_25 
REMARK    6  A    between atoms: N_25  and  C_26 
ROOT
HETATM    1  C   UNK N   1      20.519  18.978   3.374  0.00  0.00     0.049 C 
HETATM    2  C   UNK N   1      21.976  19.139   3.655  0.00  0.00    -0.051 A 
HETATM    3  C   UNK N   1      22.705  20.056   2.878  0.00  0.00     0.009 A 
HETATM    4  C   UNK N   1      24.068  20.281   3.129  0.00  0.00     0.017 A 
HETATM    5  C   UNK N   1      24.717  19.549   4.130  0.00  0.00     0.032 A 
HETATM    6  C   UNK N   1      24.002  18.622   4.860  0.00  0.00     0.029 A 
HETATM    7  C   UNK N   1      22.646  18.407   4.671  0.00  0.00    -0.019 A 
ENDROOT
BRANCH   7   8
HETATM    8  C   UNK N   1      22.014  17.489   5.645  0.00  0.00    -0.025 A 
HETATM    9  C   UNK N   1      22.446  16.145   5.703  0.00  0.00     0.013 A 
HETATM   10  C   UNK N   1      21.957  15.274   6.668  0.00  0.00     0.018 A 
HETATM   11  C   UNK N   1      21.062  15.749   7.624  0.00  0.00     0.032 A 
HETATM   12  C   UNK N   1      20.636  17.086   7.576  0.00  0.00     0.018 A 
HETATM   13  C   UNK N   1      21.104  17.949   6.596  0.00  0.00     0.013 A 
BRANCH  11  14
HETATM   14  C   UNK N   1      20.424  14.849   8.583  0.00  0.00     0.251 C 
HETATM   15  O   UNK N   1      19.361  15.138   9.112  0.00  0.00    -0.268 OA
HETATM   16  N   UNK N   1      21.146  13.789   8.997  0.00  0.00    -0.356 N 
HETATM   17  H   UNK N   1      21.841  13.433   8.396  0.00  0.00     0.162 HD
BRANCH  16  18
HETATM   18  C   UNK N   1      20.953  13.153  10.263  0.00  0.00     0.127 C 
BRANCH  18  19
HETATM   19  C   UNK N   1      22.002  12.037  10.349  0.00  0.00     0.003 A 
HETATM   20  C   UNK N   1      23.392  12.639  10.393  0.00  0.00     0.007 A 
HETATM   21  C   UNK N   1      22.787  12.102  11.664  0.00  0.00     0.007 A 
ENDBRANCH  18  19
ENDBRANCH  16  18
ENDBRANCH  11  14
ENDBRANCH   7   8
BRANCH   5  22
HETATM   22  C   UNK N   1      26.097  19.805   4.580  0.00  0.00     0.252 C 
HETATM   23  O   UNK N   1      26.928  20.177   3.765  0.00  0.00    -0.268 OA
HETATM   24  N   UNK N   1      26.474  19.529   5.854  0.00  0.00    -0.352 N 
HETATM   25  H   UNK N   1      25.787  19.290   6.518  0.00  0.00     0.163 HD
BRANCH  24  26
HETATM   26  C   UNK N   1      27.865  19.576   6.259  0.00  0.00     0.084 A 
HETATM   27  C   UNK N   1      28.343  18.179   6.590  0.00  0.00     0.027 A 
HETATM   28  C   UNK N   1      28.033  19.145   7.709  0.00  0.00     0.027 A 
ENDBRANCH  24  26
ENDBRANCH   5  22
TORSDOF 6
ENDMDL
MODEL 3
REMARK VINA RESULT:      -7.6     19.566     22.509
REMARK  6 active torsions:
REMARK  status: ('A' for Active; 'I' for Inactive)
REMARK    1  A    between atoms: C_4  and  N_14 
REMARK    2  A    between atoms: C_7  and  C_26 
REMARK    3  A    between atoms: C_11  and  C_12 
REMARK       I    between atoms: C_12  and  N_14 
REMARK    4  A    between atoms: C_16  and  C_17 
REMARK    5  A    between atoms: C_20  and  C_23 
REMARK       I    between atoms: C_23  and  N_25 
REMARK    6  A    between atoms: N_25  and  C_26 
ROOT
HETATM    1  C   UNK N   1      25.871  23.858  -5.856  0.00  0.00     0.049 C 
HETATM    2  C   UNK N   1      26.132  25.195  -5.246  0.00  0.00    -0.051 A 
HETATM    3  C   UNK N   1      25.165  26.202  -5.416  0.00  0.00     0.009 A 
HETATM    4  C   UNK N   1      25.339  27.466  -4.826  0.00  0.00     0.017 A 
HETATM    5  C   UNK N   1      26.507  27.738  -4.105  0.00  0.00     0.032 A 
HETATM    6  C   UNK N   1      27.467  26.756  -3.980  0.00  0.00     0.029 A 
HETATM    7  C   UNK N   1      27.311  25.485  -4.508  0.00  0.00    -0.019 A 
ENDROOT
BRANCH   7   8
HETATM    8  C   UNK N   1      28.370  24.518  -4.145  0.00  0.00    -0.025 A 
HETATM    9  C   UNK N   1      28.301  23.861  -2.896  0.00  0.00     0.013 A 
HETATM   10  C   UNK N   1      29.214  22.870  -2.553  0.00  0.00     0.018 A 
HETATM   11  C   UNK N   1      30.182  22.487  -3.479  0.00  0.00     0.032 A 
HETATM   12  C   UNK N   1      30.249  23.130  -4.725  0.00  0.00     0.018 A 
HETATM   13  C   UNK N   1      29.355  24.137  -5.055  0.00  0.00     0.013 A 
BRANCH  11  14
HETATM   14  C   UNK N   1      31.238  21.541  -3.125  0.00  0.00     0.251 C 
HETATM   15  O   UNK N   1      31.973  21.740  -2.169  0.00  0.00    -0.268 OA
HETATM   16  N   UNK N   1      31.488  20.548  -4.003  0.00  0.00    -0.356 N 
HETATM   17  H   UNK N   1      30.756  20.250  -4.591  0.00  0.00     0.162 HD
BRANCH  16  18
HETATM   18  C   UNK N   1      32.759  19.906  -4.123  0.00  0.00     0.127 C 
BRANCH  18  19
HETATM   19  C   UNK N   1      33.551  20.708  -5.164  0.00  0.00     0.003 A 
HETATM   20  C   UNK N   1      34.696  21.437  -4.490  0.00  0.00     0.007 A 
HETATM   21  C   UNK N   1      34.990  20.197  -5.294  0.00  0.00     0.007 A 
ENDBRANCH  18  19
ENDBRANCH  16  18
ENDBRANCH  11  14
ENDBRANCH   7   8
BRANCH   5  22
HETATM   22  C   UNK N   1      26.729  28.968  -3.323  0.00  0.00     0.252 C 
HETATM   23  O   UNK N   1      26.261  30.021  -3.727  0.00  0.00    -0.268 OA
HETATM   24  N   UNK N   1      27.531  28.958  -2.229  0.00  0.00    -0.352 N 
HETATM   25  H   UNK N   1      27.852  28.097  -1.874  0.00  0.00     0.163 HD
BRANCH  24  26
HETATM   26  C   UNK N   1      27.928  30.187  -1.570  0.00  0.00     0.084 A 
HETATM   27  C   UNK N   1      29.389  30.108  -1.188  0.00  0.00     0.027 A 
HETATM   28  C   UNK N   1      28.331  29.934  -0.124  0.00  0.00     0.027 A 
ENDBRANCH  24  26
ENDBRANCH   5  22
TORSDOF 6
ENDMDL
MODEL 4
REMARK VINA RESULT:      -7.4      4.603      9.000
REMARK  6 active torsions:
REMARK  status: ('A' for Active; 'I' for Inactive)
REMARK    1  A    between atoms: C_4  and  N_14 
REMARK    2  A    between atoms: C_7  and  C_26 
REMARK    3  A    between atoms: C_11  and  C_12 
REMARK       I    between atoms: C_12  and  N_14 
REMARK    4  A    between atoms: C_16  and  C_17 
REMARK    5  A    between atoms: C_20  and  C_23 
REMARK       I    between atoms: C_23  and  N_25 
REMARK    6  A    between atoms: N_25  and  C_26 
ROOT
HETATM    1  C   UNK N   1      32.145  14.712   4.563  0.00  0.00     0.049 C 
HETATM    2  C   UNK N   1      31.129  15.805   4.610  0.00  0.00    -0.051 A 
HETATM    3  C   UNK N   1      30.121  15.817   3.630  0.00  0.00     0.009 A 
HETATM    4  C   UNK N   1      29.113  16.796   3.654  0.00  0.00     0.017 A 
HETATM    5  C   UNK N   1      29.142  17.795   4.633  0.00  0.00     0.032 A 
HETATM    6  C   UNK N   1      30.158  17.796   5.566  0.00  0.00     0.029 A 
HETATM    7  C   UNK N   1      31.143  16.822   5.602  0.00  0.00    -0.019 A 
ENDROOT
BRANCH   7   8
HETATM    8  C   UNK N   1      32.059  16.895   6.762  0.00  0.00    -0.025 A 
HETATM    9  C   UNK N   1      31.804  16.086   7.891  0.00  0.00     0.013 A 
HETATM   10  C   UNK N   1      32.690  16.043   8.960  0.00  0.00     0.018 A 
HETATM   11  C   UNK N   1      33.874  16.775   8.892  0.00  0.00     0.032 A 
HETATM   12  C   UNK N   1      34.137  17.574   7.768  0.00  0.00     0.018 A 
HETATM   13  C   UNK N   1      33.238  17.637   6.713  0.00  0.00     0.013 A 
BRANCH  11  14
HETATM   14  C   UNK N   1      34.780  16.862  10.036  0.00  0.00     0.251 C 
HETATM   15  O   UNK N   1      35.667  17.702  10.078  0.00  0.00    -0.268 OA
HETATM   16  N   UNK N   1      34.716  15.867  10.943  0.00  0.00    -0.356 N 
HETATM   17  H   UNK N   1      33.866  15.379  11.042  0.00  0.00     0.162 HD
BRANCH  16  18
HETATM   18  C   UNK N   1      35.819  15.483  11.768  0.00  0.00     0.127 C 
BRANCH  18  19
HETATM   19  C   UNK N   1      35.430  14.147  12.414  0.00  0.00     0.003 A 
HETATM   20  C   UNK N   1      36.648  13.252  12.520  0.00  0.00     0.007 A 
HETATM   21  C   UNK N   1      36.138  13.944  13.758  0.00  0.00     0.007 A 
ENDBRANCH  18  19
ENDBRANCH  16  18
ENDBRANCH  11  14
ENDBRANCH   7   8
BRANCH   5  22
HETATM   22  C   UNK N   1      28.064  18.777   4.845  0.00  0.00     0.252 C 
HETATM   23  O   UNK N   1      27.614  18.932   5.970  0.00  0.00    -0.268 OA
HETATM   24  N   UNK N   1      27.498  19.424   3.795  0.00  0.00    -0.352 N 
HETATM   25  H   UNK N   1      27.907  19.342   2.902  0.00  0.00     0.163 HD
BRANCH  24  26
HETATM   26  C   UNK N   1      26.306  20.233   3.957  0.00  0.00     0.084 A 
HETATM   27  C   UNK N   1      25.098  19.453   3.486  0.00  0.00     0.027 A 
HETATM   28  C   UNK N   1      25.665  20.547   2.612  0.00  0.00     0.027 A 
ENDBRANCH  24  26
ENDBRANCH   5  22
TORSDOF 6
ENDMDL
MODEL 5
REMARK VINA RESULT:      -7.4      5.302      9.779
REMARK  6 active torsions:
REMARK  status: ('A' for Active; 'I' for Inactive)
REMARK    1  A    between atoms: C_4  and  N_14 
REMARK    2  A    between atoms: C_7  and  C_26 
REMARK    3  A    between atoms: C_11  and  C_12 
REMARK       I    between atoms: C_12  and  N_14 
REMARK    4  A    between atoms: C_16  and  C_17 
REMARK    5  A    between atoms: C_20  and  C_23 
REMARK       I    between atoms: C_23  and  N_25 
REMARK    6  A    between atoms: N_25  and  C_26 
ROOT
HETATM    1  C   UNK N   1      30.970  14.477   4.699  0.00  0.00     0.049 C 
HETATM    2  C   UNK N   1      30.053  15.650   4.596  0.00  0.00    -0.051 A 
HETATM    3  C   UNK N   1      28.916  15.534   3.777  0.00  0.00     0.009 A 
HETATM    4  C   UNK N   1      27.995  16.590   3.679  0.00  0.00     0.017 A 
HETATM    5  C   UNK N   1      28.238  17.786   4.365  0.00  0.00     0.032 A 
HETATM    6  C   UNK N   1      29.378  17.904   5.133  0.00  0.00     0.029 A 
HETATM    7  C   UNK N   1      30.284  16.868   5.290  0.00  0.00    -0.019 A 
ENDROOT
BRANCH   7   8
HETATM    8  C   UNK N   1      31.364  17.120   6.271  0.00  0.00    -0.025 A 
HETATM    9  C   UNK N   1      31.068  17.049   7.651  0.00  0.00     0.013 A 
HETATM   10  C   UNK N   1      32.068  17.176   8.607  0.00  0.00     0.018 A 
HETATM   11  C   UNK N   1      33.390  17.326   8.195  0.00  0.00     0.032 A 
HETATM   12  C   UNK N   1      33.690  17.388   6.825  0.00  0.00     0.018 A 
HETATM   13  C   UNK N   1      32.688  17.288   5.871  0.00  0.00     0.013 A 
BRANCH  11  14
HETATM   14  C   UNK N   1      34.461  17.586   9.155  0.00  0.00     0.251 C 
HETATM   15  O   UNK N   1      35.350  18.389   8.909  0.00  0.00    -0.268 OA
HETATM   16  N   UNK N   1      34.530  16.773  10.227  0.00  0.00    -0.356 N 
HETATM   17  H   UNK N   1      33.702  16.341  10.540  0.00  0.00     0.162 HD
BRANCH  16  18
HETATM   18  C   UNK N   1      35.744  16.505  10.934  0.00  0.00     0.127 C 
BRANCH  18  19
HETATM   19  C   UNK N   1      35.491  15.239  11.761  0.00  0.00     0.003 A 
HETATM   20  C   UNK N   1      34.815  14.189  10.902  0.00  0.00     0.007 A 
HETATM   21  C   UNK N   1      36.281  14.044  11.218  0.00  0.00     0.007 A 
ENDBRANCH  18  19
ENDBRANCH  16  18
ENDBRANCH  11  14
ENDBRANCH   7   8
BRANCH   5  22
HETATM   22  C   UNK N   1      27.275  18.898   4.455  0.00  0.00     0.252 C 
HETATM   23  O   UNK N   1      26.844  19.396   3.427  0.00  0.00    -0.268 OA
HETATM   24  N   UNK N   1      26.952  19.440   5.658  0.00  0.00    -0.352 N 
HETATM   25  H   UNK N   1      27.253  18.994   6.483  0.00  0.00     0.163 HD
BRANCH  24  26
HETATM   26  C   UNK N   1      26.174  20.659   5.754  0.00  0.00     0.084 A 
HETATM   27  C   UNK N   1      27.092  21.821   6.062  0.00  0.00     0.027 A 
HETATM   28  C   UNK N   1      26.231  21.241   7.159  0.00  0.00     0.027 A 
ENDBRANCH  24  26
ENDBRANCH   5  22
TORSDOF 6
ENDMDL
MODEL 6
REMARK VINA RESULT:      -7.2      2.838      9.797
REMARK  6 active torsions:
REMARK  status: ('A' for Active; 'I' for Inactive)
REMARK    1  A    between atoms: C_4  and  N_14 
REMARK    2  A    between atoms: C_7  and  C_26 
REMARK    3  A    between atoms: C_11  and  C_12 
REMARK       I    between atoms: C_12  and  N_14 
REMARK    4  A    between atoms: C_16  and  C_17 
REMARK    5  A    between atoms: C_20  and  C_23 
REMARK       I    between atoms: C_23  and  N_25 
REMARK    6  A    between atoms: N_25  and  C_26 
ROOT
HETATM    1  C   UNK N   1      35.626  14.416  18.132  0.00  0.00     0.049 C 
HETATM    2  C   UNK N   1      35.334  12.984  18.437  0.00  0.00    -0.051 A 
HETATM    3  C   UNK N   1      35.153  12.615  19.781  0.00  0.00     0.009 A 
HETATM    4  C   UNK N   1      34.831  11.290  20.121  0.00  0.00     0.017 A 
HETATM    5  C   UNK N   1      34.739  10.321  19.116  0.00  0.00     0.032 A 
HETATM    6  C   UNK N   1      34.959  10.686  17.804  0.00  0.00     0.029 A 
HETATM    7  C   UNK N   1      35.233  11.991  17.426  0.00  0.00    -0.019 A 
ENDROOT
BRANCH   7   8
HETATM    8  C   UNK N   1      35.287  12.224  15.966  0.00  0.00    -0.025 A 
HETATM    9  C   UNK N   1      36.452  12.792  15.404  0.00  0.00     0.013 A 
HETATM   10  C   UNK N   1      36.590  12.936  14.029  0.00  0.00     0.018 A 
HETATM   11  C   UNK N   1      35.583  12.464  13.190  0.00  0.00     0.032 A 
HETATM   12  C   UNK N   1      34.427  11.890  13.743  0.00  0.00     0.018 A 
HETATM   13  C   UNK N   1      34.277  11.773  15.117  0.00  0.00     0.013 A 
BRANCH  11  14
HETATM   14  C   UNK N   1      35.622  12.700  11.748  0.00  0.00     0.251 C 
HETATM   15  O   UNK N   1      36.661  12.579  11.116  0.00  0.00    -0.268 OA
HETATM   16  N   UNK N   1      34.520  13.235  11.187  0.00  0.00    -0.356 N 
HETATM   17  H   UNK N   1      33.651  13.077  11.622  0.00  0.00     0.162 HD
BRANCH  16  18
HETATM   18  C   UNK N   1      34.549  14.019   9.991  0.00  0.00     0.127 C 
BRANCH  18  19
HETATM   19  C   UNK N   1      34.320  15.473  10.424  0.00  0.00     0.003 A 
HETATM   20  C   UNK N   1      35.652  16.166  10.626  0.00  0.00     0.007 A 
HETATM   21  C   UNK N   1      34.855  16.461   9.382  0.00  0.00     0.007 A 
ENDBRANCH  18  19
ENDBRANCH  16  18
ENDBRANCH  11  14
ENDBRANCH   7   8
BRANCH   5  22
HETATM   22  C   UNK N   1      34.265   8.943  19.337  0.00  0.00     0.252 C 
HETATM   23  O   UNK N   1      34.884   8.015  18.841  0.00  0.00    -0.268 OA
HETATM   24  N   UNK N   1      33.097   8.707  19.987  0.00  0.00    -0.352 N 
HETATM   25  H   UNK N   1      32.637   9.453  20.437  0.00  0.00     0.163 HD
BRANCH  24  26
HETATM   26  C   UNK N   1      32.511   7.382  20.034  0.00  0.00     0.084 A 
HETATM   27  C   UNK N   1      31.006   7.491  19.921  0.00  0.00     0.027 A 
HETATM   28  C   UNK N   1      31.633   7.209  21.266  0.00  0.00     0.027 A 
ENDBRANCH  24  26
ENDBRANCH   5  22
TORSDOF 6
ENDMDL
MODEL 7
REMARK VINA RESULT:      -7.0      9.157     14.612
REMARK  6 active torsions:
REMARK  status: ('A' for Active; 'I' for Inactive)
REMARK    1  A    between atoms: C_4  and  N_14 
REMARK    2  A    between atoms: C_7  and  C_26 
REMARK    3  A    between atoms: C_11  and  C_12 
REMARK       I    between atoms: C_12  and  N_14 
REMARK    4  A    between atoms: C_16  and  C_17 
REMARK    5  A    between atoms: C_20  and  C_23 
REMARK       I    between atoms: C_23  and  N_25 
REMARK    6  A    between atoms: N_25  and  C_26 
ROOT
HETATM    1  C   UNK N   1      27.840  18.102   8.957  0.00  0.00     0.049 C 
HETATM    2  C   UNK N   1      29.097  17.765   8.225  0.00  0.00    -0.051 A 
HETATM    3  C   UNK N   1      30.159  17.202   8.953  0.00  0.00     0.009 A 
HETATM    4  C   UNK N   1      31.348  16.825   8.306  0.00  0.00     0.017 A 
HETATM    5  C   UNK N   1      31.492  17.057   6.933  0.00  0.00     0.032 A 
HETATM    6  C   UNK N   1      30.458  17.648   6.236  0.00  0.00     0.029 A 
HETATM    7  C   UNK N   1      29.255  17.991   6.831  0.00  0.00    -0.019 A 
ENDROOT
BRANCH   7   8
HETATM    8  C   UNK N   1      28.208  18.471   5.901  0.00  0.00    -0.025 A 
HETATM    9  C   UNK N   1      27.837  19.834   5.930  0.00  0.00     0.013 A 
HETATM   10  C   UNK N   1      26.935  20.353   5.009  0.00  0.00     0.018 A 
HETATM   11  C   UNK N   1      26.428  19.523   4.011  0.00  0.00     0.032 A 
HETATM   12  C   UNK N   1      26.801  18.170   3.972  0.00  0.00     0.018 A 
HETATM   13  C   UNK N   1      27.681  17.647   4.909  0.00  0.00     0.013 A 
BRANCH  11  14
HETATM   14  C   UNK N   1      25.387  19.985   3.095  0.00  0.00     0.251 C 
HETATM   15  O   UNK N   1      25.639  20.773   2.195  0.00  0.00    -0.268 OA
HETATM   16  N   UNK N   1      24.116  19.657   3.401  0.00  0.00    -0.356 N 
HETATM   17  H   UNK N   1      23.958  18.843   3.933  0.00  0.00     0.162 HD
BRANCH  16  18
HETATM   18  C   UNK N   1      22.984  20.430   2.993  0.00  0.00     0.127 C 
BRANCH  18  19
HETATM   19  C   UNK N   1      21.814  19.447   2.866  0.00  0.00     0.003 A 
HETATM   20  C   UNK N   1      20.650  19.921   3.712  0.00  0.00     0.007 A 
HETATM   21  C   UNK N   1      20.592  20.107   2.218  0.00  0.00     0.007 A 
ENDBRANCH  18  19
ENDBRANCH  16  18
ENDBRANCH  11  14
ENDBRANCH   7   8
BRANCH   5  22
HETATM   22  C   UNK N   1      32.626  16.571   6.126  0.00  0.00     0.252 C 
HETATM   23  O   UNK N   1      33.729  17.069   6.290  0.00  0.00    -0.268 OA
HETATM   24  N   UNK N   1      32.433  15.662   5.137  0.00  0.00    -0.352 N 
HETATM   25  H   UNK N   1      31.557  15.220   5.053  0.00  0.00     0.163 HD
BRANCH  24  26
HETATM   26  C   UNK N   1      33.488  15.327   4.201  0.00  0.00     0.084 A 
HETATM   27  C   UNK N   1      33.298  16.113   2.923  0.00  0.00     0.027 A 
HETATM   28  C   UNK N   1      32.930  14.648   2.959  0.00  0.00     0.027 A 
ENDBRANCH  24  26
ENDBRANCH   5  22
TORSDOF 6
ENDMDL
MODEL 8
REMARK VINA RESULT:      -7.0      3.244      4.506
REMARK  6 active torsions:
REMARK  status: ('A' for Active; 'I' for Inactive)
REMARK    1  A    between atoms: C_4  and  N_14 
REMARK    2  A    between atoms: C_7  and  C_26 
REMARK    3  A    between atoms: C_11  and  C_12 
REMARK       I    between atoms: C_12  and  N_14 
REMARK    4  A    between atoms: C_16  and  C_17 
REMARK    5  A    between atoms: C_20  and  C_23 
REMARK       I    between atoms: C_23  and  N_25 
REMARK    6  A    between atoms: N_25  and  C_26 
ROOT
HETATM    1  C   UNK N   1      37.202  15.011  15.791  0.00  0.00     0.049 C 
HETATM    2  C   UNK N   1      36.445  14.174  14.814  0.00  0.00    -0.051 A 
HETATM    3  C   UNK N   1      36.446  14.565  13.463  0.00  0.00     0.009 A 
HETATM    4  C   UNK N   1      35.789  13.789  12.495  0.00  0.00     0.017 A 
HETATM    5  C   UNK N   1      35.085  12.645  12.886  0.00  0.00     0.032 A 
HETATM    6  C   UNK N   1      35.056  12.293  14.219  0.00  0.00     0.029 A 
HETATM    7  C   UNK N   1      35.731  13.007  15.196  0.00  0.00    -0.019 A 
ENDROOT
BRANCH   7   8
HETATM    8  C   UNK N   1      35.715  12.398  16.545  0.00  0.00    -0.025 A 
HETATM    9  C   UNK N   1      35.194  13.140  17.628  0.00  0.00     0.013 A 
HETATM   10  C   UNK N   1      35.063  12.575  18.890  0.00  0.00     0.018 A 
HETATM   11  C   UNK N   1      35.406  11.238  19.076  0.00  0.00     0.032 A 
HETATM   12  C   UNK N   1      35.916  10.492  18.001  0.00  0.00     0.018 A 
HETATM   13  C   UNK N   1      36.072  11.065  16.748  0.00  0.00     0.013 A 
BRANCH  11  14
HETATM   14  C   UNK N   1      35.403  10.630  20.406  0.00  0.00     0.251 C 
HETATM   15  O   UNK N   1      36.258   9.819  20.733  0.00  0.00    -0.268 OA
HETATM   16  N   UNK N   1      34.322  10.855  21.177  0.00  0.00    -0.356 N 
HETATM   17  H   UNK N   1      33.804  11.680  21.028  0.00  0.00     0.162 HD
BRANCH  16  18
HETATM   18  C   UNK N   1      33.887   9.959  22.203  0.00  0.00     0.127 C 
BRANCH  18  19
HETATM   19  C   UNK N   1      32.378   9.774  22.003  0.00  0.00     0.003 A 
HETATM   20  C   UNK N   1      32.120   8.969  20.745  0.00  0.00     0.007 A 
HETATM   21  C   UNK N   1      31.975   8.298  22.086  0.00  0.00     0.007 A 
ENDBRANCH  18  19
ENDBRANCH  16  18
ENDBRANCH  11  14
ENDBRANCH   7   8
BRANCH   5  22
HETATM   22  C   UNK N   1      34.487  11.679  11.946  0.00  0.00     0.252 C 
HETATM   23  O   UNK N   1      34.371  10.512  12.287  0.00  0.00    -0.268 OA
HETATM   24  N   UNK N   1      34.171  12.049  10.679  0.00  0.00    -0.352 N 
HETATM   25  H   UNK N   1      34.209  13.002  10.432  0.00  0.00     0.163 HD
BRANCH  24  26
HETATM   26  C   UNK N   1      33.779  11.074   9.681  0.00  0.00     0.084 A 
HETATM   27  C   UNK N   1      34.970  10.731   8.814  0.00  0.00     0.027 A 
HETATM   28  C   UNK N   1      33.894  11.645   8.275  0.00  0.00     0.027 A 
ENDBRANCH  24  26
ENDBRANCH   5  22
TORSDOF 6
ENDMDL
MODEL 9
REMARK VINA RESULT:      -7.0     16.734     20.245
REMARK  6 active torsions:
REMARK  status: ('A' for Active; 'I' for Inactive)
REMARK    1  A    between atoms: C_4  and  N_14 
REMARK    2  A    between atoms: C_7  and  C_26 
REMARK    3  A    between atoms: C_11  and  C_12 
REMARK       I    between atoms: C_12  and  N_14 
REMARK    4  A    between atoms: C_16  and  C_17 
REMARK    5  A    between atoms: C_20  and  C_23 
REMARK       I    between atoms: C_23  and  N_25 
REMARK    6  A    between atoms: N_25  and  C_26 
ROOT
HETATM    1  C   UNK N   1      34.758  20.159  -6.976  0.00  0.00     0.049 C 
HETATM    2  C   UNK N   1      34.866  18.985  -6.061  0.00  0.00    -0.051 A 
HETATM    3  C   UNK N   1      35.763  17.957  -6.402  0.00  0.00     0.009 A 
HETATM    4  C   UNK N   1      35.938  16.851  -5.554  0.00  0.00     0.017 A 
HETATM    5  C   UNK N   1      35.175  16.748  -4.385  0.00  0.00     0.032 A 
HETATM    6  C   UNK N   1      34.268  17.742  -4.081  0.00  0.00     0.029 A 
HETATM    7  C   UNK N   1      34.102  18.869  -4.869  0.00  0.00    -0.019 A 
ENDROOT
BRANCH   7   8
HETATM    8  C   UNK N   1      33.199  19.900  -4.310  0.00  0.00    -0.025 A 
HETATM    9  C   UNK N   1      31.847  19.924  -4.720  0.00  0.00     0.013 A 
HETATM   10  C   UNK N   1      30.938  20.805  -4.147  0.00  0.00     0.018 A 
HETATM   11  C   UNK N   1      31.359  21.643  -3.117  0.00  0.00     0.032 A 
HETATM   12  C   UNK N   1      32.699  21.616  -2.699  0.00  0.00     0.018 A 
HETATM   13  C   UNK N   1      33.612  20.756  -3.290  0.00  0.00     0.013 A 
BRANCH  11  14
HETATM   14  C   UNK N   1      30.478  22.671  -2.565  0.00  0.00     0.251 C 
HETATM   15  O   UNK N   1      30.487  22.939  -1.372  0.00  0.00    -0.268 OA
HETATM   16  N   UNK N   1      29.531  23.168  -3.386  0.00  0.00    -0.356 N 
HETATM   17  H   UNK N   1      29.700  23.153  -4.356  0.00  0.00     0.162 HD
BRANCH  16  18
HETATM   18  C   UNK N   1      28.296  23.717  -2.920  0.00  0.00     0.127 C 
BRANCH  18  19
HETATM   19  C   UNK N   1      27.706  24.508  -4.094  0.00  0.00     0.003 A 
HETATM   20  C   UNK N   1      26.211  24.273  -4.174  0.00  0.00     0.007 A 
HETATM   21  C   UNK N   1      26.717  25.576  -3.613  0.00  0.00     0.007 A 
ENDBRANCH  18  19
ENDBRANCH  16  18
ENDBRANCH  11  14
ENDBRANCH   7   8
BRANCH   5  22
HETATM   22  C   UNK N   1      35.379  15.716  -3.352  0.00  0.00     0.252 C 
HETATM   23  O   UNK N   1      36.330  15.815  -2.593  0.00  0.00    -0.268 OA
HETATM   24  N   UNK N   1      34.590  14.612  -3.310  0.00  0.00    -0.352 N 
HETATM   25  H   UNK N   1      33.789  14.570  -3.883  0.00  0.00     0.163 HD
BRANCH  24  26
HETATM   26  C   UNK N   1      34.899  13.494  -2.441  0.00  0.00     0.084 A 
HETATM   27  C   UNK N   1      34.413  12.210  -3.078  0.00  0.00     0.027 A 
HETATM   28  C   UNK N   1      33.631  12.818  -1.938  0.00  0.00     0.027 A 
ENDBRANCH  24  26
ENDBRANCH   5  22
TORSDOF 6
ENDMDL
