REMARK  6 active torsions:
REMARK  status: ('A' for Active; 'I' for Inactive)
REMARK    1  A    between atoms: C_4  and  N_14 
REMARK    2  A    between atoms: C_7  and  C_26 
REMARK    3  A    between atoms: C_11  and  C_12 
REMARK       I    between atoms: C_12  and  N_14 
REMARK    4  A    between atoms: C_16  and  C_17 
REMARK    5  A    between atoms: C_20  and  C_23 
REMARK       I    between atoms: C_23  and  N_25 
REMARK    6  A    between atoms: N_25  and  C_26 
ROOT
HETATM    1  C   UNK N   1      -3.031   1.523  -0.189  0.00  0.00     0.049 C 
HETATM    2  C   UNK N   1      -1.678   2.154  -0.202  0.00  0.00    -0.051 A 
HETATM    3  C   UNK N   1      -1.600   3.558  -0.197  0.00  0.00     0.009 A 
HETATM    4  C   UNK N   1      -0.353   4.204  -0.163  0.00  0.00     0.017 A 
HETATM    5  C   UNK N   1       0.821   3.443  -0.184  0.00  0.00     0.032 A 
HETATM    6  C   UNK N   1       0.733   2.067  -0.230  0.00  0.00     0.029 A 
HETATM    7  C   UNK N   1      -0.478   1.394  -0.218  0.00  0.00    -0.019 A 
ENDROOT
BRANCH   7   8
HETATM    8  C   UNK N   1      -0.378  -0.079  -0.116  0.00  0.00    -0.025 A 
HETATM    9  C   UNK N   1       0.872  -0.699  -0.337  0.00  0.00     0.013 A 
HETATM   10  C   UNK N   1       1.039  -2.066  -0.152  0.00  0.00     0.018 A 
HETATM   11  C   UNK N   1      -0.034  -2.827   0.307  0.00  0.00     0.032 A 
HETATM   12  C   UNK N   1      -1.276  -2.214   0.537  0.00  0.00     0.018 A 
HETATM   13  C   UNK N   1      -1.449  -0.854   0.326  0.00  0.00     0.013 A 
BRANCH  11  14
HETATM   14  C   UNK N   1       0.052  -4.283   0.401  0.00  0.00     0.251 C 
HETATM   15  O   UNK N   1       1.022  -4.889  -0.031  0.00  0.00    -0.268 OA
HETATM   16  N   UNK N   1      -1.056  -4.935   0.806  0.00  0.00    -0.356 N 
HETATM   17  H   UNK N   1      -1.696  -4.456   1.381  0.00  0.00     0.162 HD
BRANCH  16  18
HETATM   18  C   UNK N   1      -1.349  -6.287   0.444  0.00  0.00     0.127 C 
BRANCH  18  19
HETATM   19  C   UNK N   1      -2.315  -6.215  -0.745  0.00  0.00     0.003 A 
HETATM   20  C   UNK N   1      -3.703  -6.637  -0.307  0.00  0.00     0.007 A 
HETATM   21  C   UNK N   1      -3.415  -5.173  -0.515  0.00  0.00     0.007 A 
ENDBRANCH  18  19
ENDBRANCH  16  18
ENDBRANCH  11  14
ENDBRANCH   7   8
BRANCH   5  22
HETATM   22  C   UNK N   1       2.173   4.002  -0.002  0.00  0.00     0.252 C 
HETATM   23  O   UNK N   1       3.135   3.250  -0.028  0.00  0.00    -0.268 OA
HETATM   24  N   UNK N   1       2.346   5.314   0.300  0.00  0.00    -0.352 N 
HETATM   25  H   UNK N   1       1.574   5.924   0.257  0.00  0.00     0.163 HD
BRANCH  24  26
HETATM   26  C   UNK N   1       3.642   5.837   0.685  0.00  0.00     0.084 A 
HETATM   27  C   UNK N   1       4.017   6.982  -0.230  0.00  0.00     0.027 A 
HETATM   28  C   UNK N   1       4.670   5.633  -0.419  0.00  0.00     0.027 A 
ENDBRANCH  24  26
ENDBRANCH   5  22
TORSDOF 6
