MODEL 1
REMARK VINA RESULT:      -5.1      0.000      0.000
REMARK  19 active torsions:
REMARK  status: ('A' for Active; 'I' for Inactive)
REMARK    1  A    between atoms: C_1  and  O_2 
REMARK    2  A    between atoms: C_1  and  C_3 
REMARK    3  A    between atoms: O_2  and  C_17 
REMARK    4  A    between atoms: C_3  and  O_4 
REMARK    5  A    between atoms: C_3  and  C_5 
REMARK    6  A    between atoms: P_12  and  O_4 
REMARK    7  A    between atoms: C_5  and  O_6 
REMARK    8  A    between atoms: O_6  and  C_7 
REMARK    9  A    between atoms: C_7  and  C_8 
REMARK   10  A    between atoms: P_12  and  O_14 
REMARK   11  A    between atoms: P_12  and  O_16 
REMARK   12  A    between atoms: C_17  and  C_18 
REMARK   13  A    between atoms: C_18  and  C_19 
REMARK   14  A    between atoms: C_19  and  C_20 
REMARK   15  A    between atoms: C_20  and  C_21 
REMARK   16  A    between atoms: C_21  and  C_22 
REMARK   17  A    between atoms: C_22  and  C_23 
REMARK   18  A    between atoms: C_23  and  C_24 
REMARK   19  A    between atoms: C_24  and  C_25 
ROOT
HETATM    1  C   UNK N   1      33.398  16.668   8.439  0.00  0.00     0.181 C 
ENDROOT
BRANCH   1   2
HETATM    2  C   UNK N   1      33.552  16.404   6.950  0.00  0.00     0.202 C 
BRANCH   2   3
HETATM    3  O   UNK N   1      34.233  17.456   6.331  0.00  0.00    -0.389 OA
BRANCH   3   4
HETATM    4  C   UNK N   1      33.510  17.731   5.166  0.00  0.00     0.167 C 
BRANCH   4   5
HETATM    5  C   UNK N   1      32.515  16.622   4.859  0.00  0.00     0.026 C 
BRANCH   5   6
HETATM    6  C   UNK N   1      31.744  16.989   3.601  0.00  0.00     0.002 C 
BRANCH   6   7
HETATM    7  C   UNK N   1      30.249  16.775   3.783  0.00  0.00     0.000 C 
BRANCH   7   8
HETATM    8  C   UNK N   1      29.859  16.922   5.245  0.00  0.00     0.000 C 
BRANCH   8   9
HETATM    9  C   UNK N   1      28.480  17.546   5.347  0.00  0.00     0.000 C 
BRANCH   9  10
HETATM   10  C   UNK N   1      27.990  17.962   3.972  0.00  0.00     0.000 C 
BRANCH  10  11
HETATM   11  C   UNK N   1      27.363  19.342   4.019  0.00  0.00    -0.000 C 
BRANCH  11  12
HETATM   12  C   UNK N   1      27.907  20.135   5.190  0.00  0.00    -0.005 C 
HETATM   13  C   UNK N   1      26.817  21.031   5.738  0.00  0.00     0.005 C 
ENDBRANCH  11  12
ENDBRANCH  10  11
ENDBRANCH   9  10
ENDBRANCH   8   9
ENDBRANCH   7   8
ENDBRANCH   6   7
ENDBRANCH   5   6
ENDBRANCH   4   5
ENDBRANCH   3   4
ENDBRANCH   2   3
ENDBRANCH   1   2
BRANCH   1  14
HETATM   14  O   UNK N   1      34.652  17.022   9.000  0.00  0.00    -0.287 OA
BRANCH  14  15
HETATM   15  P   UNK N   1      35.373  15.717   9.934  0.00  0.00     0.393 P 
HETATM   16  O   UNK N   1      35.855  14.559   9.012  0.00  0.00    -0.631 OA
BRANCH  15  17
HETATM   17  O   UNK N   1      36.769  16.286  10.792  0.00  0.00    -0.307 OA
HETATM   18  H   UNK N   1      36.763  16.511  11.736  0.00  0.00     0.222 HD
ENDBRANCH  15  17
BRANCH  15  19
HETATM   19  O   UNK N   1      34.213  15.090  11.085  0.00  0.00    -0.302 OA
HETATM   20  C   UNK N   1      34.848  14.079  11.809  0.00  0.00     0.214 C 
ENDBRANCH  15  19
ENDBRANCH  14  15
ENDBRANCH   1  14
BRANCH   1  21
HETATM   21  C   UNK N   1      32.420  17.823   8.647  0.00  0.00     0.202 C 
BRANCH  21  22
HETATM   22  O   UNK N   1      31.184  17.556   8.045  0.00  0.00    -0.380 OA
BRANCH  22  23
HETATM   23  C   UNK N   1      30.310  17.216   9.081  0.00  0.00     0.285 C 
BRANCH  23  24
HETATM   24  C   UNK N   1      29.342  18.357   9.337  0.00  0.00     0.408 C 
HETATM   25  F   UNK N   1      29.806  19.120  10.391  0.00  0.00    -0.169 F 
HETATM   26  F   UNK N   1      28.097  17.849   9.651  0.00  0.00    -0.169 F 
HETATM   27  F   UNK N   1      29.242  19.153   8.211  0.00  0.00    -0.169 F 
ENDBRANCH  23  24
ENDBRANCH  22  23
ENDBRANCH  21  22
ENDBRANCH   1  21
TORSDOF 19
ENDMDL
MODEL 2
REMARK VINA RESULT:      -5.0      2.074      3.963
REMARK  19 active torsions:
REMARK  status: ('A' for Active; 'I' for Inactive)
REMARK    1  A    between atoms: C_1  and  O_2 
REMARK    2  A    between atoms: C_1  and  C_3 
REMARK    3  A    between atoms: O_2  and  C_17 
REMARK    4  A    between atoms: C_3  and  O_4 
REMARK    5  A    between atoms: C_3  and  C_5 
REMARK    6  A    between atoms: P_12  and  O_4 
REMARK    7  A    between atoms: C_5  and  O_6 
REMARK    8  A    between atoms: O_6  and  C_7 
REMARK    9  A    between atoms: C_7  and  C_8 
REMARK   10  A    between atoms: P_12  and  O_14 
REMARK   11  A    between atoms: P_12  and  O_16 
REMARK   12  A    between atoms: C_17  and  C_18 
REMARK   13  A    between atoms: C_18  and  C_19 
REMARK   14  A    between atoms: C_19  and  C_20 
REMARK   15  A    between atoms: C_20  and  C_21 
REMARK   16  A    between atoms: C_21  and  C_22 
REMARK   17  A    between atoms: C_22  and  C_23 
REMARK   18  A    between atoms: C_23  and  C_24 
REMARK   19  A    between atoms: C_24  and  C_25 
ROOT
HETATM    1  C   UNK N   1      33.954  17.120   8.113  0.00  0.00     0.181 C 
ENDROOT
BRANCH   1   2
HETATM    2  C   UNK N   1      32.679  17.928   8.293  0.00  0.00     0.202 C 
BRANCH   2   3
HETATM    3  O   UNK N   1      31.613  17.094   8.645  0.00  0.00    -0.389 OA
BRANCH   3   4
HETATM    4  C   UNK N   1      30.464  17.755   8.202  0.00  0.00     0.167 C 
BRANCH   4   5
HETATM    5  C   UNK N   1      29.495  18.007   9.348  0.00  0.00     0.026 C 
BRANCH   5   6
HETATM    6  C   UNK N   1      28.204  18.578   8.784  0.00  0.00     0.002 C 
BRANCH   6   7
HETATM    7  C   UNK N   1      28.372  19.001   7.332  0.00  0.00     0.000 C 
BRANCH   7   8
HETATM    8  C   UNK N   1      27.386  20.103   6.976  0.00  0.00     0.000 C 
BRANCH   8   9
HETATM    9  C   UNK N   1      27.277  20.225   5.467  0.00  0.00     0.000 C 
BRANCH   9  10
HETATM   10  C   UNK N   1      28.273  19.299   4.793  0.00  0.00     0.000 C 
BRANCH  10  11
HETATM   11  C   UNK N   1      27.560  18.290   3.913  0.00  0.00    -0.000 C 
BRANCH  11  12
HETATM   12  C   UNK N   1      27.990  16.879   4.263  0.00  0.00    -0.005 C 
HETATM   13  C   UNK N   1      28.473  16.179   3.011  0.00  0.00     0.005 C 
ENDBRANCH  11  12
ENDBRANCH  10  11
ENDBRANCH   9  10
ENDBRANCH   8   9
ENDBRANCH   7   8
ENDBRANCH   6   7
ENDBRANCH   5   6
ENDBRANCH   4   5
ENDBRANCH   3   4
ENDBRANCH   2   3
ENDBRANCH   1   2
BRANCH   1  14
HETATM   14  O   UNK N   1      33.845  15.883   8.800  0.00  0.00    -0.287 OA
BRANCH  14  15
HETATM   15  P   UNK N   1      35.041  15.705  10.077  0.00  0.00     0.393 P 
HETATM   16  O   UNK N   1      36.269  14.880   9.593  0.00  0.00    -0.631 OA
BRANCH  15  17
HETATM   17  O   UNK N   1      35.643  17.258  10.564  0.00  0.00    -0.307 OA
HETATM   18  H   UNK N   1      36.568  17.422  10.806  0.00  0.00     0.222 HD
ENDBRANCH  15  17
BRANCH  15  19
HETATM   19  O   UNK N   1      34.326  14.911  11.463  0.00  0.00    -0.302 OA
HETATM   20  C   UNK N   1      35.371  14.424  12.251  0.00  0.00     0.214 C 
ENDBRANCH  15  19
ENDBRANCH  14  15
ENDBRANCH   1  14
BRANCH   1  21
HETATM   21  C   UNK N   1      34.169  16.842   6.626  0.00  0.00     0.202 C 
BRANCH  21  22
HETATM   22  O   UNK N   1      33.547  17.814   5.834  0.00  0.00    -0.380 OA
BRANCH  22  23
HETATM   23  C   UNK N   1      33.404  17.250   4.563  0.00  0.00     0.285 C 
BRANCH  23  24
HETATM   24  C   UNK N   1      31.937  16.998   4.270  0.00  0.00     0.408 C 
HETATM   25  F   UNK N   1      31.170  17.902   4.979  0.00  0.00    -0.169 F 
HETATM   26  F   UNK N   1      31.601  15.713   4.650  0.00  0.00    -0.169 F 
HETATM   27  F   UNK N   1      31.690  17.157   2.919  0.00  0.00    -0.169 F 
ENDBRANCH  23  24
ENDBRANCH  22  23
ENDBRANCH  21  22
ENDBRANCH   1  21
TORSDOF 19
ENDMDL
MODEL 3
REMARK VINA RESULT:      -5.0     10.828     13.232
REMARK  19 active torsions:
REMARK  status: ('A' for Active; 'I' for Inactive)
REMARK    1  A    between atoms: C_1  and  O_2 
REMARK    2  A    between atoms: C_1  and  C_3 
REMARK    3  A    between atoms: O_2  and  C_17 
REMARK    4  A    between atoms: C_3  and  O_4 
REMARK    5  A    between atoms: C_3  and  C_5 
REMARK    6  A    between atoms: P_12  and  O_4 
REMARK    7  A    between atoms: C_5  and  O_6 
REMARK    8  A    between atoms: O_6  and  C_7 
REMARK    9  A    between atoms: C_7  and  C_8 
REMARK   10  A    between atoms: P_12  and  O_14 
REMARK   11  A    between atoms: P_12  and  O_16 
REMARK   12  A    between atoms: C_17  and  C_18 
REMARK   13  A    between atoms: C_18  and  C_19 
REMARK   14  A    between atoms: C_19  and  C_20 
REMARK   15  A    between atoms: C_20  and  C_21 
REMARK   16  A    between atoms: C_21  and  C_22 
REMARK   17  A    between atoms: C_22  and  C_23 
REMARK   18  A    between atoms: C_23  and  C_24 
REMARK   19  A    between atoms: C_24  and  C_25 
ROOT
HETATM    1  C   UNK N   1      21.203  17.757   4.205  0.00  0.00     0.181 C 
ENDROOT
BRANCH   1   2
HETATM    2  C   UNK N   1      21.585  17.387   5.629  0.00  0.00     0.202 C 
BRANCH   2   3
HETATM    3  O   UNK N   1      21.404  16.018   5.848  0.00  0.00    -0.389 OA
BRANCH   3   4
HETATM    4  C   UNK N   1      22.364  15.664   6.800  0.00  0.00     0.167 C 
BRANCH   4   5
HETATM    5  C   UNK N   1      21.839  14.590   7.741  0.00  0.00     0.026 C 
BRANCH   5   6
HETATM    6  C   UNK N   1      20.996  15.251   8.820  0.00  0.00     0.002 C 
BRANCH   6   7
HETATM    7  C   UNK N   1      20.421  14.224   9.784  0.00  0.00     0.000 C 
BRANCH   7   8
HETATM    8  C   UNK N   1      21.008  12.847   9.515  0.00  0.00     0.000 C 
BRANCH   8   9
HETATM    9  C   UNK N   1      21.658  12.313  10.778  0.00  0.00     0.000 C 
BRANCH   9  10
HETATM   10  C   UNK N   1      22.924  11.549  10.434  0.00  0.00     0.000 C 
BRANCH  10  11
HETATM   11  C   UNK N   1      24.154  12.387  10.727  0.00  0.00    -0.000 C 
BRANCH  11  12
HETATM   12  C   UNK N   1      24.736  12.947   9.444  0.00  0.00    -0.005 C 
HETATM   13  C   UNK N   1      24.358  12.044   8.288  0.00  0.00     0.005 C 
ENDBRANCH  11  12
ENDBRANCH  10  11
ENDBRANCH   9  10
ENDBRANCH   8   9
ENDBRANCH   7   8
ENDBRANCH   6   7
ENDBRANCH   5   6
ENDBRANCH   4   5
ENDBRANCH   3   4
ENDBRANCH   2   3
ENDBRANCH   1   2
BRANCH   1  14
HETATM   14  O   UNK N   1      22.161  18.653   3.664  0.00  0.00    -0.287 OA
BRANCH  14  15
HETATM   15  P   UNK N   1      21.429  20.086   2.953  0.00  0.00     0.393 P 
HETATM   16  O   UNK N   1      20.283  20.641   3.847  0.00  0.00    -0.631 OA
BRANCH  15  17
HETATM   17  O   UNK N   1      22.603  21.354   2.801  0.00  0.00    -0.307 OA
HETATM   18  H   UNK N   1      23.546  21.194   2.639  0.00  0.00     0.222 HD
ENDBRANCH  15  17
BRANCH  15  19
HETATM   19  O   UNK N   1      20.789  19.709   1.368  0.00  0.00    -0.302 OA
HETATM   20  C   UNK N   1      20.792  20.892   0.624  0.00  0.00     0.214 C 
ENDBRANCH  15  19
ENDBRANCH  14  15
ENDBRANCH   1  14
BRANCH   1  21
HETATM   21  C   UNK N   1      21.168  16.494   3.349  0.00  0.00     0.202 C 
BRANCH  21  22
HETATM   22  O   UNK N   1      20.018  16.452   2.551  0.00  0.00    -0.380 OA
BRANCH  22  23
HETATM   23  C   UNK N   1      20.431  16.008   1.292  0.00  0.00     0.285 C 
BRANCH  23  24
HETATM   24  C   UNK N   1      19.650  14.767   0.899  0.00  0.00     0.408 C 
HETATM   25  F   UNK N   1      18.954  14.301   1.998  0.00  0.00    -0.169 F 
HETATM   26  F   UNK N   1      20.521  13.789   0.460  0.00  0.00    -0.169 F 
HETATM   27  F   UNK N   1      18.755  15.071  -0.109  0.00  0.00    -0.169 F 
ENDBRANCH  23  24
ENDBRANCH  22  23
ENDBRANCH  21  22
ENDBRANCH   1  21
TORSDOF 19
ENDMDL
MODEL 4
REMARK VINA RESULT:      -4.9      7.162     12.456
REMARK  19 active torsions:
REMARK  status: ('A' for Active; 'I' for Inactive)
REMARK    1  A    between atoms: C_1  and  O_2 
REMARK    2  A    between atoms: C_1  and  C_3 
REMARK    3  A    between atoms: O_2  and  C_17 
REMARK    4  A    between atoms: C_3  and  O_4 
REMARK    5  A    between atoms: C_3  and  C_5 
REMARK    6  A    between atoms: P_12  and  O_4 
REMARK    7  A    between atoms: C_5  and  O_6 
REMARK    8  A    between atoms: O_6  and  C_7 
REMARK    9  A    between atoms: C_7  and  C_8 
REMARK   10  A    between atoms: P_12  and  O_14 
REMARK   11  A    between atoms: P_12  and  O_16 
REMARK   12  A    between atoms: C_17  and  C_18 
REMARK   13  A    between atoms: C_18  and  C_19 
REMARK   14  A    between atoms: C_19  and  C_20 
REMARK   15  A    between atoms: C_20  and  C_21 
REMARK   16  A    between atoms: C_21  and  C_22 
REMARK   17  A    between atoms: C_22  and  C_23 
REMARK   18  A    between atoms: C_23  and  C_24 
REMARK   19  A    between atoms: C_24  and  C_25 
ROOT
HETATM    1  C   UNK N   1      35.081  12.789  12.311  0.00  0.00     0.181 C 
ENDROOT
BRANCH   1   2
HETATM    2  C   UNK N   1      35.933  12.992  13.554  0.00  0.00     0.202 C 
BRANCH   2   3
HETATM    3  O   UNK N   1      35.136  13.361  14.643  0.00  0.00    -0.389 OA
BRANCH   3   4
HETATM    4  C   UNK N   1      36.006  13.424  15.735  0.00  0.00     0.167 C 
BRANCH   4   5
HETATM    5  C   UNK N   1      35.241  13.513  17.047  0.00  0.00     0.026 C 
BRANCH   5   6
HETATM    6  C   UNK N   1      35.236  12.143  17.707  0.00  0.00     0.002 C 
BRANCH   6   7
HETATM    7  C   UNK N   1      35.315  12.257  19.222  0.00  0.00     0.000 C 
BRANCH   7   8
HETATM    8  C   UNK N   1      35.972  11.023  19.820  0.00  0.00     0.000 C 
BRANCH   8   9
HETATM    9  C   UNK N   1      36.404  10.084  18.709  0.00  0.00     0.000 C 
BRANCH   9  10
HETATM   10  C   UNK N   1      35.807   8.705  18.926  0.00  0.00     0.000 C 
BRANCH  10  11
HETATM   11  C   UNK N   1      34.316   8.715  18.645  0.00  0.00    -0.000 C 
BRANCH  11  12
HETATM   12  C   UNK N   1      33.562   7.989  19.742  0.00  0.00    -0.005 C 
HETATM   13  C   UNK N   1      32.321   8.777  20.102  0.00  0.00     0.005 C 
ENDBRANCH  11  12
ENDBRANCH  10  11
ENDBRANCH   9  10
ENDBRANCH   8   9
ENDBRANCH   7   8
ENDBRANCH   6   7
ENDBRANCH   5   6
ENDBRANCH   4   5
ENDBRANCH   3   4
ENDBRANCH   2   3
ENDBRANCH   1   2
BRANCH   1  14
HETATM   14  O   UNK N   1      35.712  13.387  11.190  0.00  0.00    -0.287 OA
BRANCH  14  15
HETATM   15  P   UNK N   1      34.587  14.273  10.168  0.00  0.00     0.393 P 
HETATM   16  O   UNK N   1      34.021  13.372   9.032  0.00  0.00    -0.631 OA
BRANCH  15  17
HETATM   17  O   UNK N   1      33.227  14.820  11.097  0.00  0.00    -0.307 OA
HETATM   18  H   UNK N   1      32.499  14.241  11.373  0.00  0.00     0.222 HD
ENDBRANCH  15  17
BRANCH  15  19
HETATM   19  O   UNK N   1      35.386  15.659   9.458  0.00  0.00    -0.302 OA
HETATM   20  C   UNK N   1      35.430  16.660  10.431  0.00  0.00     0.214 C 
ENDBRANCH  15  19
ENDBRANCH  14  15
ENDBRANCH   1  14
BRANCH   1  21
HETATM   21  C   UNK N   1      34.921  11.293  12.050  0.00  0.00     0.202 C 
BRANCH  21  22
HETATM   22  O   UNK N   1      34.253  10.662  13.106  0.00  0.00    -0.380 OA
BRANCH  22  23
HETATM   23  C   UNK N   1      35.038   9.561  13.463  0.00  0.00     0.285 C 
BRANCH  23  24
HETATM   24  C   UNK N   1      35.218   9.521  14.969  0.00  0.00     0.408 C 
HETATM   25  F   UNK N   1      36.389  10.173  15.304  0.00  0.00    -0.169 F 
HETATM   26  F   UNK N   1      35.286   8.209  15.395  0.00  0.00    -0.169 F 
HETATM   27  F   UNK N   1      34.155  10.151  15.589  0.00  0.00    -0.169 F 
ENDBRANCH  23  24
ENDBRANCH  22  23
ENDBRANCH  21  22
ENDBRANCH   1  21
TORSDOF 19
ENDMDL
MODEL 5
REMARK VINA RESULT:      -4.9     13.438     16.066
REMARK  19 active torsions:
REMARK  status: ('A' for Active; 'I' for Inactive)
REMARK    1  A    between atoms: C_1  and  O_2 
REMARK    2  A    between atoms: C_1  and  C_3 
REMARK    3  A    between atoms: O_2  and  C_17 
REMARK    4  A    between atoms: C_3  and  O_4 
REMARK    5  A    between atoms: C_3  and  C_5 
REMARK    6  A    between atoms: P_12  and  O_4 
REMARK    7  A    between atoms: C_5  and  O_6 
REMARK    8  A    between atoms: O_6  and  C_7 
REMARK    9  A    between atoms: C_7  and  C_8 
REMARK   10  A    between atoms: P_12  and  O_14 
REMARK   11  A    between atoms: P_12  and  O_16 
REMARK   12  A    between atoms: C_17  and  C_18 
REMARK   13  A    between atoms: C_18  and  C_19 
REMARK   14  A    between atoms: C_19  and  C_20 
REMARK   15  A    between atoms: C_20  and  C_21 
REMARK   16  A    between atoms: C_21  and  C_22 
REMARK   17  A    between atoms: C_22  and  C_23 
REMARK   18  A    between atoms: C_23  and  C_24 
REMARK   19  A    between atoms: C_24  and  C_25 
ROOT
HETATM    1  C   UNK N   1      28.175  24.070  -4.437  0.00  0.00     0.181 C 
ENDROOT
BRANCH   1   2
HETATM    2  C   UNK N   1      27.283  24.326  -3.234  0.00  0.00     0.202 C 
BRANCH   2   3
HETATM    3  O   UNK N   1      26.281  25.249  -3.551  0.00  0.00    -0.389 OA
BRANCH   3   4
HETATM    4  C   UNK N   1      26.905  26.500  -3.518  0.00  0.00     0.167 C 
BRANCH   4   5
HETATM    5  C   UNK N   1      25.883  27.625  -3.456  0.00  0.00     0.026 C 
BRANCH   5   6
HETATM    6  C   UNK N   1      26.358  28.768  -4.340  0.00  0.00     0.002 C 
BRANCH   6   7
HETATM    7  C   UNK N   1      26.326  30.095  -3.598  0.00  0.00     0.000 C 
BRANCH   7   8
HETATM    8  C   UNK N   1      27.737  30.598  -3.335  0.00  0.00     0.000 C 
BRANCH   8   9
HETATM    9  C   UNK N   1      28.233  30.058  -2.006  0.00  0.00     0.000 C 
BRANCH   9  10
HETATM   10  C   UNK N   1      29.565  29.353  -2.192  0.00  0.00     0.000 C 
BRANCH  10  11
HETATM   11  C   UNK N   1      30.215  29.767  -3.499  0.00  0.00    -0.000 C 
BRANCH  11  12
HETATM   12  C   UNK N   1      30.833  28.568  -4.190  0.00  0.00    -0.005 C 
HETATM   13  C   UNK N   1      29.872  28.044  -5.236  0.00  0.00     0.005 C 
ENDBRANCH  11  12
ENDBRANCH  10  11
ENDBRANCH   9  10
ENDBRANCH   8   9
ENDBRANCH   7   8
ENDBRANCH   6   7
ENDBRANCH   5   6
ENDBRANCH   4   5
ENDBRANCH   3   4
ENDBRANCH   2   3
ENDBRANCH   1   2
BRANCH   1  14
HETATM   14  O   UNK N   1      29.118  23.054  -4.133  0.00  0.00    -0.287 OA
BRANCH  14  15
HETATM   15  P   UNK N   1      30.480  23.649  -3.192  0.00  0.00     0.393 P 
HETATM   16  O   UNK N   1      30.491  25.205  -3.130  0.00  0.00    -0.631 OA
BRANCH  15  17
HETATM   17  O   UNK N   1      30.377  23.086  -1.554  0.00  0.00    -0.307 OA
HETATM   18  H   UNK N   1      29.581  23.174  -1.006  0.00  0.00     0.222 HD
ENDBRANCH  15  17
BRANCH  15  19
HETATM   19  O   UNK N   1      31.983  23.091  -3.893  0.00  0.00    -0.302 OA
HETATM   20  C   UNK N   1      31.701  21.933  -4.620  0.00  0.00     0.214 C 
ENDBRANCH  15  19
ENDBRANCH  14  15
ENDBRANCH   1  14
BRANCH   1  21
HETATM   21  C   UNK N   1      27.315  23.610  -5.612  0.00  0.00     0.202 C 
BRANCH  21  22
HETATM   22  O   UNK N   1      27.362  24.529  -6.667  0.00  0.00    -0.380 OA
BRANCH  22  23
HETATM   23  C   UNK N   1      26.035  24.794  -7.015  0.00  0.00     0.285 C 
BRANCH  23  24
HETATM   24  C   UNK N   1      25.853  26.279  -7.268  0.00  0.00     0.408 C 
HETATM   25  F   UNK N   1      27.040  26.934  -7.003  0.00  0.00    -0.169 F 
HETATM   26  F   UNK N   1      24.861  26.774  -6.444  0.00  0.00    -0.169 F 
HETATM   27  F   UNK N   1      25.502  26.494  -8.588  0.00  0.00    -0.169 F 
ENDBRANCH  23  24
ENDBRANCH  22  23
ENDBRANCH  21  22
ENDBRANCH   1  21
TORSDOF 19
ENDMDL
MODEL 6
REMARK VINA RESULT:      -4.9      4.137      8.935
REMARK  19 active torsions:
REMARK  status: ('A' for Active; 'I' for Inactive)
REMARK    1  A    between atoms: C_1  and  O_2 
REMARK    2  A    between atoms: C_1  and  C_3 
REMARK    3  A    between atoms: O_2  and  C_17 
REMARK    4  A    between atoms: C_3  and  O_4 
REMARK    5  A    between atoms: C_3  and  C_5 
REMARK    6  A    between atoms: P_12  and  O_4 
REMARK    7  A    between atoms: C_5  and  O_6 
REMARK    8  A    between atoms: O_6  and  C_7 
REMARK    9  A    between atoms: C_7  and  C_8 
REMARK   10  A    between atoms: P_12  and  O_14 
REMARK   11  A    between atoms: P_12  and  O_16 
REMARK   12  A    between atoms: C_17  and  C_18 
REMARK   13  A    between atoms: C_18  and  C_19 
REMARK   14  A    between atoms: C_19  and  C_20 
REMARK   15  A    between atoms: C_20  and  C_21 
REMARK   16  A    between atoms: C_21  and  C_22 
REMARK   17  A    between atoms: C_22  and  C_23 
REMARK   18  A    between atoms: C_23  and  C_24 
REMARK   19  A    between atoms: C_24  and  C_25 
ROOT
HETATM    1  C   UNK N   1      33.587  14.789   8.082  0.00  0.00     0.181 C 
ENDROOT
BRANCH   1   2
HETATM    2  C   UNK N   1      33.741  13.499   8.872  0.00  0.00     0.202 C 
BRANCH   2   3
HETATM    3  O   UNK N   1      34.729  13.636   9.852  0.00  0.00    -0.389 OA
BRANCH   3   4
HETATM    4  C   UNK N   1      34.964  12.341  10.325  0.00  0.00     0.167 C 
BRANCH   4   5
HETATM    5  C   UNK N   1      34.918  12.292  11.845  0.00  0.00     0.026 C 
BRANCH   5   6
HETATM    6  C   UNK N   1      35.169  10.862  12.298  0.00  0.00     0.002 C 
BRANCH   6   7
HETATM    7  C   UNK N   1      33.939  10.267  12.967  0.00  0.00     0.000 C 
BRANCH   7   8
HETATM    8  C   UNK N   1      33.665  10.954  14.296  0.00  0.00     0.000 C 
BRANCH   8   9
HETATM    9  C   UNK N   1      34.388  10.221  15.410  0.00  0.00     0.000 C 
BRANCH   9  10
HETATM   10  C   UNK N   1      35.235  11.192  16.213  0.00  0.00     0.000 C 
BRANCH  10  11
HETATM   11  C   UNK N   1      34.783  12.621  15.979  0.00  0.00    -0.000 C 
BRANCH  11  12
HETATM   12  C   UNK N   1      35.979  13.535  15.797  0.00  0.00    -0.005 C 
HETATM   13  C   UNK N   1      37.012  12.842  14.936  0.00  0.00     0.005 C 
ENDBRANCH  11  12
ENDBRANCH  10  11
ENDBRANCH   9  10
ENDBRANCH   8   9
ENDBRANCH   7   8
ENDBRANCH   6   7
ENDBRANCH   5   6
ENDBRANCH   4   5
ENDBRANCH   3   4
ENDBRANCH   2   3
ENDBRANCH   1   2
BRANCH   1  14
HETATM   14  O   UNK N   1      34.757  15.580   8.216  0.00  0.00    -0.287 OA
BRANCH  14  15
HETATM   15  P   UNK N   1      34.406  17.246   8.658  0.00  0.00     0.393 P 
HETATM   16  O   UNK N   1      34.660  18.216   7.467  0.00  0.00    -0.631 OA
BRANCH  15  17
HETATM   17  O   UNK N   1      32.735  17.418   9.094  0.00  0.00    -0.307 OA
HETATM   18  H   UNK N   1      32.408  18.093   9.708  0.00  0.00     0.222 HD
ENDBRANCH  15  17
BRANCH  15  19
HETATM   19  O   UNK N   1      35.400  17.730  10.015  0.00  0.00    -0.302 OA
HETATM   20  C   UNK N   1      35.412  16.668  10.924  0.00  0.00     0.214 C 
ENDBRANCH  15  19
ENDBRANCH  14  15
ENDBRANCH   1  14
BRANCH   1  21
HETATM   21  C   UNK N   1      33.383  14.454   6.606  0.00  0.00     0.202 C 
BRANCH  21  22
HETATM   22  O   UNK N   1      33.065  15.599   5.865  0.00  0.00    -0.380 OA
BRANCH  22  23
HETATM   23  C   UNK N   1      33.003  15.195   4.529  0.00  0.00     0.285 C 
BRANCH  23  24
HETATM   24  C   UNK N   1      32.790  16.401   3.633  0.00  0.00     0.408 C 
HETATM   25  F   UNK N   1      33.626  16.307   2.537  0.00  0.00    -0.169 F 
HETATM   26  F   UNK N   1      33.079  17.557   4.332  0.00  0.00    -0.169 F 
HETATM   27  F   UNK N   1      31.478  16.443   3.200  0.00  0.00    -0.169 F 
ENDBRANCH  23  24
ENDBRANCH  22  23
ENDBRANCH  21  22
ENDBRANCH   1  21
TORSDOF 19
ENDMDL
MODEL 7
REMARK VINA RESULT:      -4.8     13.804     16.339
REMARK  19 active torsions:
REMARK  status: ('A' for Active; 'I' for Inactive)
REMARK    1  A    between atoms: C_1  and  O_2 
REMARK    2  A    between atoms: C_1  and  C_3 
REMARK    3  A    between atoms: O_2  and  C_17 
REMARK    4  A    between atoms: C_3  and  O_4 
REMARK    5  A    between atoms: C_3  and  C_5 
REMARK    6  A    between atoms: P_12  and  O_4 
REMARK    7  A    between atoms: C_5  and  O_6 
REMARK    8  A    between atoms: O_6  and  C_7 
REMARK    9  A    between atoms: C_7  and  C_8 
REMARK   10  A    between atoms: P_12  and  O_14 
REMARK   11  A    between atoms: P_12  and  O_16 
REMARK   12  A    between atoms: C_17  and  C_18 
REMARK   13  A    between atoms: C_18  and  C_19 
REMARK   14  A    between atoms: C_19  and  C_20 
REMARK   15  A    between atoms: C_20  and  C_21 
REMARK   16  A    between atoms: C_21  and  C_22 
REMARK   17  A    between atoms: C_22  and  C_23 
REMARK   18  A    between atoms: C_23  and  C_24 
REMARK   19  A    between atoms: C_24  and  C_25 
ROOT
HETATM    1  C   UNK N   1      26.323  26.670  -5.458  0.00  0.00     0.181 C 
ENDROOT
BRANCH   1   2
HETATM    2  C   UNK N   1      27.149  25.703  -4.627  0.00  0.00     0.202 C 
BRANCH   2   3
HETATM    3  O   UNK N   1      26.399  25.209  -3.555  0.00  0.00    -0.389 OA
BRANCH   3   4
HETATM    4  C   UNK N   1      27.067  24.055  -3.135  0.00  0.00     0.167 C 
BRANCH   4   5
HETATM    5  C   UNK N   1      28.548  24.120  -3.477  0.00  0.00     0.026 C 
BRANCH   5   6
HETATM    6  C   UNK N   1      29.315  23.235  -2.506  0.00  0.00     0.002 C 
BRANCH   6   7
HETATM    7  C   UNK N   1      30.805  23.233  -2.815  0.00  0.00     0.000 C 
BRANCH   7   8
HETATM    8  C   UNK N   1      31.318  21.811  -2.979  0.00  0.00     0.000 C 
BRANCH   8   9
HETATM    9  C   UNK N   1      31.972  21.656  -4.341  0.00  0.00     0.000 C 
BRANCH   9  10
HETATM   10  C   UNK N   1      30.973  21.970  -5.440  0.00  0.00     0.000 C 
BRANCH  10  11
HETATM   11  C   UNK N   1      30.038  20.797  -5.667  0.00  0.00    -0.000 C 
BRANCH  11  12
HETATM   12  C   UNK N   1      29.726  20.642  -7.143  0.00  0.00    -0.005 C 
HETATM   13  C   UNK N   1      30.548  19.505  -7.711  0.00  0.00     0.005 C 
ENDBRANCH  11  12
ENDBRANCH  10  11
ENDBRANCH   9  10
ENDBRANCH   8   9
ENDBRANCH   7   8
ENDBRANCH   6   7
ENDBRANCH   5   6
ENDBRANCH   4   5
ENDBRANCH   3   4
ENDBRANCH   2   3
ENDBRANCH   1   2
BRANCH   1  14
HETATM   14  O   UNK N   1      26.962  27.936  -5.505  0.00  0.00    -0.287 OA
BRANCH  14  15
HETATM   15  P   UNK N   1      26.755  28.859  -4.022  0.00  0.00     0.393 P 
HETATM   16  O   UNK N   1      26.442  30.354  -4.322  0.00  0.00    -0.631 OA
BRANCH  15  17
HETATM   17  O   UNK N   1      25.416  28.243  -3.106  0.00  0.00    -0.307 OA
HETATM   18  H   UNK N   1      25.516  27.646  -2.348  0.00  0.00     0.222 HD
ENDBRANCH  15  17
BRANCH  15  19
HETATM   19  O   UNK N   1      28.206  28.760  -3.047  0.00  0.00    -0.302 OA
HETATM   20  C   UNK N   1      29.291  28.667  -3.921  0.00  0.00     0.214 C 
ENDBRANCH  15  19
ENDBRANCH  14  15
ENDBRANCH   1  14
BRANCH   1  21
HETATM   21  C   UNK N   1      26.193  26.129  -6.880  0.00  0.00     0.202 C 
BRANCH  21  22
HETATM   22  O   UNK N   1      25.349  25.013  -6.923  0.00  0.00    -0.380 OA
BRANCH  22  23
HETATM   23  C   UNK N   1      26.008  24.054  -7.698  0.00  0.00     0.285 C 
BRANCH  23  24
HETATM   24  C   UNK N   1      26.272  22.811  -6.868  0.00  0.00     0.408 C 
HETATM   25  F   UNK N   1      25.323  22.722  -5.868  0.00  0.00    -0.169 F 
HETATM   26  F   UNK N   1      27.530  22.888  -6.302  0.00  0.00    -0.169 F 
HETATM   27  F   UNK N   1      26.196  21.684  -7.666  0.00  0.00    -0.169 F 
ENDBRANCH  23  24
ENDBRANCH  22  23
ENDBRANCH  21  22
ENDBRANCH   1  21
TORSDOF 19
ENDMDL
MODEL 8
REMARK VINA RESULT:      -4.7      8.469     10.325
REMARK  19 active torsions:
REMARK  status: ('A' for Active; 'I' for Inactive)
REMARK    1  A    between atoms: C_1  and  O_2 
REMARK    2  A    between atoms: C_1  and  C_3 
REMARK    3  A    between atoms: O_2  and  C_17 
REMARK    4  A    between atoms: C_3  and  O_4 
REMARK    5  A    between atoms: C_3  and  C_5 
REMARK    6  A    between atoms: P_12  and  O_4 
REMARK    7  A    between atoms: C_5  and  O_6 
REMARK    8  A    between atoms: O_6  and  C_7 
REMARK    9  A    between atoms: C_7  and  C_8 
REMARK   10  A    between atoms: P_12  and  O_14 
REMARK   11  A    between atoms: P_12  and  O_16 
REMARK   12  A    between atoms: C_17  and  C_18 
REMARK   13  A    between atoms: C_18  and  C_19 
REMARK   14  A    between atoms: C_19  and  C_20 
REMARK   15  A    between atoms: C_20  and  C_21 
REMARK   16  A    between atoms: C_21  and  C_22 
REMARK   17  A    between atoms: C_22  and  C_23 
REMARK   18  A    between atoms: C_23  and  C_24 
REMARK   19  A    between atoms: C_24  and  C_25 
ROOT
HETATM    1  C   UNK N   1      21.278  15.882   6.903  0.00  0.00     0.181 C 
ENDROOT
BRANCH   1   2
HETATM    2  C   UNK N   1      22.748  15.805   6.521  0.00  0.00     0.202 C 
BRANCH   2   3
HETATM    3  O   UNK N   1      22.967  14.764   5.613  0.00  0.00    -0.389 OA
BRANCH   3   4
HETATM    4  C   UNK N   1      24.211  15.033   5.035  0.00  0.00     0.167 C 
BRANCH   4   5
HETATM    5  C   UNK N   1      24.478  16.529   4.969  0.00  0.00     0.026 C 
BRANCH   5   6
HETATM    6  C   UNK N   1      24.928  16.886   3.561  0.00  0.00     0.002 C 
BRANCH   6   7
HETATM    7  C   UNK N   1      25.992  17.974   3.577  0.00  0.00     0.000 C 
BRANCH   7   8
HETATM    8  C   UNK N   1      25.352  19.351   3.642  0.00  0.00     0.000 C 
BRANCH   8   9
HETATM    9  C   UNK N   1      26.432  20.414   3.740  0.00  0.00     0.000 C 
BRANCH   9  10
HETATM   10  C   UNK N   1      27.669  19.843   4.410  0.00  0.00     0.000 C 
BRANCH  10  11
HETATM   11  C   UNK N   1      27.801  20.363   5.828  0.00  0.00    -0.000 C 
BRANCH  11  12
HETATM   12  C   UNK N   1      26.909  21.571   6.038  0.00  0.00    -0.005 C 
HETATM   13  C   UNK N   1      26.172  21.427   7.352  0.00  0.00     0.005 C 
ENDBRANCH  11  12
ENDBRANCH  10  11
ENDBRANCH   9  10
ENDBRANCH   8   9
ENDBRANCH   7   8
ENDBRANCH   6   7
ENDBRANCH   5   6
ENDBRANCH   4   5
ENDBRANCH   3   4
ENDBRANCH   2   3
ENDBRANCH   1   2
BRANCH   1  14
HETATM   14  O   UNK N   1      21.145  15.890   8.316  0.00  0.00    -0.287 OA
BRANCH  14  15
HETATM   15  P   UNK N   1      20.771  14.303   8.974  0.00  0.00     0.393 P 
HETATM   16  O   UNK N   1      21.840  13.852  10.012  0.00  0.00    -0.631 OA
BRANCH  15  17
HETATM   17  O   UNK N   1      19.249  14.336   9.807  0.00  0.00    -0.307 OA
HETATM   18  H   UNK N   1      18.526  13.714   9.627  0.00  0.00     0.222 HD
ENDBRANCH  15  17
BRANCH  15  19
HETATM   19  O   UNK N   1      20.689  13.122   7.684  0.00  0.00    -0.302 OA
HETATM   20  C   UNK N   1      21.760  12.242   7.855  0.00  0.00     0.214 C 
ENDBRANCH  15  19
ENDBRANCH  14  15
ENDBRANCH   1  14
BRANCH   1  21
HETATM   21  C   UNK N   1      20.679  17.169   6.343  0.00  0.00     0.202 C 
BRANCH  21  22
HETATM   22  O   UNK N   1      21.097  17.393   5.025  0.00  0.00    -0.380 OA
BRANCH  22  23
HETATM   23  C   UNK N   1      21.339  18.765   4.919  0.00  0.00     0.285 C 
BRANCH  23  24
HETATM   24  C   UNK N   1      21.009  19.241   3.516  0.00  0.00     0.408 C 
HETATM   25  F   UNK N   1      22.177  19.605   2.873  0.00  0.00    -0.169 F 
HETATM   26  F   UNK N   1      20.163  20.331   3.582  0.00  0.00    -0.169 F 
HETATM   27  F   UNK N   1      20.397  18.227   2.804  0.00  0.00    -0.169 F 
ENDBRANCH  23  24
ENDBRANCH  22  23
ENDBRANCH  21  22
ENDBRANCH   1  21
TORSDOF 19
ENDMDL
MODEL 9
REMARK VINA RESULT:      -4.7      7.066     12.325
REMARK  19 active torsions:
REMARK  status: ('A' for Active; 'I' for Inactive)
REMARK    1  A    between atoms: C_1  and  O_2 
REMARK    2  A    between atoms: C_1  and  C_3 
REMARK    3  A    between atoms: O_2  and  C_17 
REMARK    4  A    between atoms: C_3  and  O_4 
REMARK    5  A    between atoms: C_3  and  C_5 
REMARK    6  A    between atoms: P_12  and  O_4 
REMARK    7  A    between atoms: C_5  and  O_6 
REMARK    8  A    between atoms: O_6  and  C_7 
REMARK    9  A    between atoms: C_7  and  C_8 
REMARK   10  A    between atoms: P_12  and  O_14 
REMARK   11  A    between atoms: P_12  and  O_16 
REMARK   12  A    between atoms: C_17  and  C_18 
REMARK   13  A    between atoms: C_18  and  C_19 
REMARK   14  A    between atoms: C_19  and  C_20 
REMARK   15  A    between atoms: C_20  and  C_21 
REMARK   16  A    between atoms: C_21  and  C_22 
REMARK   17  A    between atoms: C_22  and  C_23 
REMARK   18  A    between atoms: C_23  and  C_24 
REMARK   19  A    between atoms: C_24  and  C_25 
ROOT
HETATM    1  C   UNK N   1      35.754  13.395  13.131  0.00  0.00     0.181 C 
ENDROOT
BRANCH   1   2
HETATM    2  C   UNK N   1      34.907  12.260  13.684  0.00  0.00     0.202 C 
BRANCH   2   3
HETATM    3  O   UNK N   1      35.468  11.021  13.357  0.00  0.00    -0.389 OA
BRANCH   3   4
HETATM    4  C   UNK N   1      34.610  10.067  13.911  0.00  0.00     0.167 C 
BRANCH   4   5
HETATM    5  C   UNK N   1      34.555  10.188  15.427  0.00  0.00     0.026 C 
BRANCH   5   6
HETATM    6  C   UNK N   1      35.657   9.330  16.028  0.00  0.00     0.002 C 
BRANCH   6   7
HETATM    7  C   UNK N   1      35.142   8.504  17.197  0.00  0.00     0.000 C 
BRANCH   7   8
HETATM    8  C   UNK N   1      35.480   9.175  18.519  0.00  0.00     0.000 C 
BRANCH   8   9
HETATM    9  C   UNK N   1      34.201   9.584  19.227  0.00  0.00     0.000 C 
BRANCH   9  10
HETATM   10  C   UNK N   1      33.420   8.354  19.650  0.00  0.00     0.000 C 
BRANCH  10  11
HETATM   11  C   UNK N   1      32.233   8.741  20.512  0.00  0.00    -0.000 C 
BRANCH  11  12
HETATM   12  C   UNK N   1      30.964   8.092  19.994  0.00  0.00    -0.005 C 
HETATM   13  C   UNK N   1      31.259   6.659  19.605  0.00  0.00     0.005 C 
ENDBRANCH  11  12
ENDBRANCH  10  11
ENDBRANCH   9  10
ENDBRANCH   8   9
ENDBRANCH   7   8
ENDBRANCH   6   7
ENDBRANCH   5   6
ENDBRANCH   4   5
ENDBRANCH   3   4
ENDBRANCH   2   3
ENDBRANCH   1   2
BRANCH   1  14
HETATM   14  O   UNK N   1      34.942  14.284  12.381  0.00  0.00    -0.287 OA
BRANCH  14  15
HETATM   15  P   UNK N   1      35.087  14.040  10.646  0.00  0.00     0.393 P 
HETATM   16  O   UNK N   1      36.268  13.086  10.303  0.00  0.00    -0.631 OA
BRANCH  15  17
HETATM   17  O   UNK N   1      33.649  13.301  10.015  0.00  0.00    -0.307 OA
HETATM   18  H   UNK N   1      33.320  13.452   9.116  0.00  0.00     0.222 HD
ENDBRANCH  15  17
BRANCH  15  19
HETATM   19  O   UNK N   1      35.337  15.575   9.842  0.00  0.00    -0.302 OA
HETATM   20  C   UNK N   1      35.399  16.559  10.832  0.00  0.00     0.214 C 
ENDBRANCH  15  19
ENDBRANCH  14  15
ENDBRANCH   1  14
BRANCH   1  21
HETATM   21  C   UNK N   1      36.386  14.161  14.291  0.00  0.00     0.202 C 
BRANCH  21  22
HETATM   22  O   UNK N   1      36.559  13.338  15.410  0.00  0.00    -0.380 OA
BRANCH  22  23
HETATM   23  C   UNK N   1      36.341  14.147  16.529  0.00  0.00     0.285 C 
BRANCH  23  24
HETATM   24  C   UNK N   1      35.195  13.591  17.353  0.00  0.00     0.408 C 
HETATM   25  F   UNK N   1      35.554  12.355  17.856  0.00  0.00    -0.169 F 
HETATM   26  F   UNK N   1      34.073  13.455  16.559  0.00  0.00    -0.169 F 
HETATM   27  F   UNK N   1      34.913  14.443  18.405  0.00  0.00    -0.169 F 
ENDBRANCH  23  24
ENDBRANCH  22  23
ENDBRANCH  21  22
ENDBRANCH   1  21
TORSDOF 19
ENDMDL
