REMARK  19 active torsions:
REMARK  status: ('A' for Active; 'I' for Inactive)
REMARK    1  A    between atoms: C_1  and  O_2 
REMARK    2  A    between atoms: C_1  and  C_3 
REMARK    3  A    between atoms: O_2  and  C_17 
REMARK    4  A    between atoms: C_3  and  O_4 
REMARK    5  A    between atoms: C_3  and  C_5 
REMARK    6  A    between atoms: P_12  and  O_4 
REMARK    7  A    between atoms: C_5  and  O_6 
REMARK    8  A    between atoms: O_6  and  C_7 
REMARK    9  A    between atoms: C_7  and  C_8 
REMARK   10  A    between atoms: P_12  and  O_14 
REMARK   11  A    between atoms: P_12  and  O_16 
REMARK   12  A    between atoms: C_17  and  C_18 
REMARK   13  A    between atoms: C_18  and  C_19 
REMARK   14  A    between atoms: C_19  and  C_20 
REMARK   15  A    between atoms: C_20  and  C_21 
REMARK   16  A    between atoms: C_21  and  C_22 
REMARK   17  A    between atoms: C_22  and  C_23 
REMARK   18  A    between atoms: C_23  and  C_24 
REMARK   19  A    between atoms: C_24  and  C_25 
ROOT
HETATM    1  C   UNK N   1       3.097   0.787   0.283  0.00  0.00     0.181 C 
ENDROOT
BRANCH   1   2
HETATM    2  C   UNK N   1       1.867   1.661   0.468  0.00  0.00     0.202 C 
BRANCH   2   3
HETATM    3  O   UNK N   1       1.169   1.791  -0.737  0.00  0.00    -0.389 OA
BRANCH   3   4
HETATM    4  C   UNK N   1      -0.184   1.759  -0.387  0.00  0.00     0.167 C 
BRANCH   4   5
HETATM    5  C   UNK N   1      -0.682   0.329  -0.237  0.00  0.00     0.026 C 
BRANCH   5   6
HETATM    6  C   UNK N   1      -0.890   0.034   1.240  0.00  0.00     0.002 C 
BRANCH   6   7
HETATM    7  C   UNK N   1      -1.970  -1.017   1.450  0.00  0.00     0.000 C 
BRANCH   7   8
HETATM    8  C   UNK N   1      -3.342  -0.451   1.119  0.00  0.00     0.000 C 
BRANCH   8   9
HETATM    9  C   UNK N   1      -3.633  -0.645  -0.358  0.00  0.00     0.000 C 
BRANCH   9  10
HETATM   10  C   UNK N   1      -4.275   0.604  -0.934  0.00  0.00     0.000 C 
BRANCH  10  11
HETATM   11  C   UNK N   1      -5.759   0.389  -1.164  0.00  0.00    -0.000 C 
BRANCH  11  12
HETATM   12  C   UNK N   1      -6.522   0.501   0.141  0.00  0.00    -0.005 C 
HETATM   13  C   UNK N   1      -7.993   0.255  -0.117  0.00  0.00     0.005 C 
ENDBRANCH  11  12
ENDBRANCH  10  11
ENDBRANCH   9  10
ENDBRANCH   8   9
ENDBRANCH   7   8
ENDBRANCH   6   7
ENDBRANCH   5   6
ENDBRANCH   4   5
ENDBRANCH   3   4
ENDBRANCH   2   3
ENDBRANCH   1   2
BRANCH   1  14
HETATM   14  O   UNK N   1       2.760  -0.371  -0.464  0.00  0.00    -0.287 OA
BRANCH  14  15
HETATM   15  P   UNK N   1       2.872  -1.849   0.483  0.00  0.00     0.393 P 
HETATM   16  O   UNK N   1       3.758  -1.648   1.747  0.00  0.00    -0.631 OA
BRANCH  15  17
HETATM   17  O   UNK N   1       1.302  -2.329   1.045  0.00  0.00    -0.307 OA
HETATM   18  H   UNK N   1       0.631  -1.703   1.359  0.00  0.00     0.222 HD
ENDBRANCH  15  17
BRANCH  15  19
HETATM   19  O   UNK N   1       3.546  -3.137  -0.492  0.00  0.00    -0.302 OA
HETATM   20  C   UNK N   1       4.805  -3.442   0.031  0.00  0.00     0.214 C 
ENDBRANCH  15  19
ENDBRANCH  14  15
ENDBRANCH   1  14
BRANCH   1  21
HETATM   21  C   UNK N   1       4.163   1.573  -0.477  0.00  0.00     0.202 C 
BRANCH  21  22
HETATM   22  O   UNK N   1       5.235   0.751  -0.844  0.00  0.00    -0.380 OA
BRANCH  22  23
HETATM   23  C   UNK N   1       6.090   0.706   0.261  0.00  0.00     0.285 C 
BRANCH  23  24
HETATM   24  C   UNK N   1       7.336  -0.090  -0.081  0.00  0.00     0.408 C 
HETATM   25  F   UNK N   1       8.102  -0.247   1.058  0.00  0.00    -0.169 F 
HETATM   26  F   UNK N   1       8.070   0.583  -1.038  0.00  0.00    -0.169 F 
HETATM   27  F   UNK N   1       6.983  -1.336  -0.565  0.00  0.00    -0.169 F 
ENDBRANCH  23  24
ENDBRANCH  22  23
ENDBRANCH  21  22
ENDBRANCH   1  21
TORSDOF 19
