MODEL 1
REMARK VINA RESULT:      -8.8      0.000      0.000
REMARK  5 active torsions:
REMARK  status: ('A' for Active; 'I' for Inactive)
REMARK    1  A    between atoms: C_8  and  C_21 
REMARK    2  A    between atoms: C_25  and  C_8 
REMARK    3  A    between atoms: C_10  and  C_11 
REMARK    4  A    between atoms: C_22  and  C_24 
REMARK    5  A    between atoms: C_25  and  O_29 
ROOT
HETATM    1  C   UNK N   1      25.034  20.410   2.860  0.00  0.00     0.103 A 
HETATM    2  C   UNK N   1      22.158  17.981   5.350  0.00  0.00    -0.009 A 
HETATM    3  C   UNK N   1      23.896  19.252   4.338  0.00  0.00     0.021 A 
HETATM    4  C   UNK N   1      23.058  19.687   3.383  0.00  0.00     0.116 A 
HETATM    5  C   UNK N   1      23.479  18.403   5.330  0.00  0.00     0.029 A 
HETATM    6  C   UNK N   1      21.276  18.468   4.340  0.00  0.00     0.102 A 
HETATM    7  C   UNK N   1      25.148  19.694   4.055  0.00  0.00     0.004 A 
HETATM    8  N   UNK N   1      23.725  20.421   2.464  0.00  0.00    -0.351 N 
HETATM    9  N   UNK N   1      21.748  19.325   3.362  0.00  0.00    -0.351 N 
ATOM     10  HN  UNK N   1      21.123  19.679   2.639  1.00  0.00     0.166 HD
HETATM   11  H   UNK N   1      23.345  20.871   1.675  0.00  0.00     0.166 HD
ENDROOT
BRANCH   7  12
HETATM   12  C   UNK N   1      26.320  19.256   4.837  0.00  0.00    -0.024 A 
HETATM   13  C   UNK N   1      26.756  17.927   4.819  0.00  0.00     0.013 A 
HETATM   14  C   UNK N   1      27.691  17.494   5.773  0.00  0.00     0.008 A 
HETATM   15  C   UNK N   1      28.191  18.393   6.730  0.00  0.00    -0.048 A 
HETATM   16  C   UNK N   1      27.793  19.723   6.713  0.00  0.00     0.008 A 
HETATM   17  C   UNK N   1      26.858  20.143   5.785  0.00  0.00     0.013 A 
BRANCH  15  18
HETATM   18  C   UNK N   1      29.153  17.956   7.778  0.00  0.00     0.148 C 
BRANCH  18  19
HETATM   19  C   UNK N   1      28.651  18.240   9.158  0.00  0.00     0.143 C 
HETATM   20  O   UNK N   1      29.374  18.758   9.996  0.00  0.00    -0.650 OA
BRANCH  19  21
HETATM   21  O   UNK N   1      27.381  17.934   9.472  0.00  0.00    -0.776 OA
HETATM   22  H   UNK N   1      26.940  17.238   9.024  0.00  0.00     0.167 HD
ENDBRANCH  19  21
ENDBRANCH  18  19
ENDBRANCH  15  18
ENDBRANCH   7  12
BRANCH   2  23
HETATM   23  C   UNK N   1      21.784  17.008   6.404  0.00  0.00    -0.024 A 
HETATM   24  C   UNK N   1      20.726  17.333   7.280  0.00  0.00     0.013 A 
HETATM   25  C   UNK N   1      20.336  16.468   8.295  0.00  0.00     0.013 A 
HETATM   26  C   UNK N   1      20.999  15.258   8.456  0.00  0.00    -0.026 A 
HETATM   27  C   UNK N   1      22.068  14.916   7.593  0.00  0.00    -0.025 A 
HETATM   28  C   UNK N   1      20.605  14.382   9.469  0.00  0.00     0.012 A 
HETATM   29  C   UNK N   1      22.726  13.697   7.763  0.00  0.00     0.012 A 
HETATM   30  C   UNK N   1      22.459  15.793   6.571  0.00  0.00     0.024 A 
HETATM   31  C   UNK N   1      22.326  12.822   8.779  0.00  0.00     0.001 A 
HETATM   32  C   UNK N   1      21.267  13.164   9.629  0.00  0.00     0.001 A 
ENDBRANCH   2  23
TORSDOF 5
ENDMDL
MODEL 2
REMARK VINA RESULT:      -8.4     10.744     14.523
REMARK  5 active torsions:
REMARK  status: ('A' for Active; 'I' for Inactive)
REMARK    1  A    between atoms: C_8  and  C_21 
REMARK    2  A    between atoms: C_25  and  C_8 
REMARK    3  A    between atoms: C_10  and  C_11 
REMARK    4  A    between atoms: C_22  and  C_24 
REMARK    5  A    between atoms: C_25  and  O_29 
ROOT
HETATM    1  C   UNK N   1      35.845  11.342   8.673  0.00  0.00     0.103 A 
HETATM    2  C   UNK N   1      35.876  11.139  13.181  0.00  0.00    -0.009 A 
HETATM    3  C   UNK N   1      35.587  11.498  10.848  0.00  0.00     0.021 A 
HETATM    4  C   UNK N   1      36.238  10.359  10.564  0.00  0.00     0.116 A 
HETATM    5  C   UNK N   1      35.390  11.914  12.139  0.00  0.00     0.029 A 
HETATM    6  C   UNK N   1      36.548   9.921  12.864  0.00  0.00     0.102 A 
HETATM    7  C   UNK N   1      35.309  12.143   9.685  0.00  0.00     0.004 A 
HETATM    8  N   UNK N   1      36.397  10.221   9.229  0.00  0.00    -0.351 N 
HETATM    9  N   UNK N   1      36.718   9.548  11.543  0.00  0.00    -0.351 N 
ATOM     10  HN  UNK N   1      37.195   8.677  11.309  1.00  0.00     0.166 HD
HETATM   11  H   UNK N   1      36.823   9.470   8.756  0.00  0.00     0.166 HD
ENDROOT
BRANCH   7  12
HETATM   12  C   UNK N   1      34.731  13.501   9.670  0.00  0.00    -0.024 A 
HETATM   13  C   UNK N   1      33.413  13.729   9.266  0.00  0.00     0.013 A 
HETATM   14  C   UNK N   1      32.989  15.043   9.005  0.00  0.00     0.008 A 
HETATM   15  C   UNK N   1      33.881  16.117   9.161  0.00  0.00    -0.048 A 
HETATM   16  C   UNK N   1      35.175  15.890   9.610  0.00  0.00     0.008 A 
HETATM   17  C   UNK N   1      35.596  14.594   9.848  0.00  0.00     0.013 A 
BRANCH  15  18
HETATM   18  C   UNK N   1      33.474  17.515   8.856  0.00  0.00     0.148 C 
BRANCH  18  19
HETATM   19  C   UNK N   1      34.450  18.203   7.955  0.00  0.00     0.143 C 
HETATM   20  O   UNK N   1      34.529  17.909   6.772  0.00  0.00    -0.650 OA
BRANCH  19  21
HETATM   21  O   UNK N   1      35.239  19.169   8.456  0.00  0.00    -0.776 OA
HETATM   22  H   UNK N   1      35.893  18.958   9.094  0.00  0.00     0.167 HD
ENDBRANCH  19  21
ENDBRANCH  18  19
ENDBRANCH  15  18
ENDBRANCH   7  12
BRANCH   2  23
HETATM   23  C   UNK N   1      35.697  11.676  14.551  0.00  0.00    -0.024 A 
HETATM   24  C   UNK N   1      35.465  13.059  14.710  0.00  0.00     0.013 A 
HETATM   25  C   UNK N   1      35.300  13.625  15.969  0.00  0.00     0.013 A 
HETATM   26  C   UNK N   1      35.366  12.817  17.097  0.00  0.00    -0.026 A 
HETATM   27  C   UNK N   1      35.605  11.428  16.960  0.00  0.00    -0.025 A 
HETATM   28  C   UNK N   1      35.192  13.378  18.363  0.00  0.00     0.012 A 
HETATM   29  C   UNK N   1      35.667  10.625  18.099  0.00  0.00     0.012 A 
HETATM   30  C   UNK N   1      35.772  10.862  15.688  0.00  0.00     0.024 A 
HETATM   31  C   UNK N   1      35.491  11.193  19.366  0.00  0.00     0.001 A 
HETATM   32  C   UNK N   1      35.253  12.566  19.496  0.00  0.00     0.001 A 
ENDBRANCH   2  23
TORSDOF 5
ENDMDL
MODEL 3
REMARK VINA RESULT:      -8.4      5.230      7.452
REMARK  5 active torsions:
REMARK  status: ('A' for Active; 'I' for Inactive)
REMARK    1  A    between atoms: C_8  and  C_21 
REMARK    2  A    between atoms: C_25  and  C_8 
REMARK    3  A    between atoms: C_10  and  C_11 
REMARK    4  A    between atoms: C_22  and  C_24 
REMARK    5  A    between atoms: C_25  and  O_29 
ROOT
HETATM    1  C   UNK N   1      27.436  19.916   4.732  0.00  0.00     0.103 A 
HETATM    2  C   UNK N   1      27.031  15.819   2.882  0.00  0.00    -0.009 A 
HETATM    3  C   UNK N   1      26.938  18.065   3.661  0.00  0.00     0.021 A 
HETATM    4  C   UNK N   1      28.214  18.004   4.072  0.00  0.00     0.116 A 
HETATM    5  C   UNK N   1      26.320  16.996   3.065  0.00  0.00     0.029 A 
HETATM    6  C   UNK N   1      28.392  15.777   3.305  0.00  0.00     0.102 A 
HETATM    7  C   UNK N   1      26.413  19.257   4.045  0.00  0.00     0.004 A 
HETATM    8  N   UNK N   1      28.561  19.138   4.721  0.00  0.00    -0.351 N 
HETATM    9  N   UNK N   1      28.968  16.885   3.900  0.00  0.00    -0.351 N 
ATOM     10  HN  UNK N   1      29.941  16.863   4.204  1.00  0.00     0.166 HD
HETATM   11  H   UNK N   1      29.440  19.358   5.105  0.00  0.00     0.166 HD
ENDROOT
BRANCH   7  12
HETATM   12  C   UNK N   1      24.979  19.564   3.872  0.00  0.00    -0.024 A 
HETATM   13  C   UNK N   1      23.985  18.696   4.333  0.00  0.00     0.013 A 
HETATM   14  C   UNK N   1      22.657  18.883   3.915  0.00  0.00     0.008 A 
HETATM   15  C   UNK N   1      22.332  19.940   3.049  0.00  0.00    -0.048 A 
HETATM   16  C   UNK N   1      23.314  20.829   2.634  0.00  0.00     0.008 A 
HETATM   17  C   UNK N   1      24.624  20.632   3.031  0.00  0.00     0.013 A 
BRANCH  15  18
HETATM   18  C   UNK N   1      20.942  20.141   2.558  0.00  0.00     0.148 C 
BRANCH  18  19
HETATM   19  C   UNK N   1      20.840  19.981   1.074  0.00  0.00     0.143 C 
HETATM   20  O   UNK N   1      21.119  20.902   0.321  0.00  0.00    -0.650 OA
BRANCH  19  21
HETATM   21  O   UNK N   1      20.449  18.800   0.566  0.00  0.00    -0.776 OA
HETATM   22  H   UNK N   1      21.007  18.050   0.635  0.00  0.00     0.167 HD
ENDBRANCH  19  21
ENDBRANCH  18  19
ENDBRANCH  15  18
ENDBRANCH   7  12
BRANCH   2  23
HETATM   23  C   UNK N   1      26.289  14.676   2.298  0.00  0.00    -0.024 A 
HETATM   24  C   UNK N   1      26.910  13.408   2.275  0.00  0.00     0.013 A 
HETATM   25  C   UNK N   1      26.272  12.300   1.731  0.00  0.00     0.013 A 
HETATM   26  C   UNK N   1      24.997  12.438   1.197  0.00  0.00    -0.026 A 
HETATM   27  C   UNK N   1      24.359  13.702   1.204  0.00  0.00    -0.025 A 
HETATM   28  C   UNK N   1      24.348  11.326   0.658  0.00  0.00     0.012 A 
HETATM   29  C   UNK N   1      23.078  13.829   0.666  0.00  0.00     0.012 A 
HETATM   30  C   UNK N   1      25.008  14.818   1.752  0.00  0.00     0.024 A 
HETATM   31  C   UNK N   1      22.432  12.711   0.128  0.00  0.00     0.001 A 
HETATM   32  C   UNK N   1      23.065  11.463   0.125  0.00  0.00     0.001 A 
ENDBRANCH   2  23
TORSDOF 5
ENDMDL
MODEL 4
REMARK VINA RESULT:      -8.2     11.093     14.621
REMARK  5 active torsions:
REMARK  status: ('A' for Active; 'I' for Inactive)
REMARK    1  A    between atoms: C_8  and  C_21 
REMARK    2  A    between atoms: C_25  and  C_8 
REMARK    3  A    between atoms: C_10  and  C_11 
REMARK    4  A    between atoms: C_22  and  C_24 
REMARK    5  A    between atoms: C_25  and  O_29 
ROOT
HETATM    1  C   UNK N   1      35.944  10.712   8.535  0.00  0.00     0.103 A 
HETATM    2  C   UNK N   1      35.990  11.377  12.999  0.00  0.00    -0.009 A 
HETATM    3  C   UNK N   1      35.739  11.323  10.634  0.00  0.00     0.021 A 
HETATM    4  C   UNK N   1      36.191  10.060  10.587  0.00  0.00     0.116 A 
HETATM    5  C   UNK N   1      35.627  12.006  11.818  0.00  0.00     0.029 A 
HETATM    6  C   UNK N   1      36.450  10.028  12.934  0.00  0.00     0.102 A 
HETATM    7  C   UNK N   1      35.558  11.769   9.364  0.00  0.00     0.004 A 
HETATM    8  N   UNK N   1      36.312   9.645   9.306  0.00  0.00    -0.351 N 
HETATM    9  N   UNK N   1      36.543   9.385  11.713  0.00  0.00    -0.351 N 
ATOM     10  HN  UNK N   1      36.868   8.420  11.660  1.00  0.00     0.166 HD
HETATM   11  H   UNK N   1      36.603   8.758   8.995  0.00  0.00     0.166 HD
ENDROOT
BRANCH   7  12
HETATM   12  C   UNK N   1      35.210  13.175   9.078  0.00  0.00    -0.024 A 
HETATM   13  C   UNK N   1      36.113  14.215   9.321  0.00  0.00     0.013 A 
HETATM   14  C   UNK N   1      35.658  15.543   9.297  0.00  0.00     0.008 A 
HETATM   15  C   UNK N   1      34.309  15.822   9.020  0.00  0.00    -0.048 A 
HETATM   16  C   UNK N   1      33.428  14.790   8.730  0.00  0.00     0.008 A 
HETATM   17  C   UNK N   1      33.873  13.482   8.773  0.00  0.00     0.013 A 
BRANCH  15  18
HETATM   18  C   UNK N   1      33.788  17.216   9.024  0.00  0.00     0.148 C 
BRANCH  18  19
HETATM   19  C   UNK N   1      34.510  18.091   8.049  0.00  0.00     0.143 C 
HETATM   20  O   UNK N   1      34.453  17.874   6.848  0.00  0.00    -0.650 OA
BRANCH  19  21
HETATM   21  O   UNK N   1      35.219  19.138   8.503  0.00  0.00    -0.776 OA
HETATM   22  H   UNK N   1      35.835  19.568   7.943  0.00  0.00     0.167 HD
ENDBRANCH  19  21
ENDBRANCH  18  19
ENDBRANCH  15  18
ENDBRANCH   7  12
BRANCH   2  23
HETATM   23  C   UNK N   1      35.916  12.188  14.237  0.00  0.00    -0.024 A 
HETATM   24  C   UNK N   1      35.021  11.789  15.254  0.00  0.00     0.013 A 
HETATM   25  C   UNK N   1      34.896  12.515  16.432  0.00  0.00     0.013 A 
HETATM   26  C   UNK N   1      35.664  13.657  16.619  0.00  0.00    -0.026 A 
HETATM   27  C   UNK N   1      36.563  14.078  15.608  0.00  0.00    -0.025 A 
HETATM   28  C   UNK N   1      35.550  14.384  17.804  0.00  0.00     0.012 A 
HETATM   29  C   UNK N   1      37.331  15.226  15.806  0.00  0.00     0.012 A 
HETATM   30  C   UNK N   1      36.684  13.344  14.420  0.00  0.00     0.024 A 
HETATM   31  C   UNK N   1      37.213  15.950  16.998  0.00  0.00     0.001 A 
HETATM   32  C   UNK N   1      36.325  15.529  17.994  0.00  0.00     0.001 A 
ENDBRANCH   2  23
TORSDOF 5
ENDMDL
MODEL 5
REMARK VINA RESULT:      -8.2      2.346      3.869
REMARK  5 active torsions:
REMARK  status: ('A' for Active; 'I' for Inactive)
REMARK    1  A    between atoms: C_8  and  C_21 
REMARK    2  A    between atoms: C_25  and  C_8 
REMARK    3  A    between atoms: C_10  and  C_11 
REMARK    4  A    between atoms: C_22  and  C_24 
REMARK    5  A    between atoms: C_25  and  O_29 
ROOT
HETATM    1  C   UNK N   1      20.374  18.804   2.543  0.00  0.00     0.103 A 
HETATM    2  C   UNK N   1      20.804  15.722   5.811  0.00  0.00    -0.009 A 
HETATM    3  C   UNK N   1      20.848  17.532   4.268  0.00  0.00     0.021 A 
HETATM    4  C   UNK N   1      19.646  17.183   3.783  0.00  0.00     0.116 A 
HETATM    5  C   UNK N   1      21.451  16.826   5.277  0.00  0.00     0.029 A 
HETATM    6  C   UNK N   1      19.518  15.376   5.299  0.00  0.00     0.102 A 
HETATM    7  C   UNK N   1      21.338  18.557   3.525  0.00  0.00     0.004 A 
HETATM    8  N   UNK N   1      19.314  17.961   2.729  0.00  0.00    -0.351 N 
HETATM    9  N   UNK N   1      18.954  16.124   4.281  0.00  0.00    -0.351 N 
ATOM     10  HN  UNK N   1      18.034  15.884   3.911  1.00  0.00     0.166 HD
HETATM   11  H   UNK N   1      18.481  17.927   2.205  0.00  0.00     0.166 HD
ENDROOT
BRANCH   7  12
HETATM   12  C   UNK N   1      22.710  19.065   3.714  0.00  0.00    -0.024 A 
HETATM   13  C   UNK N   1      23.146  20.240   3.094  0.00  0.00     0.013 A 
HETATM   14  C   UNK N   1      24.518  20.542   3.074  0.00  0.00     0.008 A 
HETATM   15  C   UNK N   1      25.440  19.675   3.682  0.00  0.00    -0.048 A 
HETATM   16  C   UNK N   1      24.999  18.535   4.340  0.00  0.00     0.008 A 
HETATM   17  C   UNK N   1      23.650  18.230   4.341  0.00  0.00     0.013 A 
BRANCH  15  18
HETATM   18  C   UNK N   1      26.903  19.947   3.645  0.00  0.00     0.148 C 
BRANCH  18  19
HETATM   19  C   UNK N   1      27.461  20.211   5.008  0.00  0.00     0.143 C 
HETATM   20  O   UNK N   1      28.134  19.371   5.585  0.00  0.00    -0.650 OA
BRANCH  19  21
HETATM   21  O   UNK N   1      27.229  21.397   5.596  0.00  0.00    -0.776 OA
HETATM   22  H   UNK N   1      26.554  21.478   6.241  0.00  0.00     0.167 HD
ENDBRANCH  19  21
ENDBRANCH  18  19
ENDBRANCH  15  18
ENDBRANCH   7  12
BRANCH   2  23
HETATM   23  C   UNK N   1      21.536  14.956   6.848  0.00  0.00    -0.024 A 
HETATM   24  C   UNK N   1      22.925  14.755   6.685  0.00  0.00     0.013 A 
HETATM   25  C   UNK N   1      23.665  14.037   7.616  0.00  0.00     0.013 A 
HETATM   26  C   UNK N   1      23.031  13.502   8.730  0.00  0.00    -0.026 A 
HETATM   27  C   UNK N   1      21.638  13.686   8.909  0.00  0.00    -0.025 A 
HETATM   28  C   UNK N   1      23.771  12.787   9.673  0.00  0.00     0.012 A 
HETATM   29  C   UNK N   1      21.011  13.146  10.032  0.00  0.00     0.012 A 
HETATM   30  C   UNK N   1      20.895  14.410   7.966  0.00  0.00     0.024 A 
HETATM   31  C   UNK N   1      21.759  12.431  10.975  0.00  0.00     0.001 A 
HETATM   32  C   UNK N   1      23.136  12.254  10.795  0.00  0.00     0.001 A 
ENDBRANCH   2  23
TORSDOF 5
ENDMDL
MODEL 6
REMARK VINA RESULT:      -8.1     13.559     15.854
REMARK  5 active torsions:
REMARK  status: ('A' for Active; 'I' for Inactive)
REMARK    1  A    between atoms: C_8  and  C_21 
REMARK    2  A    between atoms: C_25  and  C_8 
REMARK    3  A    between atoms: C_10  and  C_11 
REMARK    4  A    between atoms: C_22  and  C_24 
REMARK    5  A    between atoms: C_25  and  O_29 
ROOT
HETATM    1  C   UNK N   1      32.437  19.885  -4.654  0.00  0.00     0.103 A 
HETATM    2  C   UNK N   1      29.299  23.080  -4.092  0.00  0.00    -0.009 A 
HETATM    3  C   UNK N   1      30.728  21.264  -4.656  0.00  0.00     0.021 A 
HETATM    4  C   UNK N   1      31.393  21.391  -3.497  0.00  0.00     0.116 A 
HETATM    5  C   UNK N   1      29.682  22.088  -4.982  0.00  0.00     0.029 A 
HETATM    6  C   UNK N   1      30.002  23.189  -2.855  0.00  0.00     0.102 A 
HETATM    7  C   UNK N   1      31.344  20.318  -5.411  0.00  0.00     0.004 A 
HETATM    8  N   UNK N   1      32.443  20.541  -3.454  0.00  0.00    -0.351 N 
HETATM    9  N   UNK N   1      31.050  22.331  -2.576  0.00  0.00    -0.351 N 
ATOM     10  HN  UNK N   1      31.556  22.401  -1.693  1.00  0.00     0.166 HD
HETATM   11  H   UNK N   1      33.079  20.420  -2.713  0.00  0.00     0.166 HD
ENDROOT
BRANCH   7  12
HETATM   12  C   UNK N   1      30.941  20.055  -6.806  0.00  0.00    -0.024 A 
HETATM   13  C   UNK N   1      29.738  19.410  -7.109  0.00  0.00     0.013 A 
HETATM   14  C   UNK N   1      29.519  18.937  -8.414  0.00  0.00     0.008 A 
HETATM   15  C   UNK N   1      30.497  19.121  -9.405  0.00  0.00    -0.048 A 
HETATM   16  C   UNK N   1      31.668  19.807  -9.112  0.00  0.00     0.008 A 
HETATM   17  C   UNK N   1      31.890  20.255  -7.823  0.00  0.00     0.013 A 
BRANCH  15  18
HETATM   18  C   UNK N   1      30.310  18.599 -10.786  0.00  0.00     0.148 C 
BRANCH  18  19
HETATM   19  C   UNK N   1      30.594  17.133 -10.877  0.00  0.00     0.143 C 
HETATM   20  O   UNK N   1      30.181  16.469 -11.816  0.00  0.00    -0.650 OA
BRANCH  19  21
HETATM   21  O   UNK N   1      31.328  16.544  -9.917  0.00  0.00    -0.776 OA
HETATM   22  H   UNK N   1      32.243  16.392 -10.052  0.00  0.00     0.167 HD
ENDBRANCH  19  21
ENDBRANCH  18  19
ENDBRANCH  15  18
ENDBRANCH   7  12
BRANCH   2  23
HETATM   23  C   UNK N   1      28.210  23.985  -4.529  0.00  0.00    -0.024 A 
HETATM   24  C   UNK N   1      27.472  23.645  -5.684  0.00  0.00     0.013 A 
HETATM   25  C   UNK N   1      26.447  24.458  -6.153  0.00  0.00     0.013 A 
HETATM   26  C   UNK N   1      26.139  25.631  -5.475  0.00  0.00    -0.026 A 
HETATM   27  C   UNK N   1      26.872  25.994  -4.318  0.00  0.00    -0.025 A 
HETATM   28  C   UNK N   1      25.104  26.446  -5.935  0.00  0.00     0.012 A 
HETATM   29  C   UNK N   1      26.553  27.174  -3.645  0.00  0.00     0.012 A 
HETATM   30  C   UNK N   1      27.907  25.172  -3.851  0.00  0.00     0.024 A 
HETATM   31  C   UNK N   1      25.514  27.987  -4.110  0.00  0.00     0.001 A 
HETATM   32  C   UNK N   1      24.791  27.623  -5.252  0.00  0.00     0.001 A 
ENDBRANCH   2  23
TORSDOF 5
ENDMDL
MODEL 7
REMARK VINA RESULT:      -8.1     13.716     15.559
REMARK  5 active torsions:
REMARK  status: ('A' for Active; 'I' for Inactive)
REMARK    1  A    between atoms: C_8  and  C_21 
REMARK    2  A    between atoms: C_25  and  C_8 
REMARK    3  A    between atoms: C_10  and  C_11 
REMARK    4  A    between atoms: C_22  and  C_24 
REMARK    5  A    between atoms: C_25  and  O_29 
ROOT
HETATM    1  C   UNK N   1      25.272  24.692  -9.431  0.00  0.00     0.103 A 
HETATM    2  C   UNK N   1      28.241  22.379  -6.939  0.00  0.00    -0.009 A 
HETATM    3  C   UNK N   1      26.640  23.817  -7.952  0.00  0.00     0.021 A 
HETATM    4  C   UNK N   1      26.385  22.907  -8.906  0.00  0.00     0.116 A 
HETATM    5  C   UNK N   1      27.557  23.585  -6.960  0.00  0.00     0.029 A 
HETATM    6  C   UNK N   1      27.944  21.415  -7.948  0.00  0.00     0.102 A 
HETATM    7  C   UNK N   1      25.950  24.952  -8.237  0.00  0.00     0.004 A 
HETATM    8  N   UNK N   1      25.529  23.407  -9.825  0.00  0.00    -0.351 N 
HETATM    9  N   UNK N   1      27.009  21.699  -8.926  0.00  0.00    -0.351 N 
ATOM     10  HN  UNK N   1      26.790  21.014  -9.648  1.00  0.00     0.166 HD
HETATM   11  H   UNK N   1      25.167  22.943 -10.613  0.00  0.00     0.166 HD
ENDROOT
BRANCH   7  12
HETATM   12  C   UNK N   1      26.139  26.190  -7.456  0.00  0.00    -0.024 A 
HETATM   13  C   UNK N   1      27.203  27.060  -7.711  0.00  0.00     0.013 A 
HETATM   14  C   UNK N   1      27.506  28.071  -6.784  0.00  0.00     0.008 A 
HETATM   15  C   UNK N   1      26.737  28.211  -5.617  0.00  0.00    -0.048 A 
HETATM   16  C   UNK N   1      25.650  27.378  -5.392  0.00  0.00     0.008 A 
HETATM   17  C   UNK N   1      25.365  26.371  -6.297  0.00  0.00     0.013 A 
BRANCH  15  18
HETATM   18  C   UNK N   1      27.055  29.248  -4.598  0.00  0.00     0.148 C 
BRANCH  18  19
HETATM   19  C   UNK N   1      27.671  28.659  -3.368  0.00  0.00     0.143 C 
HETATM   20  O   UNK N   1      27.154  28.810  -2.272  0.00  0.00    -0.650 OA
BRANCH  19  21
HETATM   21  O   UNK N   1      28.802  27.941  -3.478  0.00  0.00    -0.776 OA
HETATM   22  H   UNK N   1      29.636  28.365  -3.415  0.00  0.00     0.167 HD
ENDBRANCH  19  21
ENDBRANCH  18  19
ENDBRANCH  15  18
ENDBRANCH   7  12
BRANCH   2  23
HETATM   23  C   UNK N   1      29.271  22.214  -5.886  0.00  0.00    -0.024 A 
HETATM   24  C   UNK N   1      29.222  23.058  -4.755  0.00  0.00     0.013 A 
HETATM   25  C   UNK N   1      30.165  22.961  -3.739  0.00  0.00     0.013 A 
HETATM   26  C   UNK N   1      31.180  22.017  -3.835  0.00  0.00    -0.026 A 
HETATM   27  C   UNK N   1      31.251  21.166  -4.964  0.00  0.00    -0.025 A 
HETATM   28  C   UNK N   1      32.124  21.909  -2.813  0.00  0.00     0.012 A 
HETATM   29  C   UNK N   1      32.274  20.221  -5.049  0.00  0.00     0.012 A 
HETATM   30  C   UNK N   1      30.298  21.269  -5.988  0.00  0.00     0.024 A 
HETATM   31  C   UNK N   1      33.217  20.116  -4.021  0.00  0.00     0.001 A 
HETATM   32  C   UNK N   1      33.142  20.958  -2.906  0.00  0.00     0.001 A 
ENDBRANCH   2  23
TORSDOF 5
ENDMDL
MODEL 8
REMARK VINA RESULT:      -8.0      2.774      6.975
REMARK  5 active torsions:
REMARK  status: ('A' for Active; 'I' for Inactive)
REMARK    1  A    between atoms: C_8  and  C_21 
REMARK    2  A    between atoms: C_25  and  C_8 
REMARK    3  A    between atoms: C_10  and  C_11 
REMARK    4  A    between atoms: C_22  and  C_24 
REMARK    5  A    between atoms: C_25  and  O_29 
ROOT
HETATM    1  C   UNK N   1      21.981  19.633   3.225  0.00  0.00     0.103 A 
HETATM    2  C   UNK N   1      26.354  19.257   4.277  0.00  0.00    -0.009 A 
HETATM    3  C   UNK N   1      24.023  19.098   3.830  0.00  0.00     0.021 A 
HETATM    4  C   UNK N   1      24.067  20.200   3.064  0.00  0.00     0.116 A 
HETATM    5  C   UNK N   1      25.143  18.603   4.447  0.00  0.00     0.029 A 
HETATM    6  C   UNK N   1      26.388  20.414   3.444  0.00  0.00     0.102 A 
HETATM    7  C   UNK N   1      22.730  18.700   3.948  0.00  0.00     0.004 A 
HETATM    8  N   UNK N   1      22.825  20.547   2.657  0.00  0.00    -0.351 N 
HETATM    9  N   UNK N   1      25.228  20.871   2.843  0.00  0.00    -0.351 N 
ATOM     10  HN  UNK N   1      25.246  21.696   2.245  1.00  0.00     0.166 HD
HETATM   11  H   UNK N   1      22.581  21.301   2.074  0.00  0.00     0.166 HD
ENDROOT
BRANCH   7  12
HETATM   12  C   UNK N   1      22.336  17.603   4.853  0.00  0.00    -0.024 A 
HETATM   13  C   UNK N   1      21.663  17.852   6.053  0.00  0.00     0.013 A 
HETATM   14  C   UNK N   1      21.549  16.827   7.007  0.00  0.00     0.008 A 
HETATM   15  C   UNK N   1      22.099  15.560   6.749  0.00  0.00    -0.048 A 
HETATM   16  C   UNK N   1      22.722  15.302   5.536  0.00  0.00     0.008 A 
HETATM   17  C   UNK N   1      22.850  16.318   4.607  0.00  0.00     0.013 A 
BRANCH  15  18
HETATM   18  C   UNK N   1      22.028  14.465   7.754  0.00  0.00     0.148 C 
BRANCH  18  19
HETATM   19  C   UNK N   1      20.653  13.885   7.860  0.00  0.00     0.143 C 
HETATM   20  O   UNK N   1      20.235  13.099   7.023  0.00  0.00    -0.650 OA
BRANCH  19  21
HETATM   21  O   UNK N   1      19.874  14.226   8.901  0.00  0.00    -0.776 OA
HETATM   22  H   UNK N   1      19.017  14.578   8.752  0.00  0.00     0.167 HD
ENDBRANCH  19  21
ENDBRANCH  18  19
ENDBRANCH  15  18
ENDBRANCH   7  12
BRANCH   2  23
HETATM   23  C   UNK N   1      27.514  18.718   5.026  0.00  0.00    -0.024 A 
HETATM   24  C   UNK N   1      28.459  17.931   4.333  0.00  0.00     0.013 A 
HETATM   25  C   UNK N   1      29.561  17.387   4.981  0.00  0.00     0.013 A 
HETATM   26  C   UNK N   1      29.741  17.618   6.339  0.00  0.00    -0.026 A 
HETATM   27  C   UNK N   1      28.800  18.399   7.054  0.00  0.00    -0.025 A 
HETATM   28  C   UNK N   1      30.851  17.082   6.993  0.00  0.00     0.012 A 
HETATM   29  C   UNK N   1      28.991  18.627   8.418  0.00  0.00     0.012 A 
HETATM   30  C   UNK N   1      27.689  18.944   6.396  0.00  0.00     0.024 A 
HETATM   31  C   UNK N   1      30.107  18.088   9.068  0.00  0.00     0.001 A 
HETATM   32  C   UNK N   1      31.034  17.318   8.356  0.00  0.00     0.001 A 
ENDBRANCH   2  23
TORSDOF 5
ENDMDL
MODEL 9
REMARK VINA RESULT:      -8.0      5.693      9.781
REMARK  5 active torsions:
REMARK  status: ('A' for Active; 'I' for Inactive)
REMARK    1  A    between atoms: C_8  and  C_21 
REMARK    2  A    between atoms: C_25  and  C_8 
REMARK    3  A    between atoms: C_10  and  C_11 
REMARK    4  A    between atoms: C_22  and  C_24 
REMARK    5  A    between atoms: C_25  and  O_29 
ROOT
HETATM    1  C   UNK N   1      28.571  18.278   9.386  0.00  0.00     0.103 A 
HETATM    2  C   UNK N   1      31.865  16.527   6.847  0.00  0.00    -0.009 A 
HETATM    3  C   UNK N   1      30.057  17.667   7.889  0.00  0.00     0.021 A 
HETATM    4  C   UNK N   1      30.461  17.256   9.102  0.00  0.00     0.116 A 
HETATM    5  C   UNK N   1      30.733  17.322   6.748  0.00  0.00     0.029 A 
HETATM    6  C   UNK N   1      32.294  16.116   8.144  0.00  0.00     0.102 A 
HETATM    7  C   UNK N   1      28.877  18.325   8.023  0.00  0.00     0.004 A 
HETATM    8  N   UNK N   1      29.576  17.633  10.052  0.00  0.00    -0.351 N 
HETATM    9  N   UNK N   1      31.575  16.493   9.263  0.00  0.00    -0.351 N 
ATOM     10  HN  UNK N   1      31.876  16.205  10.194  1.00  0.00     0.166 HD
HETATM   11  H   UNK N   1      29.643  17.476  11.021  0.00  0.00     0.166 HD
ENDROOT
BRANCH   7  12
HETATM   12  C   UNK N   1      28.098  18.768   6.849  0.00  0.00    -0.024 A 
HETATM   13  C   UNK N   1      27.923  17.942   5.735  0.00  0.00     0.013 A 
HETATM   14  C   UNK N   1      27.419  18.489   4.543  0.00  0.00     0.008 A 
HETATM   15  C   UNK N   1      27.084  19.852   4.478  0.00  0.00    -0.048 A 
HETATM   16  C   UNK N   1      27.213  20.657   5.602  0.00  0.00     0.008 A 
HETATM   17  C   UNK N   1      27.727  20.121   6.768  0.00  0.00     0.013 A 
BRANCH  15  18
HETATM   18  C   UNK N   1      26.583  20.469   3.220  0.00  0.00     0.148 C 
BRANCH  18  19
HETATM   19  C   UNK N   1      25.101  20.326   3.074  0.00  0.00     0.143 C 
HETATM   20  O   UNK N   1      24.436  19.763   3.930  0.00  0.00    -0.650 OA
BRANCH  19  21
HETATM   21  O   UNK N   1      24.495  20.840   1.990  0.00  0.00    -0.776 OA
HETATM   22  H   UNK N   1      23.647  21.231   2.067  0.00  0.00     0.167 HD
ENDBRANCH  19  21
ENDBRANCH  18  19
ENDBRANCH  15  18
ENDBRANCH   7  12
BRANCH   2  23
HETATM   23  C   UNK N   1      32.512  16.127   5.574  0.00  0.00    -0.024 A 
HETATM   24  C   UNK N   1      32.323  16.940   4.435  0.00  0.00     0.013 A 
HETATM   25  C   UNK N   1      32.893  16.613   3.211  0.00  0.00     0.013 A 
HETATM   26  C   UNK N   1      33.665  15.463   3.100  0.00  0.00    -0.026 A 
HETATM   27  C   UNK N   1      33.862  14.631   4.229  0.00  0.00    -0.025 A 
HETATM   28  C   UNK N   1      34.248  15.135   1.875  0.00  0.00     0.012 A 
HETATM   29  C   UNK N   1      34.640  13.479   4.106  0.00  0.00     0.012 A 
HETATM   30  C   UNK N   1      33.283  14.964   5.461  0.00  0.00     0.024 A 
HETATM   31  C   UNK N   1      35.223  13.156   2.876  0.00  0.00     0.001 A 
HETATM   32  C   UNK N   1      35.027  13.983   1.764  0.00  0.00     0.001 A 
ENDBRANCH   2  23
TORSDOF 5
ENDMDL
