MODEL 1
REMARK VINA RESULT:      -7.2      0.000      0.000
REMARK  5 active torsions:
REMARK  status: ('A' for Active; 'I' for Inactive)
REMARK    1  A    between atoms: C_4  and  C_5 
REMARK    2  A    between atoms: C_6  and  O_7 
REMARK    3  A    between atoms: C_8  and  N_9 
REMARK    4  A    between atoms: N_18  and  C_19 
REMARK    5  A    between atoms: C_19  and  C_20 
ROOT
HETATM    1  O   UNK N   1      24.429  15.089   6.963  0.00  0.00    -0.266 OA
HETATM    2  C   UNK N   1      23.214  14.983   6.860  0.00  0.00     0.266 C 
HETATM    3  C   UNK N   1      22.362  15.928   6.144  0.00  0.00     0.076 C 
HETATM    4  C   UNK N   1      22.812  16.741   5.165  0.00  0.00     0.039 C 
HETATM    5  S   UNK N   1      20.624  15.626   6.504  0.00  0.00    -0.055 SA
HETATM    6  C   UNK N   1      21.178  13.952   6.812  0.00  0.00     0.149 C 
HETATM    7  S   UNK N   1      20.613  12.905   5.996  0.00  0.00    -0.052 SA
HETATM    8  N   UNK N   1      22.537  13.881   7.243  0.00  0.00    -0.294 N 
ENDROOT
BRANCH   4   9
HETATM    9  C   UNK N   1      21.920  17.427   4.187  0.00  0.00     0.001 A 
HETATM   10  C   UNK N   1      21.513  16.816   2.967  0.00  0.00     0.109 A 
HETATM   11  C   UNK N   1      20.618  17.478   2.101  0.00  0.00     0.136 A 
HETATM   12  C   UNK N   1      20.204  18.779   2.422  0.00  0.00     0.039 A 
HETATM   13  C   UNK N   1      20.662  19.408   3.581  0.00  0.00     0.003 A 
HETATM   14  C   UNK N   1      21.506  18.731   4.464  0.00  0.00     0.014 A 
BRANCH  10  15
HETATM   15  O   UNK N   1      22.001  15.614   2.614  0.00  0.00    -0.357 OA
HETATM   16  H   UNK N   1      22.433  15.047   3.221  0.00  0.00     0.217 HD
ENDBRANCH  10  15
BRANCH  11  17
HETATM   17  N   UNK N   1      20.114  16.845   0.917  0.00  0.00    -0.113 N 
HETATM   18  O   UNK N   1      19.584  15.778   0.990  0.00  0.00    -0.532 OA
HETATM   19  O   UNK N   1      20.326  17.372  -0.272  0.00  0.00    -0.532 OA
ENDBRANCH  11  17
ENDBRANCH   4   9
BRANCH   8  20
HETATM   20  C   UNK N   1      23.219  12.701   7.783  0.00  0.00     0.172 C 
BRANCH  20  21
HETATM   21  C   UNK N   1      23.165  12.475   9.285  0.00  0.00    -0.040 A 
HETATM   22  C   UNK N   1      24.373  12.293   9.968  0.00  0.00     0.009 A 
HETATM   23  C   UNK N   1      24.380  12.026  11.341  0.00  0.00     0.001 A 
HETATM   24  C   UNK N   1      23.176  11.926  12.043  0.00  0.00     0.000 A 
HETATM   25  C   UNK N   1      21.966  12.128  11.379  0.00  0.00     0.001 A 
HETATM   26  C   UNK N   1      21.964  12.418  10.014  0.00  0.00     0.009 A 
ENDBRANCH  20  21
ENDBRANCH   8  20
TORSDOF 5
ENDMDL
MODEL 2
REMARK VINA RESULT:      -7.2     11.188     12.718
REMARK  5 active torsions:
REMARK  status: ('A' for Active; 'I' for Inactive)
REMARK    1  A    between atoms: C_4  and  C_5 
REMARK    2  A    between atoms: C_6  and  O_7 
REMARK    3  A    between atoms: C_8  and  N_9 
REMARK    4  A    between atoms: N_18  and  C_19 
REMARK    5  A    between atoms: C_19  and  C_20 
ROOT
HETATM    1  O   UNK N   1      35.486  17.413  10.454  0.00  0.00    -0.266 OA
HETATM    2  C   UNK N   1      34.906  16.411  10.057  0.00  0.00     0.266 C 
HETATM    3  C   UNK N   1      33.746  16.428   9.172  0.00  0.00     0.076 C 
HETATM    4  C   UNK N   1      33.456  17.454   8.344  0.00  0.00     0.039 C 
HETATM    5  S   UNK N   1      32.973  14.803   9.094  0.00  0.00    -0.055 SA
HETATM    6  C   UNK N   1      34.615  14.217   9.501  0.00  0.00     0.149 C 
HETATM    7  S   UNK N   1      35.258  13.337   8.556  0.00  0.00    -0.052 SA
HETATM    8  N   UNK N   1      35.380  15.163  10.248  0.00  0.00    -0.294 N 
ENDROOT
BRANCH   4   9
HETATM    9  C   UNK N   1      32.519  17.345   7.190  0.00  0.00     0.001 A 
HETATM   10  C   UNK N   1      32.974  17.232   5.845  0.00  0.00     0.109 A 
HETATM   11  C   UNK N   1      32.052  17.068   4.791  0.00  0.00     0.136 A 
HETATM   12  C   UNK N   1      30.681  17.102   5.081  0.00  0.00     0.039 A 
HETATM   13  C   UNK N   1      30.232  17.287   6.389  0.00  0.00     0.003 A 
HETATM   14  C   UNK N   1      31.146  17.397   7.439  0.00  0.00     0.014 A 
BRANCH  10  15
HETATM   15  O   UNK N   1      34.286  17.311   5.564  0.00  0.00    -0.357 OA
HETATM   16  H   UNK N   1      34.899  16.649   5.820  0.00  0.00     0.217 HD
ENDBRANCH  10  15
BRANCH  11  17
HETATM   17  N   UNK N   1      32.488  16.852   3.442  0.00  0.00    -0.113 N 
HETATM   18  O   UNK N   1      31.849  17.286   2.532  0.00  0.00    -0.532 OA
HETATM   19  O   UNK N   1      33.526  16.084   3.183  0.00  0.00    -0.532 OA
ENDBRANCH  11  17
ENDBRANCH   4   9
BRANCH   8  20
HETATM   20  C   UNK N   1      36.659  14.914  10.918  0.00  0.00     0.172 C 
BRANCH  20  21
HETATM   21  C   UNK N   1      36.660  13.990  12.125  0.00  0.00    -0.040 A 
HETATM   22  C   UNK N   1      36.181  14.494  13.340  0.00  0.00     0.009 A 
HETATM   23  C   UNK N   1      36.210  13.708  14.497  0.00  0.00     0.001 A 
HETATM   24  C   UNK N   1      36.730  12.412  14.451  0.00  0.00     0.000 A 
HETATM   25  C   UNK N   1      37.188  11.889  13.243  0.00  0.00     0.001 A 
HETATM   26  C   UNK N   1      37.136  12.668  12.086  0.00  0.00     0.009 A 
ENDBRANCH  20  21
ENDBRANCH   8  20
TORSDOF 5
ENDMDL
MODEL 3
REMARK VINA RESULT:      -7.0     10.935     12.514
REMARK  5 active torsions:
REMARK  status: ('A' for Active; 'I' for Inactive)
REMARK    1  A    between atoms: C_4  and  C_5 
REMARK    2  A    between atoms: C_6  and  O_7 
REMARK    3  A    between atoms: C_8  and  N_9 
REMARK    4  A    between atoms: N_18  and  C_19 
REMARK    5  A    between atoms: C_19  and  C_20 
ROOT
HETATM    1  O   UNK N   1      35.392  17.178  10.496  0.00  0.00    -0.266 OA
HETATM    2  C   UNK N   1      35.010  16.211   9.850  0.00  0.00     0.266 C 
HETATM    3  C   UNK N   1      33.968  16.263   8.829  0.00  0.00     0.076 C 
HETATM    4  C   UNK N   1      33.632  17.389   8.166  0.00  0.00     0.039 C 
HETATM    5  S   UNK N   1      33.451  14.604   8.355  0.00  0.00    -0.055 SA
HETATM    6  C   UNK N   1      35.102  14.149   8.875  0.00  0.00     0.149 C 
HETATM    7  S   UNK N   1      35.969  13.555   7.887  0.00  0.00    -0.052 SA
HETATM    8  N   UNK N   1      35.633  15.015   9.879  0.00  0.00    -0.294 N 
ENDROOT
BRANCH   4   9
HETATM    9  C   UNK N   1      32.858  17.397   6.892  0.00  0.00     0.001 A 
HETATM   10  C   UNK N   1      31.439  17.281   6.860  0.00  0.00     0.109 A 
HETATM   11  C   UNK N   1      30.744  17.356   5.635  0.00  0.00     0.136 A 
HETATM   12  C   UNK N   1      31.480  17.462   4.446  0.00  0.00     0.039 A 
HETATM   13  C   UNK N   1      32.874  17.500   4.471  0.00  0.00     0.003 A 
HETATM   14  C   UNK N   1      33.559  17.479   5.688  0.00  0.00     0.014 A 
BRANCH  10  15
HETATM   15  O   UNK N   1      30.750  17.069   7.994  0.00  0.00    -0.357 OA
HETATM   16  H   UNK N   1      30.214  17.728   8.391  0.00  0.00     0.217 HD
ENDBRANCH  10  15
BRANCH  11  17
HETATM   17  N   UNK N   1      29.311  17.342   5.584  0.00  0.00    -0.113 N 
HETATM   18  O   UNK N   1      28.720  18.290   5.166  0.00  0.00    -0.532 OA
HETATM   19  O   UNK N   1      28.628  16.339   6.098  0.00  0.00    -0.532 OA
ENDBRANCH  11  17
ENDBRANCH   4   9
BRANCH   8  20
HETATM   20  C   UNK N   1      36.850  14.793  10.665  0.00  0.00     0.172 C 
BRANCH  20  21
HETATM   21  C   UNK N   1      36.745  13.919  11.904  0.00  0.00    -0.040 A 
HETATM   22  C   UNK N   1      36.098  14.445  13.028  0.00  0.00     0.009 A 
HETATM   23  C   UNK N   1      36.020  13.707  14.214  0.00  0.00     0.001 A 
HETATM   24  C   UNK N   1      36.601  12.439  14.290  0.00  0.00     0.000 A 
HETATM   25  C   UNK N   1      37.229  11.893  13.171  0.00  0.00     0.001 A 
HETATM   26  C   UNK N   1      37.284  12.623  11.982  0.00  0.00     0.009 A 
ENDBRANCH  20  21
ENDBRANCH   8  20
TORSDOF 5
ENDMDL
MODEL 4
REMARK VINA RESULT:      -7.0      8.079     11.532
REMARK  5 active torsions:
REMARK  status: ('A' for Active; 'I' for Inactive)
REMARK    1  A    between atoms: C_4  and  C_5 
REMARK    2  A    between atoms: C_6  and  O_7 
REMARK    3  A    between atoms: C_8  and  N_9 
REMARK    4  A    between atoms: N_18  and  C_19 
REMARK    5  A    between atoms: C_19  and  C_20 
ROOT
HETATM    1  O   UNK N   1      27.473  17.332   6.695  0.00  0.00    -0.266 OA
HETATM    2  C   UNK N   1      28.375  17.295   5.870  0.00  0.00     0.266 C 
HETATM    3  C   UNK N   1      29.796  17.265   6.203  0.00  0.00     0.076 C 
HETATM    4  C   UNK N   1      30.273  16.830   7.389  0.00  0.00     0.039 C 
HETATM    5  S   UNK N   1      30.806  17.560   4.742  0.00  0.00    -0.055 SA
HETATM    6  C   UNK N   1      29.396  16.886   3.869  0.00  0.00     0.149 C 
HETATM    7  S   UNK N   1      29.608  15.692   3.087  0.00  0.00    -0.052 SA
HETATM    8  N   UNK N   1      28.160  17.094   4.553  0.00  0.00    -0.294 N 
ENDROOT
BRANCH   4   9
HETATM    9  C   UNK N   1      31.695  16.445   7.615  0.00  0.00     0.001 A 
HETATM   10  C   UNK N   1      32.659  17.356   8.133  0.00  0.00     0.109 A 
HETATM   11  C   UNK N   1      33.979  16.930   8.390  0.00  0.00     0.136 A 
HETATM   12  C   UNK N   1      34.345  15.620   8.048  0.00  0.00     0.039 A 
HETATM   13  C   UNK N   1      33.420  14.749   7.470  0.00  0.00     0.003 A 
HETATM   14  C   UNK N   1      32.100  15.156   7.265  0.00  0.00     0.014 A 
BRANCH  10  15
HETATM   15  O   UNK N   1      32.329  18.640   8.356  0.00  0.00    -0.357 OA
HETATM   16  H   UNK N   1      32.689  19.139   9.062  0.00  0.00     0.217 HD
ENDBRANCH  10  15
BRANCH  11  17
HETATM   17  N   UNK N   1      34.941  17.798   9.004  0.00  0.00    -0.113 N 
HETATM   18  O   UNK N   1      35.441  17.494  10.044  0.00  0.00    -0.532 OA
HETATM   19  O   UNK N   1      35.202  18.984   8.493  0.00  0.00    -0.532 OA
ENDBRANCH  11  17
ENDBRANCH   4   9
BRANCH   8  20
HETATM   20  C   UNK N   1      26.816  16.866   4.014  0.00  0.00     0.172 C 
BRANCH  20  21
HETATM   21  C   UNK N   1      25.923  18.077   3.797  0.00  0.00    -0.040 A 
HETATM   22  C   UNK N   1      24.548  17.928   4.009  0.00  0.00     0.009 A 
HETATM   23  C   UNK N   1      23.672  18.992   3.772  0.00  0.00     0.001 A 
HETATM   24  C   UNK N   1      24.164  20.215   3.306  0.00  0.00     0.000 A 
HETATM   25  C   UNK N   1      25.534  20.384   3.112  0.00  0.00     0.001 A 
HETATM   26  C   UNK N   1      26.408  19.327   3.373  0.00  0.00     0.009 A 
ENDBRANCH  20  21
ENDBRANCH   8  20
TORSDOF 5
ENDMDL
MODEL 5
REMARK VINA RESULT:      -6.9     13.342     15.110
REMARK  5 active torsions:
REMARK  status: ('A' for Active; 'I' for Inactive)
REMARK    1  A    between atoms: C_4  and  C_5 
REMARK    2  A    between atoms: C_6  and  O_7 
REMARK    3  A    between atoms: C_8  and  N_9 
REMARK    4  A    between atoms: N_18  and  C_19 
REMARK    5  A    between atoms: C_19  and  C_20 
ROOT
HETATM    1  O   UNK N   1      36.737  14.921  13.967  0.00  0.00    -0.266 OA
HETATM    2  C   UNK N   1      36.305  14.017  13.265  0.00  0.00     0.266 C 
HETATM    3  C   UNK N   1      35.712  14.210  11.945  0.00  0.00     0.076 C 
HETATM    4  C   UNK N   1      35.967  15.282  11.165  0.00  0.00     0.039 C 
HETATM    5  S   UNK N   1      34.891  12.710  11.383  0.00  0.00    -0.055 SA
HETATM    6  C   UNK N   1      36.066  11.895  12.459  0.00  0.00     0.149 C 
HETATM    7  S   UNK N   1      36.976  10.953  11.855  0.00  0.00    -0.052 SA
HETATM    8  N   UNK N   1      36.487  12.712  13.552  0.00  0.00    -0.294 N 
ENDROOT
BRANCH   4   9
HETATM    9  C   UNK N   1      35.682  15.325   9.702  0.00  0.00     0.001 A 
HETATM   10  C   UNK N   1      34.826  16.302   9.120  0.00  0.00     0.109 A 
HETATM   11  C   UNK N   1      34.635  16.343   7.723  0.00  0.00     0.136 A 
HETATM   12  C   UNK N   1      35.236  15.354   6.930  0.00  0.00     0.039 A 
HETATM   13  C   UNK N   1      36.015  14.351   7.508  0.00  0.00     0.003 A 
HETATM   14  C   UNK N   1      36.246  14.344   8.885  0.00  0.00     0.014 A 
BRANCH  10  15
HETATM   15  O   UNK N   1      34.167  17.178   9.898  0.00  0.00    -0.357 OA
HETATM   16  H   UNK N   1      34.431  18.072   9.988  0.00  0.00     0.217 HD
ENDBRANCH  10  15
BRANCH  11  17
HETATM   17  N   UNK N   1      33.859  17.376   7.102  0.00  0.00    -0.113 N 
HETATM   18  O   UNK N   1      34.290  17.959   6.155  0.00  0.00    -0.532 OA
HETATM   19  O   UNK N   1      32.718  17.772   7.630  0.00  0.00    -0.532 OA
ENDBRANCH  11  17
ENDBRANCH   4   9
BRANCH   8  20
HETATM   20  C   UNK N   1      37.259  12.275  14.719  0.00  0.00     0.172 C 
BRANCH  20  21
HETATM   21  C   UNK N   1      36.496  11.929  15.986  0.00  0.00    -0.040 A 
HETATM   22  C   UNK N   1      35.728  12.933  16.587  0.00  0.00     0.009 A 
HETATM   23  C   UNK N   1      35.048  12.688  17.786  0.00  0.00     0.001 A 
HETATM   24  C   UNK N   1      35.141  11.437  18.401  0.00  0.00     0.000 A 
HETATM   25  C   UNK N   1      35.884  10.420  17.801  0.00  0.00     0.001 A 
HETATM   26  C   UNK N   1      36.541  10.662  16.593  0.00  0.00     0.009 A 
ENDBRANCH  20  21
ENDBRANCH   8  20
TORSDOF 5
ENDMDL
MODEL 6
REMARK VINA RESULT:      -6.9     11.738     15.677
REMARK  5 active torsions:
REMARK  status: ('A' for Active; 'I' for Inactive)
REMARK    1  A    between atoms: C_4  and  C_5 
REMARK    2  A    between atoms: C_6  and  O_7 
REMARK    3  A    between atoms: C_8  and  N_9 
REMARK    4  A    between atoms: N_18  and  C_19 
REMARK    5  A    between atoms: C_19  and  C_20 
ROOT
HETATM    1  O   UNK N   1      35.360  17.355  10.278  0.00  0.00    -0.266 OA
HETATM    2  C   UNK N   1      35.115  16.300   9.707  0.00  0.00     0.266 C 
HETATM    3  C   UNK N   1      35.705  15.014  10.065  0.00  0.00     0.076 C 
HETATM    4  C   UNK N   1      36.207  14.740  11.288  0.00  0.00     0.039 C 
HETATM    5  S   UNK N   1      35.372  13.779   8.797  0.00  0.00    -0.055 SA
HETATM    6  C   UNK N   1      33.939  14.796   8.457  0.00  0.00     0.149 C 
HETATM    7  S   UNK N   1      32.641  14.182   8.602  0.00  0.00    -0.052 SA
HETATM    8  N   UNK N   1      34.132  16.170   8.793  0.00  0.00    -0.294 N 
ENDROOT
BRANCH   4   9
HETATM    9  C   UNK N   1      36.466  13.358  11.783  0.00  0.00     0.001 A 
HETATM   10  C   UNK N   1      35.564  12.678  12.651  0.00  0.00     0.109 A 
HETATM   11  C   UNK N   1      35.820  11.347  13.044  0.00  0.00     0.136 A 
HETATM   12  C   UNK N   1      37.015  10.739  12.634  0.00  0.00     0.039 A 
HETATM   13  C   UNK N   1      37.934  11.431  11.846  0.00  0.00     0.003 A 
HETATM   14  C   UNK N   1      37.656  12.729  11.413  0.00  0.00     0.014 A 
BRANCH  10  15
HETATM   15  O   UNK N   1      34.476  13.306  13.128  0.00  0.00    -0.357 OA
HETATM   16  H   UNK N   1      34.474  13.761  13.947  0.00  0.00     0.217 HD
ENDBRANCH  10  15
BRANCH  11  17
HETATM   17  N   UNK N   1      34.880  10.606  13.835  0.00  0.00    -0.113 N 
HETATM   18  O   UNK N   1      35.266   9.917  14.729  0.00  0.00    -0.532 OA
HETATM   19  O   UNK N   1      33.601  10.586  13.519  0.00  0.00    -0.532 OA
ENDBRANCH  11  17
ENDBRANCH   4   9
BRANCH   8  20
HETATM   20  C   UNK N   1      33.249  17.285   8.439  0.00  0.00     0.172 C 
BRANCH  20  21
HETATM   21  C   UNK N   1      32.744  17.365   7.008  0.00  0.00    -0.040 A 
HETATM   22  C   UNK N   1      31.372  17.205   6.784  0.00  0.00     0.009 A 
HETATM   23  C   UNK N   1      30.858  17.213   5.482  0.00  0.00     0.001 A 
HETATM   24  C   UNK N   1      31.716  17.369   4.390  0.00  0.00     0.000 A 
HETATM   25  C   UNK N   1      33.083  17.553   4.600  0.00  0.00     0.001 A 
HETATM   26  C   UNK N   1      33.588  17.568   5.901  0.00  0.00     0.009 A 
ENDBRANCH  20  21
ENDBRANCH   8  20
TORSDOF 5
ENDMDL
MODEL 7
REMARK VINA RESULT:      -6.6      7.352     10.414
REMARK  5 active torsions:
REMARK  status: ('A' for Active; 'I' for Inactive)
REMARK    1  A    between atoms: C_4  and  C_5 
REMARK    2  A    between atoms: C_6  and  O_7 
REMARK    3  A    between atoms: C_8  and  N_9 
REMARK    4  A    between atoms: N_18  and  C_19 
REMARK    5  A    between atoms: C_19  and  C_20 
ROOT
HETATM    1  O   UNK N   1      26.877  16.114   7.521  0.00  0.00    -0.266 OA
HETATM    2  C   UNK N   1      27.331  16.627   6.507  0.00  0.00     0.266 C 
HETATM    3  C   UNK N   1      28.674  17.188   6.398  0.00  0.00     0.076 C 
HETATM    4  C   UNK N   1      29.699  16.825   7.197  0.00  0.00     0.039 C 
HETATM    5  S   UNK N   1      28.849  18.147   4.884  0.00  0.00    -0.055 SA
HETATM    6  C   UNK N   1      27.558  17.065   4.278  0.00  0.00     0.149 C 
HETATM    7  S   UNK N   1      27.864  16.245   3.131  0.00  0.00    -0.052 SA
HETATM    8  N   UNK N   1      26.706  16.574   5.313  0.00  0.00    -0.294 N 
ENDROOT
BRANCH   4   9
HETATM    9  C   UNK N   1      31.131  17.093   6.877  0.00  0.00     0.001 A 
HETATM   10  C   UNK N   1      32.048  17.593   7.845  0.00  0.00     0.109 A 
HETATM   11  C   UNK N   1      33.407  17.772   7.514  0.00  0.00     0.136 A 
HETATM   12  C   UNK N   1      33.820  17.530   6.196  0.00  0.00     0.039 A 
HETATM   13  C   UNK N   1      32.906  17.112   5.228  0.00  0.00     0.003 A 
HETATM   14  C   UNK N   1      31.571  16.884   5.569  0.00  0.00     0.014 A 
BRANCH  10  15
HETATM   15  O   UNK N   1      31.622  17.926   9.075  0.00  0.00    -0.357 OA
HETATM   16  H   UNK N   1      31.050  18.651   9.232  0.00  0.00     0.217 HD
ENDBRANCH  10  15
BRANCH  11  17
HETATM   17  N   UNK N   1      34.370  18.178   8.496  0.00  0.00    -0.113 N 
HETATM   18  O   UNK N   1      35.041  19.147   8.309  0.00  0.00    -0.532 OA
HETATM   19  O   UNK N   1      34.607  17.433   9.557  0.00  0.00    -0.532 OA
ENDBRANCH  11  17
ENDBRANCH   4   9
BRANCH   8  20
HETATM   20  C   UNK N   1      25.441  15.856   5.132  0.00  0.00     0.172 C 
BRANCH  20  21
HETATM   21  C   UNK N   1      24.231  16.655   4.675  0.00  0.00    -0.040 A 
HETATM   22  C   UNK N   1      23.098  15.950   4.252  0.00  0.00     0.009 A 
HETATM   23  C   UNK N   1      21.975  16.632   3.769  0.00  0.00     0.001 A 
HETATM   24  C   UNK N   1      21.981  18.027   3.693  0.00  0.00     0.000 A 
HETATM   25  C   UNK N   1      23.095  18.743   4.133  0.00  0.00     0.001 A 
HETATM   26  C   UNK N   1      24.203  18.060   4.636  0.00  0.00     0.009 A 
ENDBRANCH  20  21
ENDBRANCH   8  20
TORSDOF 5
ENDMDL
MODEL 8
REMARK VINA RESULT:      -6.6      2.036      2.513
REMARK  5 active torsions:
REMARK  status: ('A' for Active; 'I' for Inactive)
REMARK    1  A    between atoms: C_4  and  C_5 
REMARK    2  A    between atoms: C_6  and  O_7 
REMARK    3  A    between atoms: C_8  and  N_9 
REMARK    4  A    between atoms: N_18  and  C_19 
REMARK    5  A    between atoms: C_19  and  C_20 
ROOT
HETATM    1  O   UNK N   1      23.916  14.610   6.529  0.00  0.00    -0.266 OA
HETATM    2  C   UNK N   1      22.706  14.624   6.346  0.00  0.00     0.266 C 
HETATM    3  C   UNK N   1      21.997  15.666   5.610  0.00  0.00     0.076 C 
HETATM    4  C   UNK N   1      22.585  16.458   4.689  0.00  0.00     0.039 C 
HETATM    5  S   UNK N   1      20.218  15.523   5.848  0.00  0.00    -0.055 SA
HETATM    6  C   UNK N   1      20.590  13.796   6.135  0.00  0.00     0.149 C 
HETATM    7  S   UNK N   1      19.984  12.831   5.250  0.00  0.00    -0.052 SA
HETATM    8  N   UNK N   1      21.905  13.583   6.649  0.00  0.00    -0.294 N 
ENDROOT
BRANCH   4   9
HETATM    9  C   UNK N   1      21.829  17.253   3.679  0.00  0.00     0.001 A 
HETATM   10  C   UNK N   1      21.964  18.666   3.564  0.00  0.00     0.109 A 
HETATM   11  C   UNK N   1      21.276  19.368   2.553  0.00  0.00     0.136 A 
HETATM   12  C   UNK N   1      20.394  18.664   1.720  0.00  0.00     0.039 A 
HETATM   13  C   UNK N   1      20.205  17.291   1.881  0.00  0.00     0.003 A 
HETATM   14  C   UNK N   1      20.926  16.588   2.848  0.00  0.00     0.014 A 
BRANCH  10  15
HETATM   15  O   UNK N   1      22.725  19.348   4.436  0.00  0.00    -0.357 OA
HETATM   16  H   UNK N   1      23.658  19.263   4.467  0.00  0.00     0.217 HD
ENDBRANCH  10  15
BRANCH  11  17
HETATM   17  N   UNK N   1      21.471  20.775   2.352  0.00  0.00    -0.113 N 
HETATM   18  O   UNK N   1      20.739  21.382   1.631  0.00  0.00    -0.532 OA
HETATM   19  O   UNK N   1      22.517  21.390   2.864  0.00  0.00    -0.532 OA
ENDBRANCH  11  17
ENDBRANCH   4   9
BRANCH   8  20
HETATM   20  C   UNK N   1      22.435  12.329   7.191  0.00  0.00     0.172 C 
BRANCH  20  21
HETATM   21  C   UNK N   1      22.661  12.243   8.692  0.00  0.00    -0.040 A 
HETATM   22  C   UNK N   1      21.563  12.445   9.536  0.00  0.00     0.009 A 
HETATM   23  C   UNK N   1      21.723  12.433  10.926  0.00  0.00     0.001 A 
HETATM   24  C   UNK N   1      22.987  12.232  11.485  0.00  0.00     0.000 A 
HETATM   25  C   UNK N   1      24.086  12.006  10.656  0.00  0.00     0.001 A 
HETATM   26  C   UNK N   1      23.918  11.995   9.270  0.00  0.00     0.009 A 
ENDBRANCH  20  21
ENDBRANCH   8  20
TORSDOF 5
ENDMDL
MODEL 9
REMARK VINA RESULT:      -6.4     12.459     15.602
REMARK  5 active torsions:
REMARK  status: ('A' for Active; 'I' for Inactive)
REMARK    1  A    between atoms: C_4  and  C_5 
REMARK    2  A    between atoms: C_6  and  O_7 
REMARK    3  A    between atoms: C_8  and  N_9 
REMARK    4  A    between atoms: N_18  and  C_19 
REMARK    5  A    between atoms: C_19  and  C_20 
ROOT
HETATM    1  O   UNK N   1      35.989  13.237   7.365  0.00  0.00    -0.266 OA
HETATM    2  C   UNK N   1      35.248  13.950   8.028  0.00  0.00     0.266 C 
HETATM    3  C   UNK N   1      34.928  13.724   9.434  0.00  0.00     0.076 C 
HETATM    4  C   UNK N   1      35.717  13.019  10.272  0.00  0.00     0.039 C 
HETATM    5  S   UNK N   1      33.555  14.765   9.956  0.00  0.00    -0.055 SA
HETATM    6  C   UNK N   1      34.120  15.838   8.639  0.00  0.00     0.149 C 
HETATM    7  S   UNK N   1      34.537  17.171   9.002  0.00  0.00    -0.052 SA
HETATM    8  N   UNK N   1      34.778  15.134   7.585  0.00  0.00    -0.294 N 
ENDROOT
BRANCH   4   9
HETATM    9  C   UNK N   1      35.611  13.087  11.758  0.00  0.00     0.001 A 
HETATM   10  C   UNK N   1      34.873  12.133  12.514  0.00  0.00     0.109 A 
HETATM   11  C   UNK N   1      34.852  12.200  13.923  0.00  0.00     0.136 A 
HETATM   12  C   UNK N   1      35.500  13.270  14.558  0.00  0.00     0.039 A 
HETATM   13  C   UNK N   1      36.160  14.247  13.813  0.00  0.00     0.003 A 
HETATM   14  C   UNK N   1      36.225  14.150  12.422  0.00  0.00     0.014 A 
BRANCH  10  15
HETATM   15  O   UNK N   1      34.164  11.175  11.892  0.00  0.00    -0.357 OA
HETATM   16  H   UNK N   1      33.800  11.291  11.036  0.00  0.00     0.217 HD
ENDBRANCH  10  15
BRANCH  11  17
HETATM   17  N   UNK N   1      34.200  11.196  14.712  0.00  0.00    -0.113 N 
HETATM   18  O   UNK N   1      33.089  10.854  14.443  0.00  0.00    -0.532 OA
HETATM   19  O   UNK N   1      34.768  10.720  15.802  0.00  0.00    -0.532 OA
ENDBRANCH  11  17
ENDBRANCH   4   9
BRANCH   8  20
HETATM   20  C   UNK N   1      35.157  15.679   6.278  0.00  0.00     0.172 C 
BRANCH  20  21
HETATM   21  C   UNK N   1      34.041  16.063   5.320  0.00  0.00    -0.040 A 
HETATM   22  C   UNK N   1      33.626  15.115   4.378  0.00  0.00     0.009 A 
HETATM   23  C   UNK N   1      32.643  15.432   3.435  0.00  0.00     0.001 A 
HETATM   24  C   UNK N   1      32.073  16.708   3.418  0.00  0.00     0.000 A 
HETATM   25  C   UNK N   1      32.461  17.655   4.365  0.00  0.00     0.001 A 
HETATM   26  C   UNK N   1      33.425  17.327   5.319  0.00  0.00     0.009 A 
ENDBRANCH  20  21
ENDBRANCH   8  20
TORSDOF 5
ENDMDL
