REMARK  5 active torsions:
REMARK  status: ('A' for Active; 'I' for Inactive)
REMARK    1  A    between atoms: C_4  and  C_5 
REMARK    2  A    between atoms: C_6  and  O_7 
REMARK    3  A    between atoms: C_8  and  N_9 
REMARK    4  A    between atoms: N_18  and  C_19 
REMARK    5  A    between atoms: C_19  and  C_20 
ROOT
HETATM    1  O   UNK N   1       0.794   2.233  -0.533  0.00  0.00    -0.266 OA
HETATM    2  C   UNK N   1       0.819   1.115  -0.036  0.00  0.00     0.266 C 
HETATM    3  C   UNK N   1      -0.368   0.363   0.360  0.00  0.00     0.076 C 
HETATM    4  C   UNK N   1      -1.594   0.580  -0.161  0.00  0.00     0.039 C 
HETATM    5  S   UNK N   1       0.081  -1.069   1.355  0.00  0.00    -0.055 SA
HETATM    6  C   UNK N   1       1.631  -0.958   0.467  0.00  0.00     0.149 C 
HETATM    7  S   UNK N   1       2.020  -2.094  -0.333  0.00  0.00    -0.052 SA
HETATM    8  N   UNK N   1       1.940   0.369   0.040  0.00  0.00    -0.294 N 
ENDROOT
BRANCH   4   9
HETATM    9  C   UNK N   1      -2.719  -0.393  -0.057  0.00  0.00     0.001 A 
HETATM   10  C   UNK N   1      -2.538  -1.792  -0.251  0.00  0.00     0.109 A 
HETATM   11  C   UNK N   1      -3.619  -2.682  -0.081  0.00  0.00     0.136 A 
HETATM   12  C   UNK N   1      -4.889  -2.157   0.199  0.00  0.00     0.039 A 
HETATM   13  C   UNK N   1      -5.082  -0.780   0.315  0.00  0.00     0.003 A 
HETATM   14  C   UNK N   1      -4.001   0.096   0.199  0.00  0.00     0.014 A 
BRANCH  10  15
HETATM   15  O   UNK N   1      -1.342  -2.276  -0.627  0.00  0.00    -0.357 OA
HETATM   16  H   UNK N   1      -1.217  -3.167  -0.889  0.00  0.00     0.217 HD
ENDBRANCH  10  15
BRANCH  11  17
HETATM   17  N   UNK N   1      -3.442  -4.102  -0.172  0.00  0.00    -0.113 N 
HETATM   18  O   UNK N   1      -4.377  -4.830  -0.034  0.00  0.00    -0.532 OA
HETATM   19  O   UNK N   1      -2.239  -4.625  -0.296  0.00  0.00    -0.532 OA
ENDBRANCH  11  17
ENDBRANCH   4   9
BRANCH   8  20
HETATM   20  C   UNK N   1       3.218   0.832  -0.508  0.00  0.00     0.172 C 
BRANCH  20  21
HETATM   21  C   UNK N   1       4.466   0.032  -0.172  0.00  0.00    -0.040 A 
HETATM   22  C   UNK N   1       5.631   0.291  -0.903  0.00  0.00     0.009 A 
HETATM   23  C   UNK N   1       6.794  -0.453  -0.675  0.00  0.00     0.001 A 
HETATM   24  C   UNK N   1       6.798  -1.473   0.280  0.00  0.00     0.000 A 
HETATM   25  C   UNK N   1       5.651  -1.726   1.032  0.00  0.00     0.001 A 
HETATM   26  C   UNK N   1       4.500  -0.966   0.818  0.00  0.00     0.009 A 
ENDBRANCH  20  21
ENDBRANCH   8  20
TORSDOF 5
