MODEL 1
REMARK VINA RESULT:      -7.2      0.000      0.000
REMARK  10 active torsions:
REMARK  status: ('A' for Active; 'I' for Inactive)
REMARK    1  A    between atoms: C_2  and  C_3 
REMARK       I    between atoms: C_2  and  N_22 
REMARK    2  A    between atoms: C_3  and  N_4 
REMARK    3  A    between atoms: C_3  and  C_15 
REMARK    4  A    between atoms: N_4  and  C_5 
REMARK    5  A    between atoms: C_15  and  C_16 
REMARK    6  A    between atoms: N_22  and  C_23 
REMARK    7  A    between atoms: C_23  and  C_24 
REMARK    8  A    between atoms: C_24  and  N_25 
REMARK    9  A    between atoms: N_25  and  C_26 
REMARK   10  A    between atoms: C_31  and  O_32 
ROOT
HETATM    1  C   UNK N   1      35.297  13.195  12.402  0.00  0.00     0.177 C 
ENDROOT
BRANCH   1   2
HETATM    2  C   UNK N   1      36.599  13.750  11.853  0.00  0.00     0.240 C 
HETATM    3  O   UNK N   1      37.588  13.035  11.796  0.00  0.00    -0.271 OA
HETATM    4  N   UNK N   1      36.693  15.039  11.431  0.00  0.00    -0.358 N 
HETATM    5  H   UNK N   1      37.566  15.372  11.123  0.00  0.00     0.162 HD
BRANCH   4   6
HETATM    6  C   UNK N   1      35.562  15.942  11.418  0.00  0.00     0.142 C 
BRANCH   6   7
HETATM    7  C   UNK N   1      35.232  16.498  10.022  0.00  0.00     0.139 C 
BRANCH   7   8
HETATM    8  N   UNK N   1      33.816  16.660   9.763  0.00  0.00    -0.388 N 
HETATM    9  H   UNK N   1      33.191  16.546  10.514  0.00  0.00     0.159 HD
BRANCH   8  10
HETATM   10  C   UNK N   1      33.278  16.976   8.488  0.00  0.00     0.028 A 
HETATM   11  C   UNK N   1      31.905  16.846   8.226  0.00  0.00     0.032 A 
HETATM   12  C   UNK N   1      31.415  17.033   6.935  0.00  0.00     0.039 A 
HETATM   13  C   UNK N   1      32.291  17.363   5.888  0.00  0.00     0.068 A 
HETATM   14  C   UNK N   1      33.653  17.533   6.160  0.00  0.00     0.039 A 
HETATM   15  C   UNK N   1      34.145  17.334   7.452  0.00  0.00     0.032 A 
BRANCH  13  16
HETATM   16  O   UNK N   1      31.852  17.502   4.616  0.00  0.00    -0.356 OA
HETATM   17  C   UNK N   1      32.636  17.226   3.517  0.00  0.00     0.210 C 
ENDBRANCH  13  16
ENDBRANCH   8  10
ENDBRANCH   7   8
ENDBRANCH   6   7
ENDBRANCH   4   6
ENDBRANCH   1   2
BRANCH   1  18
HETATM   18  N   UNK N   1      34.650  12.318  11.441  0.00  0.00    -0.343 N 
HETATM   19  H   UNK N   1      34.295  11.455  11.752  0.00  0.00     0.164 HD
BRANCH  18  20
HETATM   20  C   UNK N   1      34.509  12.661  10.070  0.00  0.00     0.226 A 
HETATM   21  O   UNK N   1      35.523  12.961   9.276  0.00  0.00    -0.277 OA
HETATM   22  C   UNK N   1      35.008  13.298   8.127  0.00  0.00     0.106 A 
HETATM   23  C   UNK N   1      35.655  13.721   6.971  0.00  0.00     0.040 A 
HETATM   24  C   UNK N   1      33.653  13.195   8.211  0.00  0.00     0.069 A 
HETATM   25  C   UNK N   1      34.849  14.038   5.862  0.00  0.00     0.003 A 
HETATM   26  C   UNK N   1      33.440  13.919   5.941  0.00  0.00     0.002 A 
HETATM   27  C   UNK N   1      32.823  13.493   7.136  0.00  0.00     0.032 A 
HETATM   28  N   UNK N   1      33.309  12.797   9.450  0.00  0.00    -0.320 N 
ATOM     29  HN  UNK N   1      32.376  12.636   9.828  1.00  0.00     0.169 HD
ENDBRANCH  18  20
ENDBRANCH   1  18
BRANCH   1  30
HETATM   30  C   UNK N   1      35.533  12.482  13.742  0.00  0.00     0.039 C 
BRANCH  30  31
HETATM   31  C   UNK N   1      34.296  12.304  14.625  0.00  0.00    -0.012 C 
HETATM   32  C   UNK N   1      33.875  10.832  14.745  0.00  0.00     0.005 C 
HETATM   33  C   UNK N   1      34.764   9.989  15.676  0.00  0.00     0.000 C 
HETATM   34  C   UNK N   1      36.005  10.733  16.165  0.00  0.00     0.000 C 
HETATM   35  C   UNK N   1      35.628  12.069  16.811  0.00  0.00     0.000 C 
HETATM   36  C   UNK N   1      34.578  12.869  16.019  0.00  0.00     0.005 C 
ENDBRANCH  30  31
ENDBRANCH   1  30
TORSDOF 10
ENDMDL
MODEL 2
REMARK VINA RESULT:      -7.0      3.496      7.925
REMARK  10 active torsions:
REMARK  status: ('A' for Active; 'I' for Inactive)
REMARK    1  A    between atoms: C_2  and  C_3 
REMARK       I    between atoms: C_2  and  N_22 
REMARK    2  A    between atoms: C_3  and  N_4 
REMARK    3  A    between atoms: C_3  and  C_15 
REMARK    4  A    between atoms: N_4  and  C_5 
REMARK    5  A    between atoms: C_15  and  C_16 
REMARK    6  A    between atoms: N_22  and  C_23 
REMARK    7  A    between atoms: C_23  and  C_24 
REMARK    8  A    between atoms: C_24  and  N_25 
REMARK    9  A    between atoms: N_25  and  C_26 
REMARK   10  A    between atoms: C_31  and  O_32 
ROOT
HETATM    1  C   UNK N   1      32.619  17.490   7.234  0.00  0.00     0.177 C 
ENDROOT
BRANCH   1   2
HETATM    2  C   UNK N   1      31.722  16.514   7.972  0.00  0.00     0.240 C 
HETATM    3  O   UNK N   1      31.936  15.313   7.892  0.00  0.00    -0.271 OA
HETATM    4  N   UNK N   1      30.671  16.946   8.716  0.00  0.00    -0.358 N 
HETATM    5  H   UNK N   1      30.088  16.278   9.144  0.00  0.00     0.162 HD
BRANCH   4   6
HETATM    6  C   UNK N   1      30.372  18.350   8.906  0.00  0.00     0.142 C 
BRANCH   6   7
HETATM    7  C   UNK N   1      28.868  18.649   9.032  0.00  0.00     0.139 C 
BRANCH   7   8
HETATM    8  N   UNK N   1      28.056  18.088   7.971  0.00  0.00    -0.388 N 
HETATM    9  H   UNK N   1      27.677  17.190   8.103  0.00  0.00     0.159 HD
BRANCH   8  10
HETATM   10  C   UNK N   1      27.776  18.759   6.752  0.00  0.00     0.028 A 
HETATM   11  C   UNK N   1      27.758  20.161   6.682  0.00  0.00     0.032 A 
HETATM   12  C   UNK N   1      27.352  20.802   5.513  0.00  0.00     0.039 A 
HETATM   13  C   UNK N   1      26.966  20.048   4.392  0.00  0.00     0.068 A 
HETATM   14  C   UNK N   1      27.025  18.651   4.451  0.00  0.00     0.039 A 
HETATM   15  C   UNK N   1      27.421  18.010   5.628  0.00  0.00     0.032 A 
BRANCH  13  16
HETATM   16  O   UNK N   1      26.520  20.640   3.261  0.00  0.00    -0.356 OA
HETATM   17  C   UNK N   1      25.307  20.339   2.684  0.00  0.00     0.210 C 
ENDBRANCH  13  16
ENDBRANCH   8  10
ENDBRANCH   7   8
ENDBRANCH   6   7
ENDBRANCH   4   6
ENDBRANCH   1   2
BRANCH   1  18
HETATM   18  N   UNK N   1      33.749  17.892   8.053  0.00  0.00    -0.343 N 
HETATM   19  H   UNK N   1      34.025  18.837   8.047  0.00  0.00     0.164 HD
BRANCH  18  20
HETATM   20  C   UNK N   1      34.468  16.975   8.863  0.00  0.00     0.226 A 
HETATM   21  O   UNK N   1      35.099  15.912   8.393  0.00  0.00    -0.277 OA
HETATM   22  C   UNK N   1      35.569  15.271   9.427  0.00  0.00     0.106 A 
HETATM   23  C   UNK N   1      36.284  14.079   9.463  0.00  0.00     0.040 A 
HETATM   24  C   UNK N   1      35.231  15.957  10.553  0.00  0.00     0.069 A 
HETATM   25  C   UNK N   1      36.664  13.596  10.729  0.00  0.00     0.003 A 
HETATM   26  C   UNK N   1      36.327  14.314  11.903  0.00  0.00     0.002 A 
HETATM   27  C   UNK N   1      35.594  15.516  11.821  0.00  0.00     0.032 A 
HETATM   28  N   UNK N   1      34.518  17.048  10.218  0.00  0.00    -0.320 N 
ATOM     29  HN  UNK N   1      34.115  17.756  10.831  1.00  0.00     0.169 HD
ENDBRANCH  18  20
ENDBRANCH   1  18
BRANCH   1  30
HETATM   30  C   UNK N   1      33.079  16.898   5.893  0.00  0.00     0.039 C 
BRANCH  30  31
HETATM   31  C   UNK N   1      32.512  17.571   4.641  0.00  0.00    -0.012 C 
HETATM   32  C   UNK N   1      32.996  16.896   3.349  0.00  0.00     0.005 C 
HETATM   33  C   UNK N   1      32.314  15.553   3.038  0.00  0.00     0.000 C 
HETATM   34  C   UNK N   1      31.413  15.055   4.166  0.00  0.00     0.000 C 
HETATM   35  C   UNK N   1      30.390  16.123   4.566  0.00  0.00     0.000 C 
HETATM   36  C   UNK N   1      30.984  17.538   4.692  0.00  0.00     0.005 C 
ENDBRANCH  30  31
ENDBRANCH   1  30
TORSDOF 10
ENDMDL
MODEL 3
REMARK VINA RESULT:      -6.9     11.052     14.411
REMARK  10 active torsions:
REMARK  status: ('A' for Active; 'I' for Inactive)
REMARK    1  A    between atoms: C_2  and  C_3 
REMARK       I    between atoms: C_2  and  N_22 
REMARK    2  A    between atoms: C_3  and  N_4 
REMARK    3  A    between atoms: C_3  and  C_15 
REMARK    4  A    between atoms: N_4  and  C_5 
REMARK    5  A    between atoms: C_15  and  C_16 
REMARK    6  A    between atoms: N_22  and  C_23 
REMARK    7  A    between atoms: C_23  and  C_24 
REMARK    8  A    between atoms: C_24  and  N_25 
REMARK    9  A    between atoms: N_25  and  C_26 
REMARK   10  A    between atoms: C_31  and  O_32 
ROOT
HETATM    1  C   UNK N   1      21.858  14.211   5.313  0.00  0.00     0.177 C 
ENDROOT
BRANCH   1   2
HETATM    2  C   UNK N   1      21.874  15.471   6.159  0.00  0.00     0.240 C 
HETATM    3  O   UNK N   1      20.823  15.936   6.575  0.00  0.00    -0.271 OA
HETATM    4  N   UNK N   1      23.038  16.104   6.458  0.00  0.00    -0.358 N 
HETATM    5  H   UNK N   1      23.001  16.942   6.973  0.00  0.00     0.162 HD
BRANCH   4   6
HETATM    6  C   UNK N   1      24.332  15.598   6.049  0.00  0.00     0.142 C 
BRANCH   6   7
HETATM    7  C   UNK N   1      25.105  16.555   5.126  0.00  0.00     0.139 C 
BRANCH   7   8
HETATM    8  N   UNK N   1      24.795  17.957   5.324  0.00  0.00    -0.388 N 
HETATM    9  H   UNK N   1      25.110  18.389   6.151  0.00  0.00     0.159 HD
BRANCH   8  10
HETATM   10  C   UNK N   1      24.066  18.743   4.395  0.00  0.00     0.028 A 
HETATM   11  C   UNK N   1      24.692  19.756   3.651  0.00  0.00     0.032 A 
HETATM   12  C   UNK N   1      23.936  20.604   2.844  0.00  0.00     0.039 A 
HETATM   13  C   UNK N   1      22.543  20.444   2.761  0.00  0.00     0.068 A 
HETATM   14  C   UNK N   1      21.927  19.407   3.470  0.00  0.00     0.039 A 
HETATM   15  C   UNK N   1      22.684  18.566   4.289  0.00  0.00     0.032 A 
BRANCH  13  16
HETATM   16  O   UNK N   1      21.778  21.282   2.024  0.00  0.00    -0.356 OA
HETATM   17  C   UNK N   1      20.673  20.863   1.317  0.00  0.00     0.210 C 
ENDBRANCH  13  16
ENDBRANCH   8  10
ENDBRANCH   7   8
ENDBRANCH   6   7
ENDBRANCH   4   6
ENDBRANCH   1   2
BRANCH   1  18
HETATM   18  N   UNK N   1      21.327  13.082   6.057  0.00  0.00    -0.343 N 
HETATM   19  H   UNK N   1      20.639  12.518   5.636  0.00  0.00     0.164 HD
BRANCH  18  20
HETATM   20  C   UNK N   1      21.765  12.759   7.369  0.00  0.00     0.226 A 
HETATM   21  O   UNK N   1      20.966  12.704   8.421  0.00  0.00    -0.277 OA
HETATM   22  C   UNK N   1      21.726  12.463   9.452  0.00  0.00     0.106 A 
HETATM   23  C   UNK N   1      21.368  12.339  10.790  0.00  0.00     0.040 A 
HETATM   24  C   UNK N   1      23.015  12.357   9.027  0.00  0.00     0.069 A 
HETATM   25  C   UNK N   1      22.401  12.087  11.712  0.00  0.00     0.003 A 
HETATM   26  C   UNK N   1      23.742  11.962  11.272  0.00  0.00     0.002 A 
HETATM   27  C   UNK N   1      24.062  12.102   9.906  0.00  0.00     0.032 A 
HETATM   28  N   UNK N   1      23.066  12.552   7.696  0.00  0.00    -0.320 N 
ATOM     29  HN  UNK N   1      23.882  12.545   7.085  1.00  0.00     0.169 HD
ENDBRANCH  18  20
ENDBRANCH   1  18
BRANCH   1  30
HETATM   30  C   UNK N   1      21.077  14.442   4.010  0.00  0.00     0.039 C 
BRANCH  30  31
HETATM   31  C   UNK N   1      21.690  15.455   3.041  0.00  0.00    -0.012 C 
HETATM   32  C   UNK N   1      22.736  14.816   2.116  0.00  0.00     0.005 C 
HETATM   33  C   UNK N   1      22.147  13.961   0.981  0.00  0.00     0.000 C 
HETATM   34  C   UNK N   1      20.636  13.762   1.095  0.00  0.00     0.000 C 
HETATM   35  C   UNK N   1      19.912  15.105   1.218  0.00  0.00     0.000 C 
HETATM   36  C   UNK N   1      20.582  16.088   2.196  0.00  0.00     0.005 C 
ENDBRANCH  30  31
ENDBRANCH   1  30
TORSDOF 10
ENDMDL
MODEL 4
REMARK VINA RESULT:      -6.9      7.294     11.885
REMARK  10 active torsions:
REMARK  status: ('A' for Active; 'I' for Inactive)
REMARK    1  A    between atoms: C_2  and  C_3 
REMARK       I    between atoms: C_2  and  N_22 
REMARK    2  A    between atoms: C_3  and  N_4 
REMARK    3  A    between atoms: C_3  and  C_15 
REMARK    4  A    between atoms: N_4  and  C_5 
REMARK    5  A    between atoms: C_15  and  C_16 
REMARK    6  A    between atoms: N_22  and  C_23 
REMARK    7  A    between atoms: C_23  and  C_24 
REMARK    8  A    between atoms: C_24  and  N_25 
REMARK    9  A    between atoms: N_25  and  C_26 
REMARK   10  A    between atoms: C_31  and  O_32 
ROOT
HETATM    1  C   UNK N   1      27.052  16.724   4.095  0.00  0.00     0.177 C 
ENDROOT
BRANCH   1   2
HETATM    2  C   UNK N   1      26.694  15.261   3.907  0.00  0.00     0.240 C 
HETATM    3  O   UNK N   1      26.952  14.704   2.851  0.00  0.00    -0.271 OA
HETATM    4  N   UNK N   1      26.078  14.554   4.890  0.00  0.00    -0.358 N 
HETATM    5  H   UNK N   1      25.824  13.620   4.712  0.00  0.00     0.162 HD
BRANCH   4   6
HETATM    6  C   UNK N   1      25.778  15.119   6.190  0.00  0.00     0.142 C 
BRANCH   6   7
HETATM    7  C   UNK N   1      24.273  15.186   6.500  0.00  0.00     0.139 C 
BRANCH   7   8
HETATM    8  N   UNK N   1      23.424  15.268   5.329  0.00  0.00    -0.388 N 
HETATM    9  H   UNK N   1      23.413  14.503   4.709  0.00  0.00     0.159 HD
BRANCH   8  10
HETATM   10  C   UNK N   1      22.606  16.387   5.023  0.00  0.00     0.028 A 
HETATM   11  C   UNK N   1      22.255  16.690   3.699  0.00  0.00     0.032 A 
HETATM   12  C   UNK N   1      21.563  17.864   3.406  0.00  0.00     0.039 A 
HETATM   13  C   UNK N   1      21.203  18.747   4.437  0.00  0.00     0.068 A 
HETATM   14  C   UNK N   1      21.517  18.422   5.761  0.00  0.00     0.039 A 
HETATM   15  C   UNK N   1      22.222  17.251   6.052  0.00  0.00     0.032 A 
BRANCH  13  16
HETATM   16  O   UNK N   1      20.575  19.918   4.179  0.00  0.00    -0.356 OA
HETATM   17  C   UNK N   1      20.767  20.633   3.019  0.00  0.00     0.210 C 
ENDBRANCH  13  16
ENDBRANCH   8  10
ENDBRANCH   7   8
ENDBRANCH   6   7
ENDBRANCH   4   6
ENDBRANCH   1   2
BRANCH   1  18
HETATM   18  N   UNK N   1      28.335  17.036   3.488  0.00  0.00    -0.343 N 
HETATM   19  H   UNK N   1      28.367  17.230   2.524  0.00  0.00     0.164 HD
BRANCH  18  20
HETATM   20  C   UNK N   1      29.542  17.073   4.234  0.00  0.00     0.226 A 
HETATM   21  O   UNK N   1      29.596  17.026   5.555  0.00  0.00    -0.277 OA
HETATM   22  C   UNK N   1      30.850  17.165   5.881  0.00  0.00     0.106 A 
HETATM   23  C   UNK N   1      31.423  17.209   7.147  0.00  0.00     0.040 A 
HETATM   24  C   UNK N   1      31.584  17.289   4.741  0.00  0.00     0.069 A 
HETATM   25  C   UNK N   1      32.818  17.381   7.216  0.00  0.00     0.003 A 
HETATM   26  C   UNK N   1      33.587  17.497   6.033  0.00  0.00     0.002 A 
HETATM   27  C   UNK N   1      32.965  17.454   4.768  0.00  0.00     0.032 A 
HETATM   28  N   UNK N   1      30.766  17.242   3.673  0.00  0.00    -0.320 N 
ATOM     29  HN  UNK N   1      31.008  17.315   2.685  1.00  0.00     0.169 HD
ENDBRANCH  18  20
ENDBRANCH   1  18
BRANCH   1  30
HETATM   30  C   UNK N   1      25.937  17.631   3.551  0.00  0.00     0.039 C 
BRANCH  30  31
HETATM   31  C   UNK N   1      25.327  18.608   4.557  0.00  0.00    -0.012 C 
HETATM   32  C   UNK N   1      26.381  19.200   5.505  0.00  0.00     0.005 C 
HETATM   33  C   UNK N   1      27.274  20.280   4.871  0.00  0.00     0.000 C 
HETATM   34  C   UNK N   1      27.063  20.433   3.366  0.00  0.00     0.000 C 
HETATM   35  C   UNK N   1      25.586  20.665   3.037  0.00  0.00     0.000 C 
HETATM   36  C   UNK N   1      24.624  19.740   3.807  0.00  0.00     0.005 C 
ENDBRANCH  30  31
ENDBRANCH   1  30
TORSDOF 10
ENDMDL
MODEL 5
REMARK VINA RESULT:      -6.8     11.245     13.486
REMARK  10 active torsions:
REMARK  status: ('A' for Active; 'I' for Inactive)
REMARK    1  A    between atoms: C_2  and  C_3 
REMARK       I    between atoms: C_2  and  N_22 
REMARK    2  A    between atoms: C_3  and  N_4 
REMARK    3  A    between atoms: C_3  and  C_15 
REMARK    4  A    between atoms: N_4  and  C_5 
REMARK    5  A    between atoms: C_15  and  C_16 
REMARK    6  A    between atoms: N_22  and  C_23 
REMARK    7  A    between atoms: C_23  and  C_24 
REMARK    8  A    between atoms: C_24  and  N_25 
REMARK    9  A    between atoms: N_25  and  C_26 
REMARK   10  A    between atoms: C_31  and  O_32 
ROOT
HETATM    1  C   UNK N   1      21.512  15.155   7.319  0.00  0.00     0.177 C 
ENDROOT
BRANCH   1   2
HETATM    2  C   UNK N   1      20.542  16.321   7.263  0.00  0.00     0.240 C 
HETATM    3  O   UNK N   1      20.713  17.287   7.991  0.00  0.00    -0.271 OA
HETATM    4  N   UNK N   1      19.474  16.310   6.424  0.00  0.00    -0.358 N 
HETATM    5  H   UNK N   1      18.845  17.067   6.450  0.00  0.00     0.162 HD
BRANCH   4   6
HETATM    6  C   UNK N   1      19.221  15.230   5.493  0.00  0.00     0.142 C 
BRANCH   6   7
HETATM    7  C   UNK N   1      19.508  15.598   4.028  0.00  0.00     0.139 C 
BRANCH   7   8
HETATM    8  N   UNK N   1      19.230  16.981   3.694  0.00  0.00    -0.388 N 
HETATM    9  H   UNK N   1      18.289  17.270   3.663  0.00  0.00     0.159 HD
BRANCH   8  10
HETATM   10  C   UNK N   1      20.234  17.942   3.411  0.00  0.00     0.028 A 
HETATM   11  C   UNK N   1      21.567  17.737   3.800  0.00  0.00     0.032 A 
HETATM   12  C   UNK N   1      22.512  18.747   3.632  0.00  0.00     0.039 A 
HETATM   13  C   UNK N   1      22.139  19.975   3.062  0.00  0.00     0.068 A 
HETATM   14  C   UNK N   1      20.819  20.162   2.635  0.00  0.00     0.039 A 
HETATM   15  C   UNK N   1      19.870  19.153   2.816  0.00  0.00     0.032 A 
BRANCH  13  16
HETATM   16  O   UNK N   1      23.022  20.992   2.931  0.00  0.00    -0.356 OA
HETATM   17  C   UNK N   1      24.383  20.799   2.860  0.00  0.00     0.210 C 
ENDBRANCH  13  16
ENDBRANCH   8  10
ENDBRANCH   7   8
ENDBRANCH   6   7
ENDBRANCH   4   6
ENDBRANCH   1   2
BRANCH   1  18
HETATM   18  N   UNK N   1      22.839  15.549   6.878  0.00  0.00    -0.343 N 
HETATM   19  H   UNK N   1      23.407  16.067   7.493  0.00  0.00     0.164 HD
BRANCH  18  20
HETATM   20  C   UNK N   1      23.347  15.216   5.595  0.00  0.00     0.226 A 
HETATM   21  O   UNK N   1      24.355  15.845   5.014  0.00  0.00    -0.277 OA
HETATM   22  C   UNK N   1      24.483  15.324   3.826  0.00  0.00     0.106 A 
HETATM   23  C   UNK N   1      25.382  15.658   2.819  0.00  0.00     0.040 A 
HETATM   24  C   UNK N   1      23.545  14.348   3.677  0.00  0.00     0.069 A 
HETATM   25  C   UNK N   1      25.295  14.934   1.614  0.00  0.00     0.003 A 
HETATM   26  C   UNK N   1      24.330  13.910   1.459  0.00  0.00     0.002 A 
HETATM   27  C   UNK N   1      23.433  13.608   2.505  0.00  0.00     0.032 A 
HETATM   28  N   UNK N   1      22.799  14.267   4.794  0.00  0.00    -0.320 N 
ATOM     29  HN  UNK N   1      22.016  13.644   4.990  1.00  0.00     0.169 HD
ENDBRANCH  18  20
ENDBRANCH   1  18
BRANCH   1  30
HETATM   30  C   UNK N   1      21.546  14.543   8.728  0.00  0.00     0.039 C 
BRANCH  30  31
HETATM   31  C   UNK N   1      21.212  13.052   8.811  0.00  0.00    -0.012 C 
HETATM   32  C   UNK N   1      22.171  12.194   7.973  0.00  0.00     0.005 C 
HETATM   33  C   UNK N   1      23.565  12.002   8.595  0.00  0.00     0.000 C 
HETATM   34  C   UNK N   1      23.792  12.851   9.844  0.00  0.00     0.000 C 
HETATM   35  C   UNK N   1      22.683  12.622  10.875  0.00  0.00     0.000 C 
HETATM   36  C   UNK N   1      21.267  12.598  10.272  0.00  0.00     0.005 C 
ENDBRANCH  30  31
ENDBRANCH   1  30
TORSDOF 10
ENDMDL
MODEL 6
REMARK VINA RESULT:      -6.7      6.793     11.532
REMARK  10 active torsions:
REMARK  status: ('A' for Active; 'I' for Inactive)
REMARK    1  A    between atoms: C_2  and  C_3 
REMARK       I    between atoms: C_2  and  N_22 
REMARK    2  A    between atoms: C_3  and  N_4 
REMARK    3  A    between atoms: C_3  and  C_15 
REMARK    4  A    between atoms: N_4  and  C_5 
REMARK    5  A    between atoms: C_15  and  C_16 
REMARK    6  A    between atoms: N_22  and  C_23 
REMARK    7  A    between atoms: C_23  and  C_24 
REMARK    8  A    between atoms: C_24  and  N_25 
REMARK    9  A    between atoms: N_25  and  C_26 
REMARK   10  A    between atoms: C_31  and  O_32 
ROOT
HETATM    1  C   UNK N   1      26.611  16.800   4.603  0.00  0.00     0.177 C 
ENDROOT
BRANCH   1   2
HETATM    2  C   UNK N   1      27.051  15.397   4.979  0.00  0.00     0.240 C 
HETATM    3  O   UNK N   1      26.831  14.973   6.103  0.00  0.00    -0.271 OA
HETATM    4  N   UNK N   1      27.699  14.600   4.090  0.00  0.00    -0.358 N 
HETATM    5  H   UNK N   1      28.005  13.713   4.387  0.00  0.00     0.162 HD
BRANCH   4   6
HETATM    6  C   UNK N   1      27.958  15.002   2.723  0.00  0.00     0.142 C 
BRANCH   6   7
HETATM    7  C   UNK N   1      29.449  15.217   2.415  0.00  0.00     0.139 C 
BRANCH   7   8
HETATM    8  N   UNK N   1      29.947  16.533   2.764  0.00  0.00    -0.388 N 
HETATM    9  H   UNK N   1      29.526  17.315   2.340  0.00  0.00     0.159 HD
BRANCH   8  10
HETATM   10  C   UNK N   1      31.005  16.759   3.682  0.00  0.00     0.028 A 
HETATM   11  C   UNK N   1      30.780  16.745   5.068  0.00  0.00     0.032 A 
HETATM   12  C   UNK N   1      31.800  17.099   5.949  0.00  0.00     0.039 A 
HETATM   13  C   UNK N   1      33.064  17.463   5.457  0.00  0.00     0.068 A 
HETATM   14  C   UNK N   1      33.298  17.436   4.078  0.00  0.00     0.039 A 
HETATM   15  C   UNK N   1      32.271  17.093   3.194  0.00  0.00     0.032 A 
BRANCH  13  16
HETATM   16  O   UNK N   1      34.058  17.859   6.285  0.00  0.00    -0.356 OA
HETATM   17  C   UNK N   1      33.894  17.991   7.645  0.00  0.00     0.210 C 
ENDBRANCH  13  16
ENDBRANCH   8  10
ENDBRANCH   7   8
ENDBRANCH   6   7
ENDBRANCH   4   6
ENDBRANCH   1   2
BRANCH   1  18
HETATM   18  N   UNK N   1      25.263  16.804   4.060  0.00  0.00    -0.343 N 
HETATM   19  H   UNK N   1      25.146  16.858   3.084  0.00  0.00     0.164 HD
BRANCH  18  20
HETATM   20  C   UNK N   1      24.109  16.731   4.884  0.00  0.00     0.226 A 
HETATM   21  O   UNK N   1      23.252  17.725   5.045  0.00  0.00    -0.277 OA
HETATM   22  C   UNK N   1      22.378  17.324   5.924  0.00  0.00     0.106 A 
HETATM   23  C   UNK N   1      21.292  18.013   6.452  0.00  0.00     0.040 A 
HETATM   24  C   UNK N   1      22.695  16.056   6.304  0.00  0.00     0.069 A 
HETATM   25  C   UNK N   1      20.506  17.341   7.407  0.00  0.00     0.003 A 
HETATM   26  C   UNK N   1      20.824  16.017   7.795  0.00  0.00     0.002 A 
HETATM   27  C   UNK N   1      21.940  15.357   7.240  0.00  0.00     0.032 A 
HETATM   28  N   UNK N   1      23.806  15.657   5.657  0.00  0.00    -0.320 N 
ATOM     29  HN  UNK N   1      24.297  14.767   5.730  1.00  0.00     0.169 HD
ENDBRANCH  18  20
ENDBRANCH   1  18
BRANCH   1  30
HETATM   30  C   UNK N   1      26.735  17.749   5.805  0.00  0.00     0.039 C 
BRANCH  30  31
HETATM   31  C   UNK N   1      27.894  18.746   5.746  0.00  0.00    -0.012 C 
HETATM   32  C   UNK N   1      28.109  19.304   4.332  0.00  0.00     0.005 C 
HETATM   33  C   UNK N   1      27.073  20.354   3.896  0.00  0.00     0.000 C 
HETATM   34  C   UNK N   1      25.920  20.513   4.885  0.00  0.00     0.000 C 
HETATM   35  C   UNK N   1      26.440  20.793   6.297  0.00  0.00     0.000 C 
HETATM   36  C   UNK N   1      27.624  19.900   6.714  0.00  0.00     0.005 C 
ENDBRANCH  30  31
ENDBRANCH   1  30
TORSDOF 10
ENDMDL
MODEL 7
REMARK VINA RESULT:      -6.7      1.711      3.153
REMARK  10 active torsions:
REMARK  status: ('A' for Active; 'I' for Inactive)
REMARK    1  A    between atoms: C_2  and  C_3 
REMARK       I    between atoms: C_2  and  N_22 
REMARK    2  A    between atoms: C_3  and  N_4 
REMARK    3  A    between atoms: C_3  and  C_15 
REMARK    4  A    between atoms: N_4  and  C_5 
REMARK    5  A    between atoms: C_15  and  C_16 
REMARK    6  A    between atoms: N_22  and  C_23 
REMARK    7  A    between atoms: C_23  and  C_24 
REMARK    8  A    between atoms: C_24  and  N_25 
REMARK    9  A    between atoms: N_25  and  C_26 
REMARK   10  A    between atoms: C_31  and  O_32 
ROOT
HETATM    1  C   UNK N   1      35.434  13.041  11.733  0.00  0.00     0.177 C 
ENDROOT
BRANCH   1   2
HETATM    2  C   UNK N   1      35.090  12.005  10.679  0.00  0.00     0.240 C 
HETATM    3  O   UNK N   1      34.042  11.382  10.760  0.00  0.00    -0.271 OA
HETATM    4  N   UNK N   1      35.933  11.744   9.646  0.00  0.00    -0.358 N 
HETATM    5  H   UNK N   1      35.692  11.034   9.008  0.00  0.00     0.162 HD
BRANCH   4   6
HETATM    6  C   UNK N   1      37.172  12.466   9.445  0.00  0.00     0.142 C 
BRANCH   6   7
HETATM    7  C   UNK N   1      37.263  13.167   8.079  0.00  0.00     0.139 C 
BRANCH   7   8
HETATM    8  N   UNK N   1      36.373  14.300   7.928  0.00  0.00    -0.388 N 
HETATM    9  H   UNK N   1      36.512  15.081   8.512  0.00  0.00     0.159 HD
BRANCH   8  10
HETATM   10  C   UNK N   1      35.313  14.352   6.986  0.00  0.00     0.028 A 
HETATM   11  C   UNK N   1      35.298  15.311   5.961  0.00  0.00     0.032 A 
HETATM   12  C   UNK N   1      34.187  15.432   5.128  0.00  0.00     0.039 A 
HETATM   13  C   UNK N   1      33.078  14.588   5.301  0.00  0.00     0.068 A 
HETATM   14  C   UNK N   1      33.113  13.605   6.297  0.00  0.00     0.039 A 
HETATM   15  C   UNK N   1      34.222  13.493   7.140  0.00  0.00     0.032 A 
BRANCH  13  16
HETATM   16  O   UNK N   1      31.967  14.714   4.541  0.00  0.00    -0.356 OA
HETATM   17  C   UNK N   1      30.735  14.237   4.927  0.00  0.00     0.210 C 
ENDBRANCH  13  16
ENDBRANCH   8  10
ENDBRANCH   7   8
ENDBRANCH   6   7
ENDBRANCH   4   6
ENDBRANCH   1   2
BRANCH   1  18
HETATM   18  N   UNK N   1      34.386  14.040  11.854  0.00  0.00    -0.343 N 
HETATM   19  H   UNK N   1      33.891  14.107  12.702  0.00  0.00     0.164 HD
BRANCH  18  20
HETATM   20  C   UNK N   1      34.049  14.923  10.795  0.00  0.00     0.226 A 
HETATM   21  O   UNK N   1      34.850  15.875  10.344  0.00  0.00    -0.277 OA
HETATM   22  C   UNK N   1      34.178  16.527   9.438  0.00  0.00     0.106 A 
HETATM   23  C   UNK N   1      34.569  17.631   8.687  0.00  0.00     0.040 A 
HETATM   24  C   UNK N   1      32.945  15.962   9.320  0.00  0.00     0.069 A 
HETATM   25  C   UNK N   1      33.633  18.153   7.775  0.00  0.00     0.003 A 
HETATM   26  C   UNK N   1      32.354  17.559   7.639  0.00  0.00     0.002 A 
HETATM   27  C   UNK N   1      31.996  16.444   8.425  0.00  0.00     0.032 A 
HETATM   28  N   UNK N   1      32.836  14.937  10.186  0.00  0.00    -0.320 N 
ATOM     29  HN  UNK N   1      32.038  14.323  10.344  1.00  0.00     0.169 HD
ENDBRANCH  18  20
ENDBRANCH   1  18
BRANCH   1  30
HETATM   30  C   UNK N   1      35.726  12.367  13.083  0.00  0.00     0.039 C 
BRANCH  30  31
HETATM   31  C   UNK N   1      34.563  12.342  14.077  0.00  0.00    -0.012 C 
HETATM   32  C   UNK N   1      34.036  10.919  14.319  0.00  0.00     0.005 C 
HETATM   33  C   UNK N   1      34.933  10.052  15.218  0.00  0.00     0.000 C 
HETATM   34  C   UNK N   1      36.270  10.710  15.555  0.00  0.00     0.000 C 
HETATM   35  C   UNK N   1      36.062  12.105  16.151  0.00  0.00     0.000 C 
HETATM   36  C   UNK N   1      35.014  12.951  15.406  0.00  0.00     0.005 C 
ENDBRANCH  30  31
ENDBRANCH   1  30
TORSDOF 10
ENDMDL
MODEL 8
REMARK VINA RESULT:      -6.6      8.265     12.714
REMARK  10 active torsions:
REMARK  status: ('A' for Active; 'I' for Inactive)
REMARK    1  A    between atoms: C_2  and  C_3 
REMARK       I    between atoms: C_2  and  N_22 
REMARK    2  A    between atoms: C_3  and  N_4 
REMARK    3  A    between atoms: C_3  and  C_15 
REMARK    4  A    between atoms: N_4  and  C_5 
REMARK    5  A    between atoms: C_15  and  C_16 
REMARK    6  A    between atoms: N_22  and  C_23 
REMARK    7  A    between atoms: C_23  and  C_24 
REMARK    8  A    between atoms: C_24  and  N_25 
REMARK    9  A    between atoms: N_25  and  C_26 
REMARK   10  A    between atoms: C_31  and  O_32 
ROOT
HETATM    1  C   UNK N   1      25.572  16.464   4.437  0.00  0.00     0.177 C 
ENDROOT
BRANCH   1   2
HETATM    2  C   UNK N   1      24.746  15.396   3.744  0.00  0.00     0.240 C 
HETATM    3  O   UNK N   1      24.915  15.174   2.555  0.00  0.00    -0.271 OA
HETATM    4  N   UNK N   1      23.809  14.681   4.420  0.00  0.00    -0.358 N 
HETATM    5  H   UNK N   1      23.265  14.027   3.924  0.00  0.00     0.162 HD
BRANCH   4   6
HETATM    6  C   UNK N   1      23.576  14.842   5.840  0.00  0.00     0.142 C 
BRANCH   6   7
HETATM    7  C   UNK N   1      22.502  15.892   6.174  0.00  0.00     0.139 C 
BRANCH   7   8
HETATM    8  N   UNK N   1      21.378  15.909   5.258  0.00  0.00    -0.388 N 
HETATM    9  H   UNK N   1      20.841  15.089   5.168  0.00  0.00     0.159 HD
BRANCH   8  10
HETATM   10  C   UNK N   1      21.007  17.039   4.485  0.00  0.00     0.028 A 
HETATM   11  C   UNK N   1      20.352  16.893   3.252  0.00  0.00     0.032 A 
HETATM   12  C   UNK N   1      20.113  18.005   2.447  0.00  0.00     0.039 A 
HETATM   13  C   UNK N   1      20.518  19.282   2.868  0.00  0.00     0.068 A 
HETATM   14  C   UNK N   1      21.133  19.431   4.116  0.00  0.00     0.039 A 
HETATM   15  C   UNK N   1      21.383  18.313   4.917  0.00  0.00     0.032 A 
BRANCH  13  16
HETATM   16  O   UNK N   1      20.345  20.373   2.086  0.00  0.00    -0.356 OA
HETATM   17  C   UNK N   1      20.896  20.490   0.830  0.00  0.00     0.210 C 
ENDBRANCH  13  16
ENDBRANCH   8  10
ENDBRANCH   7   8
ENDBRANCH   6   7
ENDBRANCH   4   6
ENDBRANCH   1   2
BRANCH   1  18
HETATM   18  N   UNK N   1      26.829  15.926   4.927  0.00  0.00    -0.343 N 
HETATM   19  H   UNK N   1      27.180  15.100   4.521  0.00  0.00     0.164 HD
BRANCH  18  20
HETATM   20  C   UNK N   1      27.571  16.545   5.967  0.00  0.00     0.226 A 
HETATM   21  O   UNK N   1      28.881  16.722   5.935  0.00  0.00    -0.277 OA
HETATM   22  C   UNK N   1      29.214  17.242   7.083  0.00  0.00     0.106 A 
HETATM   23  C   UNK N   1      30.477  17.589   7.550  0.00  0.00     0.040 A 
HETATM   24  C   UNK N   1      28.088  17.397   7.832  0.00  0.00     0.069 A 
HETATM   25  C   UNK N   1      30.556  18.127   8.849  0.00  0.00     0.003 A 
HETATM   26  C   UNK N   1      29.386  18.303   9.626  0.00  0.00     0.002 A 
HETATM   27  C   UNK N   1      28.125  17.931   9.116  0.00  0.00     0.032 A 
HETATM   28  N   UNK N   1      27.023  16.950   7.141  0.00  0.00    -0.320 N 
ATOM     29  HN  UNK N   1      26.046  16.922   7.429  1.00  0.00     0.169 HD
ENDBRANCH  18  20
ENDBRANCH   1  18
BRANCH   1  30
HETATM   30  C   UNK N   1      25.800  17.664   3.504  0.00  0.00     0.039 C 
BRANCH  30  31
HETATM   31  C   UNK N   1      24.932  18.894   3.783  0.00  0.00    -0.012 C 
HETATM   32  C   UNK N   1      24.997  19.329   5.254  0.00  0.00     0.005 C 
HETATM   33  C   UNK N   1      26.296  20.052   5.649  0.00  0.00     0.000 C 
HETATM   34  C   UNK N   1      27.354  20.041   4.546  0.00  0.00     0.000 C 
HETATM   35  C   UNK N   1      26.786  20.588   3.233  0.00  0.00     0.000 C 
HETATM   36  C   UNK N   1      25.385  20.050   2.888  0.00  0.00     0.005 C 
ENDBRANCH  30  31
ENDBRANCH   1  30
TORSDOF 10
ENDMDL
MODEL 9
REMARK VINA RESULT:      -6.6      2.245      8.354
REMARK  10 active torsions:
REMARK  status: ('A' for Active; 'I' for Inactive)
REMARK    1  A    between atoms: C_2  and  C_3 
REMARK       I    between atoms: C_2  and  N_22 
REMARK    2  A    between atoms: C_3  and  N_4 
REMARK    3  A    between atoms: C_3  and  C_15 
REMARK    4  A    between atoms: N_4  and  C_5 
REMARK    5  A    between atoms: C_15  and  C_16 
REMARK    6  A    between atoms: N_22  and  C_23 
REMARK    7  A    between atoms: C_23  and  C_24 
REMARK    8  A    between atoms: C_24  and  N_25 
REMARK    9  A    between atoms: N_25  and  C_26 
REMARK   10  A    between atoms: C_31  and  O_32 
ROOT
HETATM    1  C   UNK N   1      34.451  15.838  10.006  0.00  0.00     0.177 C 
ENDROOT
BRANCH   1   2
HETATM    2  C   UNK N   1      35.594  16.405  10.827  0.00  0.00     0.240 C 
HETATM    3  O   UNK N   1      36.079  17.486  10.528  0.00  0.00    -0.271 OA
HETATM    4  N   UNK N   1      36.102  15.728  11.890  0.00  0.00    -0.358 N 
HETATM    5  H   UNK N   1      36.872  16.111  12.370  0.00  0.00     0.162 HD
BRANCH   4   6
HETATM    6  C   UNK N   1      35.559  14.465  12.346  0.00  0.00     0.142 C 
BRANCH   6   7
HETATM    7  C   UNK N   1      36.121  14.005  13.701  0.00  0.00     0.139 C 
BRANCH   7   8
HETATM    8  N   UNK N   1      35.592  12.740  14.169  0.00  0.00    -0.388 N 
HETATM    9  H   UNK N   1      35.314  12.076  13.497  0.00  0.00     0.159 HD
BRANCH   8  10
HETATM   10  C   UNK N   1      35.453  12.400  15.540  0.00  0.00     0.028 A 
HETATM   11  C   UNK N   1      35.079  13.361  16.492  0.00  0.00     0.032 A 
HETATM   12  C   UNK N   1      35.076  13.042  17.849  0.00  0.00     0.039 A 
HETATM   13  C   UNK N   1      35.438  11.753  18.272  0.00  0.00     0.068 A 
HETATM   14  C   UNK N   1      35.769  10.785  17.318  0.00  0.00     0.039 A 
HETATM   15  C   UNK N   1      35.784  11.109  15.959  0.00  0.00     0.032 A 
BRANCH  13  16
HETATM   16  O   UNK N   1      35.493  11.428  19.584  0.00  0.00    -0.356 OA
HETATM   17  C   UNK N   1      36.378  10.506  20.093  0.00  0.00     0.210 C 
ENDBRANCH  13  16
ENDBRANCH   8  10
ENDBRANCH   7   8
ENDBRANCH   6   7
ENDBRANCH   4   6
ENDBRANCH   1   2
BRANCH   1  18
HETATM   18  N   UNK N   1      33.559  16.889   9.545  0.00  0.00    -0.343 N 
HETATM   19  H   UNK N   1      33.299  17.599  10.176  0.00  0.00     0.164 HD
BRANCH  18  20
HETATM   20  C   UNK N   1      33.051  16.931   8.220  0.00  0.00     0.226 A 
HETATM   21  O   UNK N   1      33.737  17.375   7.180  0.00  0.00    -0.277 OA
HETATM   22  C   UNK N   1      32.927  17.340   6.159  0.00  0.00     0.106 A 
HETATM   23  C   UNK N   1      33.163  17.727   4.845  0.00  0.00     0.040 A 
HETATM   24  C   UNK N   1      31.724  16.856   6.575  0.00  0.00     0.069 A 
HETATM   25  C   UNK N   1      32.099  17.593   3.934  0.00  0.00     0.003 A 
HETATM   26  C   UNK N   1      30.850  17.078   4.359  0.00  0.00     0.002 A 
HETATM   27  C   UNK N   1      30.651  16.703   5.704  0.00  0.00     0.032 A 
HETATM   28  N   UNK N   1      31.777  16.595   7.895  0.00  0.00    -0.320 N 
ATOM     29  HN  UNK N   1      31.040  16.234   8.499  1.00  0.00     0.169 HD
ENDBRANCH  18  20
ENDBRANCH   1  18
BRANCH   1  30
HETATM   30  C   UNK N   1      34.987  15.002   8.834  0.00  0.00     0.039 C 
BRANCH  30  31
HETATM   31  C   UNK N   1      34.627  13.515   8.862  0.00  0.00    -0.012 C 
HETATM   32  C   UNK N   1      33.194  13.254   8.375  0.00  0.00     0.005 C 
HETATM   33  C   UNK N   1      33.010  13.356   6.851  0.00  0.00     0.000 C 
HETATM   34  C   UNK N   1      34.250  13.874   6.125  0.00  0.00     0.000 C 
HETATM   35  C   UNK N   1      35.486  13.045   6.485  0.00  0.00     0.000 C 
HETATM   36  C   UNK N   1      35.612  12.735   7.988  0.00  0.00     0.005 C 
ENDBRANCH  30  31
ENDBRANCH   1  30
TORSDOF 10
ENDMDL
