MODEL 1
REMARK VINA RESULT:      -7.9      0.000      0.000
REMARK  4 active torsions:
REMARK  status: ('A' for Active; 'I' for Inactive)
REMARK    1  A    between atoms: C_2  and  C_3 
REMARK    2  A    between atoms: C_9  and  C_10 
REMARK    3  A    between atoms: C_9  and  O_18 
REMARK    4  A    between atoms: O_14  and  C_15 
ROOT
HETATM    1  C   UNK N   1      21.295  18.729   3.652  0.00  0.00     0.034 C 
HETATM    2  C   UNK N   1      22.458  19.468   3.280  0.00  0.00    -0.009 C 
HETATM    3  C   UNK N   1      22.326  20.342   2.180  0.00  0.00     0.030 C 
HETATM    4  C   UNK N   1      21.123  20.403   1.454  0.00  0.00     0.090 C 
HETATM    5  C   UNK N   1      20.193  18.748   2.836  0.00  0.00     0.117 C 
HETATM    6  C   UNK N   1      19.716  17.091   4.198  0.00  0.00     0.105 C 
HETATM    7  C   UNK N   1      20.953  17.731   4.690  0.00  0.00     0.028 C 
HETATM    8  C   UNK N   1      21.538  17.529   5.894  0.00  0.00     0.088 C 
HETATM    9  N   UNK N   1      19.274  17.736   3.171  0.00  0.00    -0.351 N 
ATOM     10  HN  UNK N   1      18.400  17.543   2.682  1.00  0.00     0.166 HD
HETATM   11  N   UNK N   1      20.096  19.561   1.751  0.00  0.00    -0.352 N 
ATOM     12  HN  UNK N   1      19.261  19.540   1.166  1.00  0.00     0.166 HD
ENDROOT
BRANCH   8  13
HETATM   13  C   UNK N   1      21.289  16.350   6.759  0.00  0.00     0.001 A 
HETATM   14  C   UNK N   1      22.243  15.354   7.016  0.00  0.00     0.014 A 
HETATM   15  C   UNK N   1      22.013  14.406   8.022  0.00  0.00     0.004 A 
HETATM   16  C   UNK N   1      20.865  14.492   8.819  0.00  0.00     0.037 A 
HETATM   17  C   UNK N   1      19.917  15.501   8.581  0.00  0.00     0.069 A 
HETATM   18  C   UNK N   1      20.132  16.402   7.546  0.00  0.00     0.051 A 
BRANCH  17  19
HETATM   19  O   UNK N   1      18.826  15.669   9.365  0.00  0.00    -0.356 OA
HETATM   20  C   UNK N   1      18.042  16.798   9.336  0.00  0.00     0.210 C 
ENDBRANCH  17  19
ENDBRANCH   8  13
BRANCH   8  21
HETATM   21  O   UNK N   1      22.419  18.437   6.353  0.00  0.00    -0.359 OA
HETATM   22  H   UNK N   1      22.932  18.422   7.137  0.00  0.00     0.217 HD
ENDBRANCH   8  21
BRANCH   2  23
HETATM   23  C   UNK N   1      23.845  19.235   3.819  0.00  0.00    -0.019 A 
HETATM   24  C   UNK N   1      24.411  17.953   3.851  0.00  0.00     0.054 A 
HETATM   25  C   UNK N   1      25.711  17.733   4.299  0.00  0.00     0.120 A 
HETATM   26  F   UNK N   1      26.188  16.467   4.393  0.00  0.00    -0.206 F 
HETATM   27  C   UNK N   1      26.512  18.814   4.651  0.00  0.00     0.084 A 
HETATM   28  C   UNK N   1      26.001  20.111   4.561  0.00  0.00     0.120 A 
HETATM   29  F   UNK N   1      26.796  21.165   4.858  0.00  0.00    -0.206 F 
HETATM   30  C   UNK N   1      24.676  20.322   4.151  0.00  0.00     0.054 A 
ENDBRANCH   2  23
TORSDOF 4
ENDMDL
MODEL 2
REMARK VINA RESULT:      -7.6      6.672      9.954
REMARK  4 active torsions:
REMARK  status: ('A' for Active; 'I' for Inactive)
REMARK    1  A    between atoms: C_2  and  C_3 
REMARK    2  A    between atoms: C_9  and  C_10 
REMARK    3  A    between atoms: C_9  and  O_18 
REMARK    4  A    between atoms: O_14  and  C_15 
ROOT
HETATM    1  C   UNK N   1      30.192  17.364   7.139  0.00  0.00     0.034 C 
HETATM    2  C   UNK N   1      28.993  18.138   7.101  0.00  0.00    -0.009 C 
HETATM    3  C   UNK N   1      28.525  18.640   8.335  0.00  0.00     0.030 C 
HETATM    4  C   UNK N   1      29.179  18.311   9.536  0.00  0.00     0.090 C 
HETATM    5  C   UNK N   1      30.713  16.986   8.351  0.00  0.00     0.117 C 
HETATM    6  C   UNK N   1      31.848  15.723   6.957  0.00  0.00     0.105 C 
HETATM    7  C   UNK N   1      31.034  16.656   6.151  0.00  0.00     0.028 C 
HETATM    8  C   UNK N   1      31.159  16.890   4.823  0.00  0.00     0.088 C 
HETATM    9  N   UNK N   1      31.687  15.980   8.212  0.00  0.00    -0.351 N 
ATOM     10  HN  UNK N   1      32.185  15.527   8.977  1.00  0.00     0.166 HD
HETATM   11  N   UNK N   1      30.223  17.439   9.535  0.00  0.00    -0.352 N 
ATOM     12  HN  UNK N   1      30.636  17.128  10.414  1.00  0.00     0.166 HD
ENDROOT
BRANCH   8  13
HETATM   13  C   UNK N   1      31.836  15.976   3.871  0.00  0.00     0.001 A 
HETATM   14  C   UNK N   1      33.201  16.047   3.557  0.00  0.00     0.014 A 
HETATM   15  C   UNK N   1      33.809  15.010   2.837  0.00  0.00     0.004 A 
HETATM   16  C   UNK N   1      33.075  13.870   2.490  0.00  0.00     0.037 A 
HETATM   17  C   UNK N   1      31.712  13.783   2.822  0.00  0.00     0.069 A 
HETATM   18  C   UNK N   1      31.109  14.842   3.489  0.00  0.00     0.051 A 
BRANCH  17  19
HETATM   19  O   UNK N   1      30.975  12.676   2.572  0.00  0.00    -0.356 OA
HETATM   20  C   UNK N   1      29.796  12.698   1.865  0.00  0.00     0.210 C 
ENDBRANCH  17  19
ENDBRANCH   8  13
BRANCH   8  21
HETATM   21  O   UNK N   1      30.628  18.013   4.305  0.00  0.00    -0.359 OA
HETATM   22  H   UNK N   1      30.857  18.907   4.469  0.00  0.00     0.217 HD
ENDBRANCH   8  21
BRANCH   2  23
HETATM   23  C   UNK N   1      28.087  18.280   5.906  0.00  0.00    -0.019 A 
HETATM   24  C   UNK N   1      27.362  17.190   5.406  0.00  0.00     0.054 A 
HETATM   25  C   UNK N   1      26.482  17.320   4.334  0.00  0.00     0.120 A 
HETATM   26  F   UNK N   1      25.866  16.223   3.829  0.00  0.00    -0.206 F 
HETATM   27  C   UNK N   1      26.245  18.576   3.785  0.00  0.00     0.084 A 
HETATM   28  C   UNK N   1      26.898  19.694   4.309  0.00  0.00     0.120 A 
HETATM   29  F   UNK N   1      26.630  20.922   3.806  0.00  0.00    -0.206 F 
HETATM   30  C   UNK N   1      27.816  19.549   5.360  0.00  0.00     0.054 A 
ENDBRANCH   2  23
TORSDOF 4
ENDMDL
MODEL 3
REMARK VINA RESULT:      -7.5      1.233      1.891
REMARK  4 active torsions:
REMARK  status: ('A' for Active; 'I' for Inactive)
REMARK    1  A    between atoms: C_2  and  C_3 
REMARK    2  A    between atoms: C_9  and  C_10 
REMARK    3  A    between atoms: C_9  and  O_18 
REMARK    4  A    between atoms: O_14  and  C_15 
ROOT
HETATM    1  C   UNK N   1      21.287  18.601   3.777  0.00  0.00     0.034 C 
HETATM    2  C   UNK N   1      22.413  19.348   3.317  0.00  0.00    -0.009 C 
HETATM    3  C   UNK N   1      22.206  20.173   2.191  0.00  0.00     0.030 C 
HETATM    4  C   UNK N   1      20.967  20.179   1.525  0.00  0.00     0.090 C 
HETATM    5  C   UNK N   1      20.145  18.564   3.018  0.00  0.00     0.117 C 
HETATM    6  C   UNK N   1      19.775  16.955   4.468  0.00  0.00     0.105 C 
HETATM    7  C   UNK N   1      21.021  17.640   4.870  0.00  0.00     0.028 C 
HETATM    8  C   UNK N   1      21.670  17.500   6.050  0.00  0.00     0.088 C 
HETATM    9  N   UNK N   1      19.267  17.547   3.440  0.00  0.00    -0.351 N 
ATOM     10  HN  UNK N   1      18.375  17.317   3.004  1.00  0.00     0.166 HD
HETATM   11  N   UNK N   1      19.976  19.329   1.908  0.00  0.00    -0.352 N 
ATOM     12  HN  UNK N   1      19.113  19.267   1.367  1.00  0.00     0.166 HD
ENDROOT
BRANCH   8  13
HETATM   13  C   UNK N   1      21.491  16.353   6.973  0.00  0.00     0.001 A 
HETATM   14  C   UNK N   1      20.633  16.369   8.083  0.00  0.00     0.014 A 
HETATM   15  C   UNK N   1      20.343  15.179   8.762  0.00  0.00     0.004 A 
HETATM   16  C   UNK N   1      20.852  13.961   8.295  0.00  0.00     0.037 A 
HETATM   17  C   UNK N   1      21.693  13.935   7.171  0.00  0.00     0.069 A 
HETATM   18  C   UNK N   1      22.016  15.130   6.539  0.00  0.00     0.051 A 
BRANCH  17  19
HETATM   19  O   UNK N   1      22.155  12.780   6.639  0.00  0.00    -0.356 OA
HETATM   20  C   UNK N   1      21.347  11.709   6.340  0.00  0.00     0.210 C 
ENDBRANCH  17  19
ENDBRANCH   8  13
BRANCH   8  21
HETATM   21  O   UNK N   1      22.552  18.444   6.426  0.00  0.00    -0.359 OA
HETATM   22  H   UNK N   1      23.404  18.343   6.803  0.00  0.00     0.217 HD
ENDBRANCH   8  21
BRANCH   2  23
HETATM   23  C   UNK N   1      23.830  19.166   3.793  0.00  0.00    -0.019 A 
HETATM   24  C   UNK N   1      24.447  17.907   3.789  0.00  0.00     0.054 A 
HETATM   25  C   UNK N   1      25.772  17.735   4.178  0.00  0.00     0.120 A 
HETATM   26  F   UNK N   1      26.302  16.488   4.239  0.00  0.00    -0.206 F 
HETATM   27  C   UNK N   1      26.545  18.845   4.505  0.00  0.00     0.084 A 
HETATM   28  C   UNK N   1      25.980  20.121   4.450  0.00  0.00     0.120 A 
HETATM   29  F   UNK N   1      26.745  21.204   4.722  0.00  0.00    -0.206 F 
HETATM   30  C   UNK N   1      24.631  20.282   4.099  0.00  0.00     0.054 A 
ENDBRANCH   2  23
TORSDOF 4
ENDMDL
MODEL 4
REMARK VINA RESULT:      -7.2     12.805     14.820
REMARK  4 active torsions:
REMARK  status: ('A' for Active; 'I' for Inactive)
REMARK    1  A    between atoms: C_2  and  C_3 
REMARK    2  A    between atoms: C_9  and  C_10 
REMARK    3  A    between atoms: C_9  and  O_18 
REMARK    4  A    between atoms: O_14  and  C_15 
ROOT
HETATM    1  C   UNK N   1      27.057  25.199  -5.964  0.00  0.00     0.034 C 
HETATM    2  C   UNK N   1      27.857  24.028  -5.803  0.00  0.00    -0.009 C 
HETATM    3  C   UNK N   1      27.417  22.866  -6.472  0.00  0.00     0.030 C 
HETATM    4  C   UNK N   1      26.207  22.866  -7.188  0.00  0.00     0.090 C 
HETATM    5  C   UNK N   1      25.834  25.102  -6.577  0.00  0.00     0.117 C 
HETATM    6  C   UNK N   1      25.734  27.108  -5.686  0.00  0.00     0.105 C 
HETATM    7  C   UNK N   1      27.104  26.596  -5.480  0.00  0.00     0.028 C 
HETATM    8  C   UNK N   1      28.177  27.314  -5.072  0.00  0.00     0.088 C 
HETATM    9  N   UNK N   1      25.050  26.253  -6.371  0.00  0.00    -0.351 N 
ATOM     10  HN  UNK N   1      24.098  26.390  -6.708  1.00  0.00     0.166 HD
HETATM   11  N   UNK N   1      25.402  23.962  -7.179  0.00  0.00    -0.352 N 
ATOM     12  HN  UNK N   1      24.482  23.930  -7.619  1.00  0.00     0.166 HD
ENDROOT
BRANCH   8  13
HETATM   13  C   UNK N   1      28.095  28.620  -4.374  0.00  0.00     0.001 A 
HETATM   14  C   UNK N   1      27.719  29.818  -4.999  0.00  0.00     0.014 A 
HETATM   15  C   UNK N   1      27.438  30.953  -4.228  0.00  0.00     0.004 A 
HETATM   16  C   UNK N   1      27.465  30.878  -2.830  0.00  0.00     0.037 A 
HETATM   17  C   UNK N   1      27.819  29.674  -2.198  0.00  0.00     0.069 A 
HETATM   18  C   UNK N   1      28.147  28.571  -2.976  0.00  0.00     0.051 A 
BRANCH  17  19
HETATM   19  O   UNK N   1      27.794  29.529  -0.853  0.00  0.00    -0.356 OA
HETATM   20  C   UNK N   1      28.723  30.098  -0.013  0.00  0.00     0.210 C 
ENDBRANCH  17  19
ENDBRANCH   8  13
BRANCH   8  21
HETATM   21  O   UNK N   1      29.412  26.825  -5.291  0.00  0.00    -0.359 OA
HETATM   22  H   UNK N   1      29.791  26.507  -6.086  0.00  0.00     0.217 HD
ENDBRANCH   8  21
BRANCH   2  23
HETATM   23  C   UNK N   1      28.990  23.877  -4.822  0.00  0.00    -0.019 A 
HETATM   24  C   UNK N   1      28.758  23.513  -3.488  0.00  0.00     0.054 A 
HETATM   25  C   UNK N   1      29.801  23.321  -2.585  0.00  0.00     0.120 A 
HETATM   26  F   UNK N   1      29.528  23.053  -1.284  0.00  0.00    -0.206 F 
HETATM   27  C   UNK N   1      31.118  23.409  -3.024  0.00  0.00     0.084 A 
HETATM   28  C   UNK N   1      31.382  23.699  -4.364  0.00  0.00     0.120 A 
HETATM   29  F   UNK N   1      32.663  23.737  -4.801  0.00  0.00    -0.206 F 
HETATM   30  C   UNK N   1      30.327  23.934  -5.258  0.00  0.00     0.054 A 
ENDBRANCH   2  23
TORSDOF 4
ENDMDL
MODEL 5
REMARK VINA RESULT:      -7.2     15.542     17.819
REMARK  4 active torsions:
REMARK  status: ('A' for Active; 'I' for Inactive)
REMARK    1  A    between atoms: C_2  and  C_3 
REMARK    2  A    between atoms: C_9  and  C_10 
REMARK    3  A    between atoms: C_9  and  O_18 
REMARK    4  A    between atoms: O_14  and  C_15 
ROOT
HETATM    1  C   UNK N   1      35.752  12.744  13.836  0.00  0.00     0.034 C 
HETATM    2  C   UNK N   1      36.003  12.694  15.240  0.00  0.00    -0.009 C 
HETATM    3  C   UNK N   1      36.520  13.867  15.832  0.00  0.00     0.030 C 
HETATM    4  C   UNK N   1      36.839  14.986  15.043  0.00  0.00     0.090 C 
HETATM    5  C   UNK N   1      36.190  13.822  13.110  0.00  0.00     0.117 C 
HETATM    6  C   UNK N   1      35.665  12.394  11.525  0.00  0.00     0.105 C 
HETATM    7  C   UNK N   1      35.236  11.810  12.812  0.00  0.00     0.028 C 
HETATM    8  C   UNK N   1      34.428  10.735  12.978  0.00  0.00     0.088 C 
HETATM    9  N   UNK N   1      36.151  13.573  11.725  0.00  0.00    -0.351 N 
ATOM     10  HN  UNK N   1      36.458  14.218  10.998  1.00  0.00     0.166 HD
HETATM   11  N   UNK N   1      36.730  14.928  13.688  0.00  0.00    -0.352 N 
ATOM     12  HN  UNK N   1      37.050  15.705  13.111  1.00  0.00     0.166 HD
ENDROOT
BRANCH   8  13
HETATM   13  C   UNK N   1      34.164   9.717  11.933  0.00  0.00     0.001 A 
HETATM   14  C   UNK N   1      34.633   8.396  11.992  0.00  0.00     0.014 A 
HETATM   15  C   UNK N   1      34.147   7.439  11.092  0.00  0.00     0.004 A 
HETATM   16  C   UNK N   1      33.144   7.780  10.176  0.00  0.00     0.037 A 
HETATM   17  C   UNK N   1      32.654   9.095  10.127  0.00  0.00     0.069 A 
HETATM   18  C   UNK N   1      33.183  10.048  10.990  0.00  0.00     0.051 A 
BRANCH  17  19
HETATM   19  O   UNK N   1      31.639   9.460   9.310  0.00  0.00    -0.356 OA
HETATM   20  C   UNK N   1      31.244   8.720   8.220  0.00  0.00     0.210 C 
ENDBRANCH  17  19
ENDBRANCH   8  13
BRANCH   8  21
HETATM   21  O   UNK N   1      33.823  10.550  14.166  0.00  0.00    -0.359 OA
HETATM   22  H   UNK N   1      33.399   9.786  14.502  0.00  0.00     0.217 HD
ENDBRANCH   8  21
BRANCH   2  23
HETATM   23  C   UNK N   1      35.967  11.448  16.086  0.00  0.00    -0.019 A 
HETATM   24  C   UNK N   1      36.862  10.391  15.869  0.00  0.00     0.054 A 
HETATM   25  C   UNK N   1      36.872   9.257  16.677  0.00  0.00     0.120 A 
HETATM   26  F   UNK N   1      37.696   8.222  16.379  0.00  0.00    -0.206 F 
HETATM   27  C   UNK N   1      36.031   9.191  17.783  0.00  0.00     0.084 A 
HETATM   28  C   UNK N   1      35.178  10.259  18.068  0.00  0.00     0.120 A 
HETATM   29  F   UNK N   1      34.396  10.215  19.172  0.00  0.00    -0.206 F 
HETATM   30  C   UNK N   1      35.143  11.380  17.225  0.00  0.00     0.054 A 
ENDBRANCH   2  23
TORSDOF 4
ENDMDL
MODEL 6
REMARK VINA RESULT:      -7.2     13.025     14.812
REMARK  4 active torsions:
REMARK  status: ('A' for Active; 'I' for Inactive)
REMARK    1  A    between atoms: C_2  and  C_3 
REMARK    2  A    between atoms: C_9  and  C_10 
REMARK    3  A    between atoms: C_9  and  O_18 
REMARK    4  A    between atoms: O_14  and  C_15 
ROOT
HETATM    1  C   UNK N   1      27.719  23.145  -6.701  0.00  0.00     0.034 C 
HETATM    2  C   UNK N   1      28.862  22.359  -6.362  0.00  0.00    -0.009 C 
HETATM    3  C   UNK N   1      29.029  21.149  -7.070  0.00  0.00     0.030 C 
HETATM    4  C   UNK N   1      28.062  20.722  -7.997  0.00  0.00     0.090 C 
HETATM    5  C   UNK N   1      26.760  22.619  -7.527  0.00  0.00     0.117 C 
HETATM    6  C   UNK N   1      25.742  24.393  -6.725  0.00  0.00     0.105 C 
HETATM    7  C   UNK N   1      27.142  24.431  -6.255  0.00  0.00     0.028 C 
HETATM    8  C   UNK N   1      27.767  25.484  -5.676  0.00  0.00     0.088 C 
HETATM    9  N   UNK N   1      25.573  23.375  -7.501  0.00  0.00    -0.351 N 
ATOM     10  HN  UNK N   1      24.719  23.156  -8.012  1.00  0.00     0.166 HD
HETATM   11  N   UNK N   1      26.912  21.429  -8.167  0.00  0.00    -0.352 N 
ATOM     12  HN  UNK N   1      26.170  21.070  -8.768  1.00  0.00     0.166 HD
ENDROOT
BRANCH   8  13
HETATM   13  C   UNK N   1      27.067  26.627  -5.041  0.00  0.00     0.001 A 
HETATM   14  C   UNK N   1      26.290  26.520  -3.878  0.00  0.00     0.014 A 
HETATM   15  C   UNK N   1      25.860  27.676  -3.213  0.00  0.00     0.004 A 
HETATM   16  C   UNK N   1      26.261  28.938  -3.667  0.00  0.00     0.037 A 
HETATM   17  C   UNK N   1      27.059  29.051  -4.818  0.00  0.00     0.069 A 
HETATM   18  C   UNK N   1      27.433  27.899  -5.498  0.00  0.00     0.051 A 
BRANCH  17  19
HETATM   19  O   UNK N   1      27.530  30.241  -5.259  0.00  0.00    -0.356 OA
HETATM   20  C   UNK N   1      28.679  30.370  -6.002  0.00  0.00     0.210 C 
ENDBRANCH  17  19
ENDBRANCH   8  13
BRANCH   8  21
HETATM   21  O   UNK N   1      29.112  25.511  -5.649  0.00  0.00    -0.359 OA
HETATM   22  H   UNK N   1      29.695  25.310  -4.944  0.00  0.00     0.217 HD
ENDBRANCH   8  21
BRANCH   2  23
HETATM   23  C   UNK N   1      29.769  22.605  -5.185  0.00  0.00    -0.019 A 
HETATM   24  C   UNK N   1      29.274  22.626  -3.873  0.00  0.00     0.054 A 
HETATM   25  C   UNK N   1      30.110  22.802  -2.774  0.00  0.00     0.120 A 
HETATM   26  F   UNK N   1      29.579  22.901  -1.530  0.00  0.00    -0.206 F 
HETATM   27  C   UNK N   1      31.487  22.878  -2.959  0.00  0.00     0.084 A 
HETATM   28  C   UNK N   1      32.017  22.788  -4.248  0.00  0.00     0.120 A 
HETATM   29  F   UNK N   1      33.359  22.815  -4.423  0.00  0.00    -0.206 F 
HETATM   30  C   UNK N   1      31.165  22.655  -5.355  0.00  0.00     0.054 A 
ENDBRANCH   2  23
TORSDOF 4
ENDMDL
MODEL 7
REMARK VINA RESULT:      -7.2      5.411      8.598
REMARK  4 active torsions:
REMARK  status: ('A' for Active; 'I' for Inactive)
REMARK    1  A    between atoms: C_2  and  C_3 
REMARK    2  A    between atoms: C_9  and  C_10 
REMARK    3  A    between atoms: C_9  and  O_18 
REMARK    4  A    between atoms: O_14  and  C_15 
ROOT
HETATM    1  C   UNK N   1      29.501  17.365   7.243  0.00  0.00     0.034 C 
HETATM    2  C   UNK N   1      30.444  16.381   6.816  0.00  0.00    -0.009 C 
HETATM    3  C   UNK N   1      31.335  15.894   7.796  0.00  0.00     0.030 C 
HETATM    4  C   UNK N   1      31.328  16.424   9.098  0.00  0.00     0.090 C 
HETATM    5  C   UNK N   1      29.624  17.920   8.491  0.00  0.00     0.117 C 
HETATM    6  C   UNK N   1      28.172  19.267   7.538  0.00  0.00     0.105 C 
HETATM    7  C   UNK N   1      28.414  18.143   6.610  0.00  0.00     0.028 C 
HETATM    8  C   UNK N   1      27.687  17.839   5.509  0.00  0.00     0.088 C 
HETATM    9  N   UNK N   1      28.833  19.077   8.631  0.00  0.00    -0.351 N 
ATOM     10  HN  UNK N   1      28.790  19.668   9.459  1.00  0.00     0.166 HD
HETATM   11  N   UNK N   1      30.518  17.472   9.411  0.00  0.00    -0.352 N 
ATOM     12  HN  UNK N   1      30.582  17.917  10.326  1.00  0.00     0.166 HD
ENDROOT
BRANCH   8  13
HETATM   13  C   UNK N   1      26.790  18.791   4.809  0.00  0.00     0.001 A 
HETATM   14  C   UNK N   1      27.239  19.781   3.923  0.00  0.00     0.014 A 
HETATM   15  C   UNK N   1      26.321  20.479   3.128  0.00  0.00     0.004 A 
HETATM   16  C   UNK N   1      24.962  20.144   3.165  0.00  0.00     0.037 A 
HETATM   17  C   UNK N   1      24.508  19.138   4.034  0.00  0.00     0.069 A 
HETATM   18  C   UNK N   1      25.423  18.491   4.856  0.00  0.00     0.051 A 
BRANCH  17  19
HETATM   19  O   UNK N   1      23.219  18.730   4.059  0.00  0.00    -0.356 OA
HETATM   20  C   UNK N   1      22.647  18.097   5.138  0.00  0.00     0.210 C 
ENDBRANCH  17  19
ENDBRANCH   8  13
BRANCH   8  21
HETATM   21  O   UNK N   1      27.778  16.603   4.987  0.00  0.00    -0.359 OA
HETATM   22  H   UNK N   1      28.391  16.266   4.364  0.00  0.00     0.217 HD
ENDBRANCH   8  21
BRANCH   2  23
HETATM   23  C   UNK N   1      30.702  15.988   5.386  0.00  0.00    -0.019 A 
HETATM   24  C   UNK N   1      31.301  16.875   4.480  0.00  0.00     0.054 A 
HETATM   25  C   UNK N   1      31.591  16.505   3.170  0.00  0.00     0.120 A 
HETATM   26  F   UNK N   1      32.092  17.421   2.304  0.00  0.00    -0.206 F 
HETATM   27  C   UNK N   1      31.362  15.197   2.755  0.00  0.00     0.084 A 
HETATM   28  C   UNK N   1      30.833  14.269   3.655  0.00  0.00     0.120 A 
HETATM   29  F   UNK N   1      30.655  12.985   3.265  0.00  0.00    -0.206 F 
HETATM   30  C   UNK N   1      30.503  14.661   4.961  0.00  0.00     0.054 A 
ENDBRANCH   2  23
TORSDOF 4
ENDMDL
MODEL 8
REMARK VINA RESULT:      -7.0     13.160     15.466
REMARK  4 active torsions:
REMARK  status: ('A' for Active; 'I' for Inactive)
REMARK    1  A    between atoms: C_2  and  C_3 
REMARK    2  A    between atoms: C_9  and  C_10 
REMARK    3  A    between atoms: C_9  and  O_18 
REMARK    4  A    between atoms: O_14  and  C_15 
ROOT
HETATM    1  C   UNK N   1      27.239  26.320  -4.691  0.00  0.00     0.034 C 
HETATM    2  C   UNK N   1      27.110  27.428  -5.582  0.00  0.00    -0.009 C 
HETATM    3  C   UNK N   1      26.478  28.581  -5.068  0.00  0.00     0.030 C 
HETATM    4  C   UNK N   1      25.939  28.584  -3.770  0.00  0.00     0.090 C 
HETATM    5  C   UNK N   1      26.593  26.348  -3.481  0.00  0.00     0.117 C 
HETATM    6  C   UNK N   1      27.192  24.239  -3.625  0.00  0.00     0.105 C 
HETATM    7  C   UNK N   1      27.802  24.954  -4.765  0.00  0.00     0.028 C 
HETATM    8  C   UNK N   1      28.767  24.480  -5.588  0.00  0.00     0.088 C 
HETATM    9  N   UNK N   1      26.557  25.077  -2.876  0.00  0.00    -0.351 N 
ATOM     10  HN  UNK N   1      26.104  24.855  -1.991  1.00  0.00     0.166 HD
HETATM   11  N   UNK N   1      25.947  27.450  -3.018  0.00  0.00    -0.352 N 
ATOM     12  HN  UNK N   1      25.474  27.427  -2.115  1.00  0.00     0.166 HD
ENDROOT
BRANCH   8  13
HETATM   13  C   UNK N   1      29.091  23.043  -5.757  0.00  0.00     0.001 A 
HETATM   14  C   UNK N   1      28.698  22.279  -6.866  0.00  0.00     0.014 A 
HETATM   15  C   UNK N   1      29.239  21.002  -7.065  0.00  0.00     0.004 A 
HETATM   16  C   UNK N   1      30.224  20.513  -6.198  0.00  0.00     0.037 A 
HETATM   17  C   UNK N   1      30.639  21.283  -5.098  0.00  0.00     0.069 A 
HETATM   18  C   UNK N   1      30.055  22.525  -4.883  0.00  0.00     0.051 A 
BRANCH  17  19
HETATM   19  O   UNK N   1      31.634  20.887  -4.271  0.00  0.00    -0.356 OA
HETATM   20  C   UNK N   1      31.900  21.493  -3.066  0.00  0.00     0.210 C 
ENDBRANCH  17  19
ENDBRANCH   8  13
BRANCH   8  21
HETATM   21  O   UNK N   1      29.485  25.350  -6.322  0.00  0.00    -0.359 OA
HETATM   22  H   UNK N   1      29.714  26.238  -6.132  0.00  0.00     0.217 HD
ENDBRANCH   8  21
BRANCH   2  23
HETATM   23  C   UNK N   1      27.393  27.392  -7.061  0.00  0.00    -0.019 A 
HETATM   24  C   UNK N   1      28.464  28.105  -7.617  0.00  0.00     0.054 A 
HETATM   25  C   UNK N   1      28.766  28.039  -8.975  0.00  0.00     0.120 A 
HETATM   26  F   UNK N   1      29.757  28.812  -9.485  0.00  0.00    -0.206 F 
HETATM   27  C   UNK N   1      28.046  27.183  -9.801  0.00  0.00     0.084 A 
HETATM   28  C   UNK N   1      27.019  26.404  -9.263  0.00  0.00     0.120 A 
HETATM   29  F   UNK N   1      26.351  25.536 -10.058  0.00  0.00    -0.206 F 
HETATM   30  C   UNK N   1      26.692  26.509  -7.902  0.00  0.00     0.054 A 
ENDBRANCH   2  23
TORSDOF 4
ENDMDL
MODEL 9
REMARK VINA RESULT:      -7.0      7.386     10.490
REMARK  4 active torsions:
REMARK  status: ('A' for Active; 'I' for Inactive)
REMARK    1  A    between atoms: C_2  and  C_3 
REMARK    2  A    between atoms: C_9  and  C_10 
REMARK    3  A    between atoms: C_9  and  O_18 
REMARK    4  A    between atoms: O_14  and  C_15 
ROOT
HETATM    1  C   UNK N   1      32.173  16.753   7.498  0.00  0.00     0.034 C 
HETATM    2  C   UNK N   1      33.344  16.244   6.860  0.00  0.00    -0.009 C 
HETATM    3  C   UNK N   1      34.541  16.291   7.607  0.00  0.00     0.030 C 
HETATM    4  C   UNK N   1      34.568  16.888   8.879  0.00  0.00     0.090 C 
HETATM    5  C   UNK N   1      32.290  17.423   8.689  0.00  0.00     0.117 C 
HETATM    6  C   UNK N   1      30.227  17.902   8.102  0.00  0.00     0.105 C 
HETATM    7  C   UNK N   1      30.747  16.913   7.136  0.00  0.00     0.028 C 
HETATM    8  C   UNK N   1      30.021  16.218   6.228  0.00  0.00     0.088 C 
HETATM    9  N   UNK N   1      31.114  18.126   9.013  0.00  0.00    -0.351 N 
ATOM     10  HN  UNK N   1      30.984  18.717   9.834  1.00  0.00     0.166 HD
HETATM   11  N   UNK N   1      33.460  17.502   9.376  0.00  0.00    -0.352 N 
ATOM     12  HN  UNK N   1      33.506  18.016  10.255  1.00  0.00     0.166 HD
ENDROOT
BRANCH   8  13
HETATM   13  C   UNK N   1      28.671  16.610   5.759  0.00  0.00     0.001 A 
HETATM   14  C   UNK N   1      27.478  16.117   6.309  0.00  0.00     0.014 A 
HETATM   15  C   UNK N   1      26.254  16.709   5.974  0.00  0.00     0.004 A 
HETATM   16  C   UNK N   1      26.222  17.836   5.144  0.00  0.00     0.037 A 
HETATM   17  C   UNK N   1      27.415  18.349   4.608  0.00  0.00     0.069 A 
HETATM   18  C   UNK N   1      28.617  17.720   4.907  0.00  0.00     0.051 A 
BRANCH  17  19
HETATM   19  O   UNK N   1      27.446  19.475   3.859  0.00  0.00    -0.356 OA
HETATM   20  C   UNK N   1      26.319  20.179   3.504  0.00  0.00     0.210 C 
ENDBRANCH  17  19
ENDBRANCH   8  13
BRANCH   8  21
HETATM   21  O   UNK N   1      30.545  15.101   5.691  0.00  0.00    -0.359 OA
HETATM   22  H   UNK N   1      30.838  14.320   6.116  0.00  0.00     0.217 HD
ENDBRANCH   8  21
BRANCH   2  23
HETATM   23  C   UNK N   1      33.448  15.867   5.406  0.00  0.00    -0.019 A 
HETATM   24  C   UNK N   1      32.952  16.704   4.396  0.00  0.00     0.054 A 
HETATM   25  C   UNK N   1      33.088  16.390   3.047  0.00  0.00     0.120 A 
HETATM   26  F   UNK N   1      32.519  17.186   2.107  0.00  0.00    -0.206 F 
HETATM   27  C   UNK N   1      33.804  15.258   2.670  0.00  0.00     0.084 A 
HETATM   28  C   UNK N   1      34.372  14.442   3.650  0.00  0.00     0.120 A 
HETATM   29  F   UNK N   1      35.109  13.368   3.282  0.00  0.00    -0.206 F 
HETATM   30  C   UNK N   1      34.194  14.741   5.010  0.00  0.00     0.054 A 
ENDBRANCH   2  23
TORSDOF 4
ENDMDL
