REMARK  4 active torsions:
REMARK  status: ('A' for Active; 'I' for Inactive)
REMARK    1  A    between atoms: C_2  and  C_3 
REMARK    2  A    between atoms: C_9  and  C_10 
REMARK    3  A    between atoms: C_9  and  O_18 
REMARK    4  A    between atoms: O_14  and  C_15 
ROOT
HETATM    1  C   UNK N   1       1.538  -2.071  -0.196  0.00  0.00     0.034 C 
HETATM    2  C   UNK N   1       2.765  -1.342  -0.160  0.00  0.00    -0.009 C 
HETATM    3  C   UNK N   1       3.952  -2.105  -0.126  0.00  0.00     0.030 C 
HETATM    4  C   UNK N   1       3.900  -3.508  -0.050  0.00  0.00     0.090 C 
HETATM    5  C   UNK N   1       1.554  -3.429  -0.004  0.00  0.00     0.117 C 
HETATM    6  C   UNK N   1      -0.587  -2.971   0.185  0.00  0.00     0.105 C 
HETATM    7  C   UNK N   1       0.099  -1.732  -0.236  0.00  0.00     0.028 C 
HETATM    8  C   UNK N   1      -0.492  -0.601  -0.690  0.00  0.00     0.088 C 
HETATM    9  N   UNK N   1       0.266  -3.938   0.249  0.00  0.00    -0.351 N 
ATOM     10  HN  UNK N   1       0.043  -4.912   0.450  1.00  0.00     0.166 HD
HETATM   11  N   UNK N   1       2.705  -4.147   0.074  0.00  0.00    -0.352 N 
ATOM     12  HN  UNK N   1       2.673  -5.155   0.224  1.00  0.00     0.166 HD
ENDROOT
BRANCH   8  13
HETATM   13  C   UNK N   1      -1.915  -0.251  -0.464  0.00  0.00     0.001 A 
HETATM   14  C   UNK N   1      -2.835  -1.094   0.177  0.00  0.00     0.014 A 
HETATM   15  C   UNK N   1      -4.089  -0.601   0.560  0.00  0.00     0.004 A 
HETATM   16  C   UNK N   1      -4.402   0.750   0.367  0.00  0.00     0.037 A 
HETATM   17  C   UNK N   1      -3.476   1.605  -0.254  0.00  0.00     0.069 A 
HETATM   18  C   UNK N   1      -2.257   1.090  -0.677  0.00  0.00     0.051 A 
BRANCH  17  19
HETATM   19  O   UNK N   1      -3.701   2.931  -0.402  0.00  0.00    -0.356 OA
HETATM   20  C   UNK N   1      -4.752   3.590   0.191  0.00  0.00     0.210 C 
ENDBRANCH  17  19
ENDBRANCH   8  13
BRANCH   8  21
HETATM   21  O   UNK N   1       0.244   0.287  -1.383  0.00  0.00    -0.359 OA
HETATM   22  H   UNK N   1       1.036   0.153  -1.865  0.00  0.00     0.217 HD
ENDBRANCH   8  21
BRANCH   2  23
HETATM   23  C   UNK N   1       2.888   0.143   0.059  0.00  0.00    -0.019 A 
HETATM   24  C   UNK N   1       1.793   0.914   0.473  0.00  0.00     0.054 A 
HETATM   25  C   UNK N   1       1.907   2.278   0.728  0.00  0.00     0.120 A 
HETATM   26  F   UNK N   1       0.804   3.001   1.044  0.00  0.00    -0.206 F 
HETATM   27  C   UNK N   1       3.153   2.892   0.653  0.00  0.00     0.084 A 
HETATM   28  C   UNK N   1       4.277   2.136   0.313  0.00  0.00     0.120 A 
HETATM   29  F   UNK N   1       5.496   2.724   0.287  0.00  0.00    -0.206 F 
HETATM   30  C   UNK N   1       4.147   0.771   0.015  0.00  0.00     0.054 A 
ENDBRANCH   2  23
TORSDOF 4
