MODEL 1
REMARK VINA RESULT:      -6.6      0.000      0.000
REMARK  7 active torsions:
REMARK  status: ('A' for Active; 'I' for Inactive)
REMARK    1  A    between atoms: C_3  and  C_2 
REMARK    2  A    between atoms: C_8  and  O_9 
REMARK    3  A    between atoms: C_10  and  O_9 
REMARK    4  A    between atoms: C_10  and  C_11 
REMARK    5  A    between atoms: C_14  and  C_10 
REMARK    6  A    between atoms: C_11  and  O_12 
REMARK    7  A    between atoms: C_15  and  C_14 
ROOT
HETATM    1  C   UNK N   1      29.090  18.068   8.479  0.00  0.00     0.230 C 
ENDROOT
BRANCH   1   2
HETATM    2  O   UNK N   1      28.440  19.250   8.124  0.00  0.00    -0.335 OA
BRANCH   2   3
HETATM    3  C   UNK N   1      27.963  19.613   6.903  0.00  0.00     0.070 A 
HETATM    4  C   UNK N   1      28.071  18.707   5.842  0.00  0.00     0.037 A 
HETATM    5  C   UNK N   1      27.525  19.014   4.591  0.00  0.00     0.010 A 
HETATM    6  C   UNK N   1      26.883  20.239   4.390  0.00  0.00    -0.058 A 
HETATM    7  C   UNK N   1      26.813  21.169   5.432  0.00  0.00     0.010 A 
HETATM    8  C   UNK N   1      27.350  20.858   6.683  0.00  0.00     0.037 A 
BRANCH   6   9
HETATM    9  C   UNK N   1      26.268  20.544   3.067  0.00  0.00     0.034 C 
HETATM   10  C   UNK N   1      24.778  20.247   3.093  0.00  0.00     0.010 C 
ENDBRANCH   6   9
ENDBRANCH   2   3
ENDBRANCH   1   2
BRANCH   1  11
HETATM   11  C   UNK N   1      28.290  17.168   9.407  0.00  0.00     0.170 C 
HETATM   12  O   UNK N   1      28.725  16.841  10.500  0.00  0.00    -0.648 OA
BRANCH  11  13
HETATM   13  O   UNK N   1      27.074  16.732   9.023  0.00  0.00    -0.774 OA
HETATM   14  H   UNK N   1      26.167  16.966   8.985  0.00  0.00     0.167 HD
ENDBRANCH  11  13
ENDBRANCH   1  11
BRANCH   1  15
HETATM   15  C   UNK N   1      30.493  18.387   9.020  0.00  0.00     0.082 C 
BRANCH  15  16
HETATM   16  C   UNK N   1      31.566  17.932   8.073  0.00  0.00    -0.055 A 
HETATM   17  C   UNK N   1      32.908  18.254   8.318  0.00  0.00     0.007 A 
HETATM   18  C   UNK N   1      33.902  17.860   7.419  0.00  0.00     0.001 A 
HETATM   19  C   UNK N   1      33.558  17.145   6.269  0.00  0.00     0.000 A 
HETATM   20  C   UNK N   1      32.222  16.816   6.023  0.00  0.00     0.001 A 
HETATM   21  C   UNK N   1      31.226  17.208   6.924  0.00  0.00     0.007 A 
ENDBRANCH  15  16
ENDBRANCH   1  15
TORSDOF 7
ENDMDL
MODEL 2
REMARK VINA RESULT:      -6.5      5.657     10.076
REMARK  7 active torsions:
REMARK  status: ('A' for Active; 'I' for Inactive)
REMARK    1  A    between atoms: C_3  and  C_2 
REMARK    2  A    between atoms: C_8  and  O_9 
REMARK    3  A    between atoms: C_10  and  O_9 
REMARK    4  A    between atoms: C_10  and  C_11 
REMARK    5  A    between atoms: C_14  and  C_10 
REMARK    6  A    between atoms: C_11  and  O_12 
REMARK    7  A    between atoms: C_15  and  C_14 
ROOT
HETATM    1  C   UNK N   1      21.173  19.834   2.068  0.00  0.00     0.230 C 
ENDROOT
BRANCH   1   2
HETATM    2  O   UNK N   1      22.056  20.316   3.034  0.00  0.00    -0.335 OA
BRANCH   2   3
HETATM    3  C   UNK N   1      23.329  19.907   3.287  0.00  0.00     0.070 A 
HETATM    4  C   UNK N   1      24.392  20.665   2.782  0.00  0.00     0.037 A 
HETATM    5  C   UNK N   1      25.713  20.318   3.083  0.00  0.00     0.010 A 
HETATM    6  C   UNK N   1      25.980  19.200   3.879  0.00  0.00    -0.058 A 
HETATM    7  C   UNK N   1      24.924  18.411   4.347  0.00  0.00     0.010 A 
HETATM    8  C   UNK N   1      23.605  18.762   4.053  0.00  0.00     0.037 A 
BRANCH   6   9
HETATM    9  C   UNK N   1      27.387  18.859   4.230  0.00  0.00     0.034 C 
HETATM   10  C   UNK N   1      28.095  20.070   4.816  0.00  0.00     0.010 C 
ENDBRANCH   6   9
ENDBRANCH   2   3
ENDBRANCH   1   2
BRANCH   1  11
HETATM   11  C   UNK N   1      20.802  20.849   0.998  0.00  0.00     0.170 C 
HETATM   12  O   UNK N   1      20.783  22.045   1.242  0.00  0.00    -0.648 OA
BRANCH  11  13
HETATM   13  O   UNK N   1      20.499  20.423  -0.244  0.00  0.00    -0.774 OA
HETATM   14  H   UNK N   1      19.980  20.614  -1.000  0.00  0.00     0.167 HD
ENDBRANCH  11  13
ENDBRANCH   1  11
BRANCH   1  15
HETATM   15  C   UNK N   1      19.944  19.211   2.751  0.00  0.00     0.082 C 
BRANCH  15  16
HETATM   16  C   UNK N   1      19.914  17.720   2.575  0.00  0.00    -0.055 A 
HETATM   17  C   UNK N   1      19.814  16.878   3.692  0.00  0.00     0.007 A 
HETATM   18  C   UNK N   1      19.821  15.491   3.531  0.00  0.00     0.001 A 
HETATM   19  C   UNK N   1      19.928  14.938   2.252  0.00  0.00     0.000 A 
HETATM   20  C   UNK N   1      20.021  15.773   1.135  0.00  0.00     0.001 A 
HETATM   21  C   UNK N   1      20.012  17.163   1.295  0.00  0.00     0.007 A 
ENDBRANCH  15  16
ENDBRANCH   1  15
TORSDOF 7
ENDMDL
MODEL 3
REMARK VINA RESULT:      -6.4      3.679      6.677
REMARK  7 active torsions:
REMARK  status: ('A' for Active; 'I' for Inactive)
REMARK    1  A    between atoms: C_3  and  C_2 
REMARK    2  A    between atoms: C_8  and  O_9 
REMARK    3  A    between atoms: C_10  and  O_9 
REMARK    4  A    between atoms: C_10  and  C_11 
REMARK    5  A    between atoms: C_14  and  C_10 
REMARK    6  A    between atoms: C_11  and  O_12 
REMARK    7  A    between atoms: C_15  and  C_14 
ROOT
HETATM    1  C   UNK N   1      33.496  18.084   7.495  0.00  0.00     0.230 C 
ENDROOT
BRANCH   1   2
HETATM    2  O   UNK N   1      34.038  17.938   6.219  0.00  0.00    -0.335 OA
BRANCH   2   3
HETATM    3  C   UNK N   1      33.842  16.924   5.333  0.00  0.00     0.070 A 
HETATM    4  C   UNK N   1      32.965  17.126   4.262  0.00  0.00     0.037 A 
HETATM    5  C   UNK N   1      32.794  16.134   3.291  0.00  0.00     0.010 A 
HETATM    6  C   UNK N   1      33.487  14.925   3.395  0.00  0.00    -0.058 A 
HETATM    7  C   UNK N   1      34.329  14.697   4.489  0.00  0.00     0.010 A 
HETATM    8  C   UNK N   1      34.506  15.691   5.453  0.00  0.00     0.037 A 
BRANCH   6   9
HETATM    9  C   UNK N   1      33.332  13.888   2.336  0.00  0.00     0.034 C 
HETATM   10  C   UNK N   1      34.686  13.527   1.746  0.00  0.00     0.010 C 
ENDBRANCH   6   9
ENDBRANCH   2   3
ENDBRANCH   1   2
BRANCH   1  11
HETATM   11  C   UNK N   1      34.529  18.274   8.595  0.00  0.00     0.170 C 
HETATM   12  O   UNK N   1      35.361  19.165   8.533  0.00  0.00    -0.648 OA
BRANCH  11  13
HETATM   13  O   UNK N   1      34.520  17.452   9.662  0.00  0.00    -0.774 OA
HETATM   14  H   UNK N   1      34.576  17.431  10.598  0.00  0.00     0.167 HD
ENDBRANCH  11  13
ENDBRANCH   1  11
BRANCH   1  15
HETATM   15  C   UNK N   1      32.523  16.930   7.783  0.00  0.00     0.082 C 
BRANCH  15  16
HETATM   16  C   UNK N   1      31.101  17.410   7.847  0.00  0.00    -0.055 A 
HETATM   17  C   UNK N   1      30.672  18.208   8.917  0.00  0.00     0.007 A 
HETATM   18  C   UNK N   1      29.341  18.626   8.994  0.00  0.00     0.001 A 
HETATM   19  C   UNK N   1      28.433  18.247   8.002  0.00  0.00     0.000 A 
HETATM   20  C   UNK N   1      28.858  17.457   6.930  0.00  0.00     0.001 A 
HETATM   21  C   UNK N   1      30.191  17.040   6.850  0.00  0.00     0.007 A 
ENDBRANCH  15  16
ENDBRANCH   1  15
TORSDOF 7
ENDMDL
MODEL 4
REMARK VINA RESULT:      -6.3     11.807     15.717
REMARK  7 active torsions:
REMARK  status: ('A' for Active; 'I' for Inactive)
REMARK    1  A    between atoms: C_3  and  C_2 
REMARK    2  A    between atoms: C_8  and  O_9 
REMARK    3  A    between atoms: C_10  and  O_9 
REMARK    4  A    between atoms: C_10  and  C_11 
REMARK    5  A    between atoms: C_14  and  C_10 
REMARK    6  A    between atoms: C_11  and  O_12 
REMARK    7  A    between atoms: C_15  and  C_14 
ROOT
HETATM    1  C   UNK N   1      25.916  24.553  -7.637  0.00  0.00     0.230 C 
ENDROOT
BRANCH   1   2
HETATM    2  O   UNK N   1      27.206  24.100  -7.362  0.00  0.00    -0.335 OA
BRANCH   2   3
HETATM    3  C   UNK N   1      27.762  23.832  -6.149  0.00  0.00     0.070 A 
HETATM    4  C   UNK N   1      28.933  23.068  -6.100  0.00  0.00     0.037 A 
HETATM    5  C   UNK N   1      29.574  22.834  -4.879  0.00  0.00     0.010 A 
HETATM    6  C   UNK N   1      29.038  23.351  -3.696  0.00  0.00    -0.058 A 
HETATM    7  C   UNK N   1      27.841  24.076  -3.732  0.00  0.00     0.010 A 
HETATM    8  C   UNK N   1      27.207  24.315  -4.953  0.00  0.00     0.037 A 
BRANCH   6   9
HETATM    9  C   UNK N   1      29.747  23.133  -2.403  0.00  0.00     0.034 C 
HETATM   10  C   UNK N   1      31.075  22.433  -2.639  0.00  0.00     0.010 C 
ENDBRANCH   6   9
ENDBRANCH   2   3
ENDBRANCH   1   2
BRANCH   1  11
HETATM   11  C   UNK N   1      25.143  23.681  -8.613  0.00  0.00     0.170 C 
HETATM   12  O   UNK N   1      25.167  23.902  -9.814  0.00  0.00    -0.648 OA
BRANCH  11  13
HETATM   13  O   UNK N   1      24.426  22.639  -8.148  0.00  0.00    -0.774 OA
HETATM   14  H   UNK N   1      24.404  21.704  -8.095  0.00  0.00     0.167 HD
ENDBRANCH  11  13
ENDBRANCH   1  11
BRANCH   1  15
HETATM   15  C   UNK N   1      25.962  26.029  -8.063  0.00  0.00     0.082 C 
BRANCH  15  16
HETATM   16  C   UNK N   1      26.071  26.942  -6.876  0.00  0.00    -0.055 A 
HETATM   17  C   UNK N   1      27.191  27.772  -6.722  0.00  0.00     0.007 A 
HETATM   18  C   UNK N   1      27.308  28.595  -5.599  0.00  0.00     0.001 A 
HETATM   19  C   UNK N   1      26.306  28.592  -4.625  0.00  0.00     0.000 A 
HETATM   20  C   UNK N   1      25.185  27.771  -4.777  0.00  0.00     0.001 A 
HETATM   21  C   UNK N   1      25.066  26.948  -5.901  0.00  0.00     0.007 A 
ENDBRANCH  15  16
ENDBRANCH   1  15
TORSDOF 7
ENDMDL
MODEL 5
REMARK VINA RESULT:      -6.3     10.797     13.227
REMARK  7 active torsions:
REMARK  status: ('A' for Active; 'I' for Inactive)
REMARK    1  A    between atoms: C_3  and  C_2 
REMARK    2  A    between atoms: C_8  and  O_9 
REMARK    3  A    between atoms: C_10  and  O_9 
REMARK    4  A    between atoms: C_10  and  C_11 
REMARK    5  A    between atoms: C_14  and  C_10 
REMARK    6  A    between atoms: C_11  and  O_12 
REMARK    7  A    between atoms: C_15  and  C_14 
ROOT
HETATM    1  C   UNK N   1      30.286  22.848  -3.941  0.00  0.00     0.230 C 
ENDROOT
BRANCH   1   2
HETATM    2  O   UNK N   1      30.172  24.230  -4.084  0.00  0.00    -0.335 OA
BRANCH   2   3
HETATM    3  C   UNK N   1      29.042  24.987  -4.069  0.00  0.00     0.070 A 
HETATM    4  C   UNK N   1      29.152  26.366  -4.281  0.00  0.00     0.037 A 
HETATM    5  C   UNK N   1      28.006  27.165  -4.346  0.00  0.00     0.010 A 
HETATM    6  C   UNK N   1      26.742  26.591  -4.182  0.00  0.00    -0.058 A 
HETATM    7  C   UNK N   1      26.627  25.222  -3.921  0.00  0.00     0.010 A 
HETATM    8  C   UNK N   1      27.771  24.423  -3.865  0.00  0.00     0.037 A 
BRANCH   6   9
HETATM    9  C   UNK N   1      25.522  27.441  -4.292  0.00  0.00     0.034 C 
HETATM   10  C   UNK N   1      24.791  27.151  -5.592  0.00  0.00     0.010 C 
ENDBRANCH   6   9
ENDBRANCH   2   3
ENDBRANCH   1   2
BRANCH   1  11
HETATM   11  C   UNK N   1      30.829  22.402  -2.593  0.00  0.00     0.170 C 
HETATM   12  O   UNK N   1      30.498  22.964  -1.561  0.00  0.00    -0.648 OA
BRANCH  11  13
HETATM   13  O   UNK N   1      31.683  21.361  -2.533  0.00  0.00    -0.774 OA
HETATM   14  H   UNK N   1      32.425  21.021  -2.073  0.00  0.00     0.167 HD
ENDBRANCH  11  13
ENDBRANCH   1  11
BRANCH   1  15
HETATM   15  C   UNK N   1      31.074  22.264  -5.124  0.00  0.00     0.082 C 
BRANCH  15  16
HETATM   16  C   UNK N   1      30.166  21.583  -6.108  0.00  0.00    -0.055 A 
HETATM   17  C   UNK N   1      29.035  22.247  -6.604  0.00  0.00     0.007 A 
HETATM   18  C   UNK N   1      28.172  21.600  -7.493  0.00  0.00     0.001 A 
HETATM   19  C   UNK N   1      28.435  20.286  -7.887  0.00  0.00     0.000 A 
HETATM   20  C   UNK N   1      29.565  19.622  -7.400  0.00  0.00     0.001 A 
HETATM   21  C   UNK N   1      30.430  20.269  -6.513  0.00  0.00     0.007 A 
ENDBRANCH  15  16
ENDBRANCH   1  15
TORSDOF 7
ENDMDL
MODEL 6
REMARK VINA RESULT:      -6.2     13.341     15.400
REMARK  7 active torsions:
REMARK  status: ('A' for Active; 'I' for Inactive)
REMARK    1  A    between atoms: C_3  and  C_2 
REMARK    2  A    between atoms: C_8  and  O_9 
REMARK    3  A    between atoms: C_10  and  O_9 
REMARK    4  A    between atoms: C_10  and  C_11 
REMARK    5  A    between atoms: C_14  and  C_10 
REMARK    6  A    between atoms: C_11  and  O_12 
REMARK    7  A    between atoms: C_15  and  C_14 
ROOT
HETATM    1  C   UNK N   1      25.820  24.095  -7.422  0.00  0.00     0.230 C 
ENDROOT
BRANCH   1   2
HETATM    2  O   UNK N   1      25.209  25.329  -7.200  0.00  0.00    -0.335 OA
BRANCH   2   3
HETATM    3  C   UNK N   1      25.745  26.442  -6.629  0.00  0.00     0.070 A 
HETATM    4  C   UNK N   1      25.108  27.000  -5.515  0.00  0.00     0.037 A 
HETATM    5  C   UNK N   1      25.669  28.098  -4.856  0.00  0.00     0.010 A 
HETATM    6  C   UNK N   1      26.864  28.657  -5.318  0.00  0.00    -0.058 A 
HETATM    7  C   UNK N   1      27.482  28.134  -6.459  0.00  0.00     0.010 A 
HETATM    8  C   UNK N   1      26.925  27.032  -7.112  0.00  0.00     0.037 A 
BRANCH   6   9
HETATM    9  C   UNK N   1      27.478  29.802  -4.588  0.00  0.00     0.034 C 
HETATM   10  C   UNK N   1      26.428  30.530  -3.766  0.00  0.00     0.010 C 
ENDBRANCH   6   9
ENDBRANCH   2   3
ENDBRANCH   1   2
BRANCH   1  11
HETATM   11  C   UNK N   1      25.166  23.260  -8.511  0.00  0.00     0.170 C 
HETATM   12  O   UNK N   1      25.505  23.368  -9.679  0.00  0.00    -0.648 OA
BRANCH  11  13
HETATM   13  O   UNK N   1      24.202  22.378  -8.182  0.00  0.00    -0.774 OA
HETATM   14  H   UNK N   1      23.996  21.464  -8.150  0.00  0.00     0.167 HD
ENDBRANCH  11  13
ENDBRANCH   1  11
BRANCH   1  15
HETATM   15  C   UNK N   1      25.960  23.337  -6.092  0.00  0.00     0.082 C 
BRANCH  15  16
HETATM   16  C   UNK N   1      27.304  23.570  -5.464  0.00  0.00    -0.055 A 
HETATM   17  C   UNK N   1      27.413  24.317  -4.283  0.00  0.00     0.007 A 
HETATM   18  C   UNK N   1      28.667  24.563  -3.718  0.00  0.00     0.001 A 
HETATM   19  C   UNK N   1      29.818  24.064  -4.333  0.00  0.00     0.000 A 
HETATM   20  C   UNK N   1      29.714  23.312  -5.507  0.00  0.00     0.001 A 
HETATM   21  C   UNK N   1      28.460  23.064  -6.072  0.00  0.00     0.007 A 
ENDBRANCH  15  16
ENDBRANCH   1  15
TORSDOF 7
ENDMDL
MODEL 7
REMARK VINA RESULT:      -6.0     11.062     13.227
REMARK  7 active torsions:
REMARK  status: ('A' for Active; 'I' for Inactive)
REMARK    1  A    between atoms: C_3  and  C_2 
REMARK    2  A    between atoms: C_8  and  O_9 
REMARK    3  A    between atoms: C_10  and  O_9 
REMARK    4  A    between atoms: C_10  and  C_11 
REMARK    5  A    between atoms: C_14  and  C_10 
REMARK    6  A    between atoms: C_11  and  O_12 
REMARK    7  A    between atoms: C_15  and  C_14 
ROOT
HETATM    1  C   UNK N   1      30.080  22.301  -3.855  0.00  0.00     0.230 C 
ENDROOT
BRANCH   1   2
HETATM    2  O   UNK N   1      29.653  23.442  -3.175  0.00  0.00    -0.335 OA
BRANCH   2   3
HETATM    3  C   UNK N   1      28.721  24.353  -3.565  0.00  0.00     0.070 A 
HETATM    4  C   UNK N   1      27.367  24.011  -3.475  0.00  0.00     0.037 A 
HETATM    5  C   UNK N   1      26.379  24.947  -3.796  0.00  0.00     0.010 A 
HETATM    6  C   UNK N   1      26.740  26.227  -4.226  0.00  0.00    -0.058 A 
HETATM    7  C   UNK N   1      28.091  26.560  -4.365  0.00  0.00     0.010 A 
HETATM    8  C   UNK N   1      29.077  25.628  -4.036  0.00  0.00     0.037 A 
BRANCH   6   9
HETATM    9  C   UNK N   1      25.682  27.233  -4.528  0.00  0.00     0.034 C 
HETATM   10  C   UNK N   1      25.068  26.963  -5.892  0.00  0.00     0.010 C 
ENDBRANCH   6   9
ENDBRANCH   2   3
ENDBRANCH   1   2
BRANCH   1  11
HETATM   11  C   UNK N   1      31.201  21.543  -3.162  0.00  0.00     0.170 C 
HETATM   12  O   UNK N   1      31.799  22.027  -2.215  0.00  0.00    -0.648 OA
BRANCH  11  13
HETATM   13  O   UNK N   1      31.533  20.310  -3.593  0.00  0.00    -0.774 OA
HETATM   14  H   UNK N   1      31.959  19.843  -4.286  0.00  0.00     0.167 HD
ENDBRANCH  11  13
ENDBRANCH   1  11
BRANCH   1  15
HETATM   15  C   UNK N   1      30.413  22.657  -5.313  0.00  0.00     0.082 C 
BRANCH  15  16
HETATM   16  C   UNK N   1      29.581  21.862  -6.278  0.00  0.00    -0.055 A 
HETATM   17  C   UNK N   1      30.010  20.598  -6.706  0.00  0.00     0.007 A 
HETATM   18  C   UNK N   1      29.253  19.874  -7.631  0.00  0.00     0.001 A 
HETATM   19  C   UNK N   1      28.065  20.411  -8.133  0.00  0.00     0.000 A 
HETATM   20  C   UNK N   1      27.630  21.669  -7.704  0.00  0.00     0.001 A 
HETATM   21  C   UNK N   1      28.386  22.394  -6.777  0.00  0.00     0.007 A 
ENDBRANCH  15  16
ENDBRANCH   1  15
TORSDOF 7
ENDMDL
MODEL 8
REMARK VINA RESULT:      -6.0     13.645     15.630
REMARK  7 active torsions:
REMARK  status: ('A' for Active; 'I' for Inactive)
REMARK    1  A    between atoms: C_3  and  C_2 
REMARK    2  A    between atoms: C_8  and  O_9 
REMARK    3  A    between atoms: C_10  and  O_9 
REMARK    4  A    between atoms: C_10  and  C_11 
REMARK    5  A    between atoms: C_14  and  C_10 
REMARK    6  A    between atoms: C_11  and  O_12 
REMARK    7  A    between atoms: C_15  and  C_14 
ROOT
HETATM    1  C   UNK N   1      26.455  26.720  -4.473  0.00  0.00     0.230 C 
ENDROOT
BRANCH   1   2
HETATM    2  O   UNK N   1      26.243  25.341  -4.442  0.00  0.00    -0.335 OA
BRANCH   2   3
HETATM    3  C   UNK N   1      26.737  24.396  -5.288  0.00  0.00     0.070 A 
HETATM    4  C   UNK N   1      28.120  24.188  -5.331  0.00  0.00     0.037 A 
HETATM    5  C   UNK N   1      28.658  23.176  -6.131  0.00  0.00     0.010 A 
HETATM    6  C   UNK N   1      27.816  22.375  -6.908  0.00  0.00    -0.058 A 
HETATM    7  C   UNK N   1      26.437  22.609  -6.908  0.00  0.00     0.010 A 
HETATM    8  C   UNK N   1      25.900  23.614  -6.101  0.00  0.00     0.037 A 
BRANCH   6   9
HETATM    9  C   UNK N   1      28.392  21.272  -7.728  0.00  0.00     0.034 C 
HETATM   10  C   UNK N   1      29.582  20.649  -7.018  0.00  0.00     0.010 C 
ENDBRANCH   6   9
ENDBRANCH   2   3
ENDBRANCH   1   2
BRANCH   1  11
HETATM   11  C   UNK N   1      25.928  27.460  -3.255  0.00  0.00     0.170 C 
HETATM   12  O   UNK N   1      25.989  26.967  -2.140  0.00  0.00    -0.648 OA
BRANCH  11  13
HETATM   13  O   UNK N   1      25.392  28.688  -3.405  0.00  0.00    -0.774 OA
HETATM   14  H   UNK N   1      24.582  29.159  -3.424  0.00  0.00     0.167 HD
ENDBRANCH  11  13
ENDBRANCH   1  11
BRANCH   1  15
HETATM   15  C   UNK N   1      25.931  27.298  -5.797  0.00  0.00     0.082 C 
BRANCH  15  16
HETATM   16  C   UNK N   1      27.053  27.779  -6.671  0.00  0.00    -0.055 A 
HETATM   17  C   UNK N   1      27.762  28.942  -6.336  0.00  0.00     0.007 A 
HETATM   18  C   UNK N   1      28.783  29.408  -7.168  0.00  0.00     0.001 A 
HETATM   19  C   UNK N   1      29.099  28.715  -8.340  0.00  0.00     0.000 A 
HETATM   20  C   UNK N   1      28.399  27.552  -8.674  0.00  0.00     0.001 A 
HETATM   21  C   UNK N   1      27.378  27.083  -7.841  0.00  0.00     0.007 A 
ENDBRANCH  15  16
ENDBRANCH   1  15
TORSDOF 7
ENDMDL
MODEL 9
REMARK VINA RESULT:      -5.9      1.218      1.831
REMARK  7 active torsions:
REMARK  status: ('A' for Active; 'I' for Inactive)
REMARK    1  A    between atoms: C_3  and  C_2 
REMARK    2  A    between atoms: C_8  and  O_9 
REMARK    3  A    between atoms: C_10  and  O_9 
REMARK    4  A    between atoms: C_10  and  C_11 
REMARK    5  A    between atoms: C_14  and  C_10 
REMARK    6  A    between atoms: C_11  and  O_12 
REMARK    7  A    between atoms: C_15  and  C_14 
ROOT
HETATM    1  C   UNK N   1      29.318  17.538   8.023  0.00  0.00     0.230 C 
ENDROOT
BRANCH   1   2
HETATM    2  O   UNK N   1      29.240  18.397   6.926  0.00  0.00    -0.335 OA
BRANCH   2   3
HETATM    3  C   UNK N   1      28.137  18.752   6.213  0.00  0.00     0.070 A 
HETATM    4  C   UNK N   1      27.648  20.057   6.336  0.00  0.00     0.037 A 
HETATM    5  C   UNK N   1      26.562  20.481   5.564  0.00  0.00     0.010 A 
HETATM    6  C   UNK N   1      25.947  19.595   4.674  0.00  0.00    -0.058 A 
HETATM    7  C   UNK N   1      26.400  18.275   4.581  0.00  0.00     0.010 A 
HETATM    8  C   UNK N   1      27.490  17.855   5.347  0.00  0.00     0.037 A 
BRANCH   6   9
HETATM    9  C   UNK N   1      24.816  20.064   3.824  0.00  0.00     0.034 C 
HETATM   10  C   UNK N   1      25.330  20.549   2.479  0.00  0.00     0.010 C 
ENDBRANCH   6   9
ENDBRANCH   2   3
ENDBRANCH   1   2
BRANCH   1  11
HETATM   11  C   UNK N   1      28.747  18.113   9.309  0.00  0.00     0.170 C 
HETATM   12  O   UNK N   1      29.468  18.649  10.136  0.00  0.00    -0.648 OA
BRANCH  11  13
HETATM   13  O   UNK N   1      27.421  18.040   9.537  0.00  0.00    -0.774 OA
HETATM   14  H   UNK N   1      26.729  18.376  10.074  0.00  0.00     0.167 HD
ENDBRANCH  11  13
ENDBRANCH   1  11
BRANCH   1  15
HETATM   15  C   UNK N   1      30.759  17.029   8.184  0.00  0.00     0.082 C 
BRANCH  15  16
HETATM   16  C   UNK N   1      31.444  16.882   6.856  0.00  0.00    -0.055 A 
HETATM   17  C   UNK N   1      32.665  17.528   6.615  0.00  0.00     0.007 A 
HETATM   18  C   UNK N   1      33.285  17.419   5.367  0.00  0.00     0.001 A 
HETATM   19  C   UNK N   1      32.685  16.665   4.354  0.00  0.00     0.000 A 
HETATM   20  C   UNK N   1      31.471  16.014   4.592  0.00  0.00     0.001 A 
HETATM   21  C   UNK N   1      30.851  16.121   5.842  0.00  0.00     0.007 A 
ENDBRANCH  15  16
ENDBRANCH   1  15
TORSDOF 7
ENDMDL
