REMARK  5 active torsions:
REMARK  status: ('A' for Active; 'I' for Inactive)
REMARK    1  A    between atoms: C_9  and  S_10 
REMARK    2  A    between atoms: S_10  and  N_13 
REMARK    3  A    between atoms: C_14  and  N_13 
REMARK    4  A    between atoms: N_19  and  C_20 
REMARK    5  A    between atoms: C_20  and  C_22 
REMARK       I    between atoms: C_22  and  N_24 
ROOT
HETATM    1  C   UNK N   1      -0.179  -3.376  -0.897  0.00  0.00     0.186 A 
HETATM    2  C   UNK N   1      -1.406  -2.546  -0.950  0.00  0.00     0.244 A 
HETATM    3  O   UNK N   1      -2.338  -2.781  -1.698  0.00  0.00    -0.271 OA
HETATM    4  C   UNK N   1       0.622  -2.658   0.210  0.00  0.00     0.055 A 
HETATM    5  C   UNK N   1      -0.210  -1.472   0.708  0.00  0.00     0.129 A 
HETATM    6  N   UNK N   1      -1.414  -1.538  -0.061  0.00  0.00    -0.337 N 
ENDROOT
BRANCH   1   7
HETATM    7  N   UNK N   1      -0.550  -4.738  -0.514  0.00  0.00    -0.301 N 
HETATM    8  H   UNK N   1      -1.515  -5.060  -0.433  0.00  0.00     0.173 HD
BRANCH   7   9
HETATM    9  S   UNK N   1       0.862  -5.773  -0.204  0.00  0.00     0.266 S 
HETATM   10  O   UNK N   1       0.731  -5.814   1.322  0.00  0.00    -0.200 OA
HETATM   11  O   UNK N   1       0.477  -7.238  -0.465  0.00  0.00    -0.200 OA
BRANCH   9  12
HETATM   12  C   UNK N   1       2.587  -5.311  -0.315  0.00  0.00     0.121 A 
HETATM   13  C   UNK N   1       3.055  -4.018  -0.577  0.00  0.00     0.045 A 
HETATM   14  C   UNK N   1       4.401  -3.846  -0.174  0.00  0.00    -0.015 A 
HETATM   15  C   UNK N   1       4.973  -4.978   0.397  0.00  0.00     0.016 A 
HETATM   16  C   UNK N   1       5.112  -2.653  -0.233  0.00  0.00     0.036 A 
HETATM   17  C   UNK N   1       6.261  -4.979   0.918  0.00  0.00     0.021 A 
HETATM   18  S   UNK N   1       3.827  -6.165   0.402  0.00  0.00    -0.076 SA
HETATM   19  C   UNK N   1       6.987  -3.777   0.862  0.00  0.00     0.025 A 
HETATM   20  C   UNK N   1       6.413  -2.619   0.293  0.00  0.00     0.035 A 
HETATM   21 Cl   UNK N   1       7.309  -1.117   0.280  0.00  0.00    -0.084 Cl
ENDBRANCH   9  12
ENDBRANCH   7   9
ENDBRANCH   1   7
BRANCH   6  22
HETATM   22  C   UNK N   1      -2.558  -0.652   0.145  0.00  0.00     0.175 C 
HETATM   23  C   UNK N   1      -2.279   0.391   1.225  0.00  0.00     0.042 C 
BRANCH  22  24
HETATM   24  C   UNK N   1      -3.742  -1.496   0.581  0.00  0.00     0.242 C 
HETATM   25  O   UNK N   1      -3.614  -2.213   1.565  0.00  0.00    -0.271 OA
HETATM   26  N   UNK N   1      -4.921  -1.505  -0.111  0.00  0.00    -0.346 N 
HETATM   27  C   UNK N   1      -6.015  -2.352   0.321  0.00  0.00     0.152 C 
HETATM   28  C   UNK N   1      -5.171  -0.590  -1.204  0.00  0.00     0.152 C 
HETATM   29  C   UNK N   1      -7.312  -1.534   0.333  0.00  0.00     0.187 C 
HETATM   30  O   UNK N   1      -7.017  -0.156   0.340  0.00  0.00    -0.388 OA
HETATM   31  C   UNK N   1      -6.494   0.156  -0.936  0.00  0.00     0.187 C 
ENDBRANCH  22  24
ENDBRANCH   6  22
TORSDOF 5
