MODEL 1
REMARK VINA RESULT:      -8.4      0.000      0.000
REMARK  5 active torsions:
REMARK  status: ('A' for Active; 'I' for Inactive)
REMARK    1  A    between atoms: C_9  and  S_10 
REMARK    2  A    between atoms: S_10  and  N_13 
REMARK    3  A    between atoms: C_14  and  N_13 
REMARK    4  A    between atoms: N_19  and  C_20 
REMARK    5  A    between atoms: C_20  and  C_22 
REMARK       I    between atoms: C_22  and  N_24 
ROOT
HETATM    1  C   UNK N   1      31.735  17.112   8.297  0.00  0.00     0.186 A 
HETATM    2  C   UNK N   1      30.332  17.576   8.406  0.00  0.00     0.244 A 
HETATM    3  O   UNK N   1      29.959  18.382   9.240  0.00  0.00    -0.271 OA
HETATM    4  C   UNK N   1      31.642  16.153   7.090  0.00  0.00     0.055 A 
HETATM    5  C   UNK N   1      30.191  16.145   6.599  0.00  0.00     0.129 A 
HETATM    6  N   UNK N   1      29.519  17.061   7.468  0.00  0.00    -0.337 N 
ENDROOT
BRANCH   1   7
HETATM    7  N   UNK N   1      32.591  18.265   8.020  0.00  0.00    -0.301 N 
HETATM    8  H   UNK N   1      32.243  19.154   7.657  0.00  0.00     0.173 HD
BRANCH   7   9
HETATM    9  S   UNK N   1      34.303  17.953   8.382  0.00  0.00     0.266 S 
HETATM   10  O   UNK N   1      34.716  17.520   6.972  0.00  0.00    -0.200 OA
HETATM   11  O   UNK N   1      35.064  19.288   8.399  0.00  0.00    -0.200 OA
BRANCH   9  12
HETATM   12  C   UNK N   1      34.981  16.573   9.298  0.00  0.00     0.121 A 
HETATM   13  C   UNK N   1      35.412  16.628  10.628  0.00  0.00     0.045 A 
HETATM   14  C   UNK N   1      35.473  15.345  11.223  0.00  0.00    -0.015 A 
HETATM   15  C   UNK N   1      35.093  14.308  10.378  0.00  0.00     0.016 A 
HETATM   16  C   UNK N   1      35.789  15.089  12.552  0.00  0.00     0.036 A 
HETATM   17  C   UNK N   1      35.020  12.988  10.806  0.00  0.00     0.021 A 
HETATM   18  S   UNK N   1      34.687  14.974   8.924  0.00  0.00    -0.076 SA
HETATM   19  C   UNK N   1      35.338  12.720  12.148  0.00  0.00     0.025 A 
HETATM   20  C   UNK N   1      35.716  13.767  13.018  0.00  0.00     0.035 A 
HETATM   21 Cl   UNK N   1      36.056  13.425  14.699  0.00  0.00    -0.084 Cl
ENDBRANCH   9  12
ENDBRANCH   7   9
ENDBRANCH   1   7
BRANCH   6  22
HETATM   22  C   UNK N   1      28.119  17.452   7.309  0.00  0.00     0.175 C 
HETATM   23  C   UNK N   1      27.170  16.301   7.637  0.00  0.00     0.042 C 
BRANCH  22  24
HETATM   24  C   UNK N   1      27.900  17.864   5.865  0.00  0.00     0.242 C 
HETATM   25  O   UNK N   1      27.841  16.987   5.012  0.00  0.00    -0.271 OA
HETATM   26  N   UNK N   1      27.806  19.175   5.491  0.00  0.00    -0.346 N 
HETATM   27  C   UNK N   1      27.631  19.526   4.095  0.00  0.00     0.152 C 
HETATM   28  C   UNK N   1      27.745  20.244   6.465  0.00  0.00     0.152 C 
HETATM   29  C   UNK N   1      26.510  20.565   3.973  0.00  0.00     0.187 C 
HETATM   30  O   UNK N   1      25.716  20.562   5.138  0.00  0.00    -0.388 OA
HETATM   31  C   UNK N   1      26.506  21.115   6.172  0.00  0.00     0.187 C 
ENDBRANCH  22  24
ENDBRANCH   6  22
TORSDOF 5
ENDMDL
MODEL 2
REMARK VINA RESULT:      -8.0      3.188      4.480
REMARK  5 active torsions:
REMARK  status: ('A' for Active; 'I' for Inactive)
REMARK    1  A    between atoms: C_9  and  S_10 
REMARK    2  A    between atoms: S_10  and  N_13 
REMARK    3  A    between atoms: C_14  and  N_13 
REMARK    4  A    between atoms: N_19  and  C_20 
REMARK    5  A    between atoms: C_20  and  C_22 
REMARK       I    between atoms: C_22  and  N_24 
ROOT
HETATM    1  C   UNK N   1      34.445  15.709   9.817  0.00  0.00     0.186 A 
HETATM    2  C   UNK N   1      33.827  16.869   9.132  0.00  0.00     0.244 A 
HETATM    3  O   UNK N   1      34.435  17.892   8.873  0.00  0.00    -0.271 OA
HETATM    4  C   UNK N   1      33.263  14.718   9.855  0.00  0.00     0.055 A 
HETATM    5  C   UNK N   1      32.058  15.386   9.186  0.00  0.00     0.129 A 
HETATM    6  N   UNK N   1      32.546  16.667   8.778  0.00  0.00    -0.337 N 
ENDROOT
BRANCH   1   7
HETATM    7  N   UNK N   1      35.553  15.216   8.999  0.00  0.00    -0.301 N 
HETATM    8  H   UNK N   1      35.654  15.417   8.003  0.00  0.00     0.173 HD
BRANCH   7   9
HETATM    9  S   UNK N   1      36.704  14.227   9.925  0.00  0.00     0.266 S 
HETATM   10  O   UNK N   1      36.759  13.045   8.951  0.00  0.00    -0.200 OA
HETATM   11  O   UNK N   1      38.128  14.746   9.671  0.00  0.00    -0.200 OA
BRANCH   9  12
HETATM   12  C   UNK N   1      36.382  13.319  11.433  0.00  0.00     0.121 A 
HETATM   13  C   UNK N   1      36.610  13.806  12.725  0.00  0.00     0.045 A 
HETATM   14  C   UNK N   1      35.874  13.093  13.702  0.00  0.00    -0.015 A 
HETATM   15  C   UNK N   1      35.081  12.074  13.185  0.00  0.00     0.016 A 
HETATM   16  C   UNK N   1      35.834  13.395  15.058  0.00  0.00     0.036 A 
HETATM   17  C   UNK N   1      34.233  11.314  13.981  0.00  0.00     0.021 A 
HETATM   18  S   UNK N   1      35.291  12.063  11.548  0.00  0.00    -0.076 SA
HETATM   19  C   UNK N   1      34.187  11.612  15.353  0.00  0.00     0.025 A 
HETATM   20  C   UNK N   1      34.980  12.651  15.888  0.00  0.00     0.035 A 
HETATM   21 Cl   UNK N   1      34.871  13.046  17.588  0.00  0.00    -0.084 Cl
ENDBRANCH   9  12
ENDBRANCH   7   9
ENDBRANCH   1   7
BRANCH   6  22
HETATM   22  C   UNK N   1      31.762  17.624   8.000  0.00  0.00     0.175 C 
HETATM   23  C   UNK N   1      30.726  18.341   8.863  0.00  0.00     0.042 C 
BRANCH  22  24
HETATM   24  C   UNK N   1      31.038  16.866   6.902  0.00  0.00     0.242 C 
HETATM   25  O   UNK N   1      29.848  16.621   7.053  0.00  0.00    -0.271 OA
HETATM   26  N   UNK N   1      31.681  16.421   5.781  0.00  0.00    -0.346 N 
HETATM   27  C   UNK N   1      30.959  15.672   4.773  0.00  0.00     0.152 C 
HETATM   28  C   UNK N   1      33.052  16.786   5.493  0.00  0.00     0.152 C 
HETATM   29  C   UNK N   1      31.289  16.240   3.388  0.00  0.00     0.187 C 
HETATM   30  O   UNK N   1      31.831  17.535   3.511  0.00  0.00    -0.388 OA
HETATM   31  C   UNK N   1      33.119  17.387   4.074  0.00  0.00     0.187 C 
ENDBRANCH  22  24
ENDBRANCH   6  22
TORSDOF 5
ENDMDL
MODEL 3
REMARK VINA RESULT:      -7.9      4.031      5.740
REMARK  5 active torsions:
REMARK  status: ('A' for Active; 'I' for Inactive)
REMARK    1  A    between atoms: C_9  and  S_10 
REMARK    2  A    between atoms: S_10  and  N_13 
REMARK    3  A    between atoms: C_14  and  N_13 
REMARK    4  A    between atoms: N_19  and  C_20 
REMARK    5  A    between atoms: C_20  and  C_22 
REMARK       I    between atoms: C_22  and  N_24 
ROOT
HETATM    1  C   UNK N   1      34.532  16.630   8.509  0.00  0.00     0.186 A 
HETATM    2  C   UNK N   1      34.589  16.331   7.058  0.00  0.00     0.244 A 
HETATM    3  O   UNK N   1      35.468  15.659   6.550  0.00  0.00    -0.271 OA
HETATM    4  C   UNK N   1      33.236  17.465   8.594  0.00  0.00     0.055 A 
HETATM    5  C   UNK N   1      32.649  17.579   7.183  0.00  0.00     0.129 A 
HETATM    6  N   UNK N   1      33.553  16.832   6.364  0.00  0.00    -0.337 N 
ENDROOT
BRANCH   1   7
HETATM    7  N   UNK N   1      34.424  15.369   9.244  0.00  0.00    -0.301 N 
HETATM    8  H   UNK N   1      33.699  14.673   9.068  0.00  0.00     0.173 HD
BRANCH   7   9
HETATM    9  S   UNK N   1      35.692  15.182  10.476  0.00  0.00     0.266 S 
HETATM   10  O   UNK N   1      36.750  14.559   9.560  0.00  0.00    -0.200 OA
HETATM   11  O   UNK N   1      36.394  16.533  10.683  0.00  0.00    -0.200 OA
BRANCH   9  12
HETATM   12  C   UNK N   1      35.742  13.982  11.802  0.00  0.00     0.121 A 
HETATM   13  C   UNK N   1      36.050  14.274  13.136  0.00  0.00     0.045 A 
HETATM   14  C   UNK N   1      35.591  13.270  14.022  0.00  0.00    -0.015 A 
HETATM   15  C   UNK N   1      34.931  12.217  13.396  0.00  0.00     0.016 A 
HETATM   16  C   UNK N   1      35.679  13.319  15.408  0.00  0.00     0.036 A 
HETATM   17  C   UNK N   1      34.348  11.176  14.108  0.00  0.00     0.021 A 
HETATM   18  S   UNK N   1      34.919  12.531  11.776  0.00  0.00    -0.076 SA
HETATM   19  C   UNK N   1      34.433  11.218  15.510  0.00  0.00     0.025 A 
HETATM   20  C   UNK N   1      35.092  12.287  16.156  0.00  0.00     0.035 A 
HETATM   21 Cl   UNK N   1      35.142  12.352  17.903  0.00  0.00    -0.084 Cl
ENDBRANCH   9  12
ENDBRANCH   7   9
ENDBRANCH   1   7
BRANCH   6  22
HETATM   22  C   UNK N   1      33.338  16.580   4.940  0.00  0.00     0.175 C 
HETATM   23  C   UNK N   1      32.458  17.652   4.302  0.00  0.00     0.042 C 
BRANCH  22  24
HETATM   24  C   UNK N   1      32.647  15.236   4.794  0.00  0.00     0.242 C 
HETATM   25  O   UNK N   1      31.538  15.095   5.294  0.00  0.00    -0.271 OA
HETATM   26  N   UNK N   1      33.240  14.180   4.159  0.00  0.00    -0.346 N 
HETATM   27  C   UNK N   1      32.558  12.904   4.072  0.00  0.00     0.152 C 
HETATM   28  C   UNK N   1      34.491  14.324   3.446  0.00  0.00     0.152 C 
HETATM   29  C   UNK N   1      32.644  12.384   2.632  0.00  0.00     0.187 C 
HETATM   30  O   UNK N   1      32.964  13.438   1.753  0.00  0.00    -0.388 OA
HETATM   31  C   UNK N   1      34.309  13.789   2.011  0.00  0.00     0.187 C 
ENDBRANCH  22  24
ENDBRANCH   6  22
TORSDOF 5
ENDMDL
MODEL 4
REMARK VINA RESULT:      -7.8      2.796      4.066
REMARK  5 active torsions:
REMARK  status: ('A' for Active; 'I' for Inactive)
REMARK    1  A    between atoms: C_9  and  S_10 
REMARK    2  A    between atoms: S_10  and  N_13 
REMARK    3  A    between atoms: C_14  and  N_13 
REMARK    4  A    between atoms: N_19  and  C_20 
REMARK    5  A    between atoms: C_20  and  C_22 
REMARK       I    between atoms: C_22  and  N_24 
ROOT
HETATM    1  C   UNK N   1      34.336  15.906   8.646  0.00  0.00     0.186 A 
HETATM    2  C   UNK N   1      33.105  15.287   8.099  0.00  0.00     0.244 A 
HETATM    3  O   UNK N   1      32.763  14.147   8.354  0.00  0.00    -0.271 OA
HETATM    4  C   UNK N   1      34.257  17.322   8.037  0.00  0.00     0.055 A 
HETATM    5  C   UNK N   1      32.984  17.406   7.189  0.00  0.00     0.129 A 
HETATM    6  N   UNK N   1      32.377  16.119   7.334  0.00  0.00    -0.337 N 
ENDROOT
BRANCH   1   7
HETATM    7  N   UNK N   1      34.241  15.928  10.106  0.00  0.00    -0.301 N 
HETATM    8  H   UNK N   1      33.427  16.275  10.615  0.00  0.00     0.173 HD
BRANCH   7   9
HETATM    9  S   UNK N   1      35.697  15.285  10.898  0.00  0.00     0.266 S 
HETATM   10  O   UNK N   1      36.197  14.448   9.717  0.00  0.00    -0.200 OA
HETATM   11  O   UNK N   1      36.804  16.351  10.855  0.00  0.00    -0.200 OA
BRANCH   9  12
HETATM   12  C   UNK N   1      35.771  14.029  12.170  0.00  0.00     0.121 A 
HETATM   13  C   UNK N   1      36.080  14.267  13.515  0.00  0.00     0.045 A 
HETATM   14  C   UNK N   1      35.639  13.219  14.357  0.00  0.00    -0.015 A 
HETATM   15  C   UNK N   1      34.994  12.184  13.688  0.00  0.00     0.016 A 
HETATM   16  C   UNK N   1      35.732  13.208  15.744  0.00  0.00     0.036 A 
HETATM   17  C   UNK N   1      34.429  11.104  14.355  0.00  0.00     0.021 A 
HETATM   18  S   UNK N   1      34.970  12.569  12.084  0.00  0.00    -0.076 SA
HETATM   19  C   UNK N   1      34.519  11.086  15.758  0.00  0.00     0.025 A 
HETATM   20  C   UNK N   1      35.164  12.135  16.448  0.00  0.00     0.035 A 
HETATM   21 Cl   UNK N   1      35.220  12.125  18.196  0.00  0.00    -0.084 Cl
ENDBRANCH   9  12
ENDBRANCH   7   9
ENDBRANCH   1   7
BRANCH   6  22
HETATM   22  C   UNK N   1      31.075  15.768   6.773  0.00  0.00     0.175 C 
HETATM   23  C   UNK N   1      31.188  15.312   5.320  0.00  0.00     0.042 C 
BRANCH  22  24
HETATM   24  C   UNK N   1      30.185  16.997   6.826  0.00  0.00     0.242 C 
HETATM   25  O   UNK N   1      29.817  17.495   5.770  0.00  0.00    -0.271 OA
HETATM   26  N   UNK N   1      29.821  17.578   8.009  0.00  0.00    -0.346 N 
HETATM   27  C   UNK N   1      28.998  18.771   8.013  0.00  0.00     0.152 C 
HETATM   28  C   UNK N   1      30.122  16.965   9.285  0.00  0.00     0.152 C 
HETATM   29  C   UNK N   1      27.862  18.597   9.029  0.00  0.00     0.187 C 
HETATM   30  O   UNK N   1      27.692  17.233   9.338  0.00  0.00    -0.388 OA
HETATM   31  C   UNK N   1      28.818  16.844  10.099  0.00  0.00     0.187 C 
ENDBRANCH  22  24
ENDBRANCH   6  22
TORSDOF 5
ENDMDL
MODEL 5
REMARK VINA RESULT:      -7.6      4.116      9.728
REMARK  5 active torsions:
REMARK  status: ('A' for Active; 'I' for Inactive)
REMARK    1  A    between atoms: C_9  and  S_10 
REMARK    2  A    between atoms: S_10  and  N_13 
REMARK    3  A    between atoms: C_14  and  N_13 
REMARK    4  A    between atoms: N_19  and  C_20 
REMARK    5  A    between atoms: C_20  and  C_22 
REMARK       I    between atoms: C_22  and  N_24 
ROOT
HETATM    1  C   UNK N   1      32.527  16.795   7.697  0.00  0.00     0.186 A 
HETATM    2  C   UNK N   1      32.944  15.884   8.790  0.00  0.00     0.244 A 
HETATM    3  O   UNK N   1      32.368  14.842   9.045  0.00  0.00    -0.271 OA
HETATM    4  C   UNK N   1      33.594  17.905   7.807  0.00  0.00     0.055 A 
HETATM    5  C   UNK N   1      34.543  17.542   8.954  0.00  0.00     0.129 A 
HETATM    6  N   UNK N   1      34.046  16.293   9.441  0.00  0.00    -0.337 N 
ENDROOT
BRANCH   1   7
HETATM    7  N   UNK N   1      32.610  16.074   6.427  0.00  0.00    -0.301 N 
HETATM    8  H   UNK N   1      33.489  15.853   5.958  0.00  0.00     0.173 HD
BRANCH   7   9
HETATM    9  S   UNK N   1      31.014  15.622   5.788  0.00  0.00     0.266 S 
HETATM   10  O   UNK N   1      31.421  15.538   4.313  0.00  0.00    -0.200 OA
HETATM   11  O   UNK N   1      30.793  14.117   6.008  0.00  0.00    -0.200 OA
BRANCH   9  12
HETATM   12  C   UNK N   1      29.580  16.678   5.613  0.00  0.00     0.121 A 
HETATM   13  C   UNK N   1      29.100  17.547   6.600  0.00  0.00     0.045 A 
HETATM   14  C   UNK N   1      28.265  18.555   6.063  0.00  0.00    -0.015 A 
HETATM   15  C   UNK N   1      28.100  18.482   4.683  0.00  0.00     0.016 A 
HETATM   16  C   UNK N   1      27.705  19.605   6.782  0.00  0.00     0.036 A 
HETATM   17  C   UNK N   1      27.374  19.427   3.969  0.00  0.00     0.021 A 
HETATM   18  S   UNK N   1      28.976  17.191   4.146  0.00  0.00    -0.076 SA
HETATM   19  C   UNK N   1      26.805  20.492   4.689  0.00  0.00     0.025 A 
HETATM   20  C   UNK N   1      26.974  20.581   6.088  0.00  0.00     0.035 A 
HETATM   21 Cl   UNK N   1      26.306  21.941   6.963  0.00  0.00    -0.084 Cl
ENDBRANCH   9  12
ENDBRANCH   7   9
ENDBRANCH   1   7
BRANCH   6  22
HETATM   22  C   UNK N   1      34.705  15.508  10.484  0.00  0.00     0.175 C 
HETATM   23  C   UNK N   1      35.639  16.368  11.333  0.00  0.00     0.042 C 
BRANCH  22  24
HETATM   24  C   UNK N   1      35.524  14.419   9.815  0.00  0.00     0.242 C 
HETATM   25  O   UNK N   1      36.059  14.669   8.743  0.00  0.00    -0.271 OA
HETATM   26  N   UNK N   1      35.646  13.169  10.355  0.00  0.00    -0.346 N 
HETATM   27  C   UNK N   1      36.410  12.147   9.666  0.00  0.00     0.152 C 
HETATM   28  C   UNK N   1      35.141  12.854  11.674  0.00  0.00     0.152 C 
HETATM   29  C   UNK N   1      37.349  11.460  10.664  0.00  0.00     0.187 C 
HETATM   30  O   UNK N   1      37.510  12.262  11.811  0.00  0.00    -0.388 OA
HETATM   31  C   UNK N   1      36.280  12.231  12.507  0.00  0.00     0.187 C 
ENDBRANCH  22  24
ENDBRANCH   6  22
TORSDOF 5
ENDMDL
MODEL 6
REMARK VINA RESULT:      -7.5      4.152      9.383
REMARK  5 active torsions:
REMARK  status: ('A' for Active; 'I' for Inactive)
REMARK    1  A    between atoms: C_9  and  S_10 
REMARK    2  A    between atoms: S_10  and  N_13 
REMARK    3  A    between atoms: C_14  and  N_13 
REMARK    4  A    between atoms: N_19  and  C_20 
REMARK    5  A    between atoms: C_20  and  C_22 
REMARK       I    between atoms: C_22  and  N_24 
ROOT
HETATM    1  C   UNK N   1      31.668  17.228   7.473  0.00  0.00     0.186 A 
HETATM    2  C   UNK N   1      33.131  17.067   7.296  0.00  0.00     0.244 A 
HETATM    3  O   UNK N   1      33.928  17.969   7.482  0.00  0.00    -0.271 OA
HETATM    4  C   UNK N   1      31.167  15.806   7.142  0.00  0.00     0.055 A 
HETATM    5  C   UNK N   1      32.383  14.939   6.803  0.00  0.00     0.129 A 
HETATM    6  N   UNK N   1      33.499  15.820   6.957  0.00  0.00    -0.337 N 
ENDROOT
BRANCH   1   7
HETATM    7  N   UNK N   1      31.401  17.598   8.863  0.00  0.00    -0.301 N 
HETATM    8  H   UNK N   1      32.099  17.545   9.606  0.00  0.00     0.173 HD
BRANCH   7   9
HETATM    9  S   UNK N   1      29.730  18.148   9.119  0.00  0.00     0.266 S 
HETATM   10  O   UNK N   1      29.236  16.902   9.861  0.00  0.00    -0.200 OA
HETATM   11  O   UNK N   1      29.696  19.108  10.319  0.00  0.00    -0.200 OA
BRANCH   9  12
HETATM   12  C   UNK N   1      28.431  18.267   7.894  0.00  0.00     0.121 A 
HETATM   13  C   UNK N   1      28.111  19.424   7.174  0.00  0.00     0.045 A 
HETATM   14  C   UNK N   1      27.381  19.136   5.997  0.00  0.00    -0.015 A 
HETATM   15  C   UNK N   1      27.139  17.781   5.795  0.00  0.00     0.016 A 
HETATM   16  C   UNK N   1      26.993  20.068   5.042  0.00  0.00     0.036 A 
HETATM   17  C   UNK N   1      26.501  17.300   4.658  0.00  0.00     0.021 A 
HETATM   18  S   UNK N   1      27.822  16.961   7.054  0.00  0.00    -0.076 SA
HETATM   19  C   UNK N   1      26.105  18.236   3.689  0.00  0.00     0.025 A 
HETATM   20  C   UNK N   1      26.353  19.613   3.878  0.00  0.00     0.035 A 
HETATM   21 Cl   UNK N   1      25.903  20.761   2.638  0.00  0.00    -0.084 Cl
ENDBRANCH   9  12
ENDBRANCH   7   9
ENDBRANCH   1   7
BRANCH   6  22
HETATM   22  C   UNK N   1      34.892  15.395   6.831  0.00  0.00     0.175 C 
HETATM   23  C   UNK N   1      35.251  15.054   5.387  0.00  0.00     0.042 C 
BRANCH  22  24
HETATM   24  C   UNK N   1      35.091  14.156   7.685  0.00  0.00     0.242 C 
HETATM   25  O   UNK N   1      35.150  13.068   7.127  0.00  0.00    -0.271 OA
HETATM   26  N   UNK N   1      35.167  14.219   9.049  0.00  0.00    -0.346 N 
HETATM   27  C   UNK N   1      35.324  13.007   9.828  0.00  0.00     0.152 C 
HETATM   28  C   UNK N   1      35.227  15.482   9.752  0.00  0.00     0.152 C 
HETATM   29  C   UNK N   1      36.432  13.215  10.867  0.00  0.00     0.187 C 
HETATM   30  O   UNK N   1      37.238  14.312  10.504  0.00  0.00    -0.388 OA
HETATM   31  C   UNK N   1      36.453  15.474  10.687  0.00  0.00     0.187 C 
ENDBRANCH  22  24
ENDBRANCH   6  22
TORSDOF 5
ENDMDL
MODEL 7
REMARK VINA RESULT:      -7.4      4.459     10.028
REMARK  5 active torsions:
REMARK  status: ('A' for Active; 'I' for Inactive)
REMARK    1  A    between atoms: C_9  and  S_10 
REMARK    2  A    between atoms: S_10  and  N_13 
REMARK    3  A    between atoms: C_14  and  N_13 
REMARK    4  A    between atoms: N_19  and  C_20 
REMARK    5  A    between atoms: C_20  and  C_22 
REMARK       I    between atoms: C_22  and  N_24 
ROOT
HETATM    1  C   UNK N   1      35.216  15.575   8.460  0.00  0.00     0.186 A 
HETATM    2  C   UNK N   1      36.010  15.363   9.694  0.00  0.00     0.244 A 
HETATM    3  O   UNK N   1      36.203  16.236  10.521  0.00  0.00    -0.271 OA
HETATM    4  C   UNK N   1      35.274  14.172   7.821  0.00  0.00     0.055 A 
HETATM    5  C   UNK N   1      36.095  13.262   8.740  0.00  0.00     0.129 A 
HETATM    6  N   UNK N   1      36.456  14.103   9.838  0.00  0.00    -0.337 N 
ENDROOT
BRANCH   1   7
HETATM    7  N   UNK N   1      33.855  15.954   8.837  0.00  0.00    -0.301 N 
HETATM    8  H   UNK N   1      33.384  15.613   9.676  0.00  0.00     0.173 HD
BRANCH   7   9
HETATM    9  S   UNK N   1      33.106  17.072   7.675  0.00  0.00     0.266 S 
HETATM   10  O   UNK N   1      32.703  18.149   8.687  0.00  0.00    -0.200 OA
HETATM   11  O   UNK N   1      34.210  17.878   6.972  0.00  0.00    -0.200 OA
BRANCH   9  12
HETATM   12  C   UNK N   1      31.532  16.877   6.847  0.00  0.00     0.121 A 
HETATM   13  C   UNK N   1      30.358  17.560   7.187  0.00  0.00     0.045 A 
HETATM   14  C   UNK N   1      29.417  17.562   6.129  0.00  0.00    -0.015 A 
HETATM   15  C   UNK N   1      29.847  16.900   4.984  0.00  0.00     0.016 A 
HETATM   16  C   UNK N   1      28.195  18.225   6.141  0.00  0.00     0.036 A 
HETATM   17  C   UNK N   1      29.090  16.859   3.819  0.00  0.00     0.021 A 
HETATM   18  S   UNK N   1      31.366  16.328   5.281  0.00  0.00    -0.076 SA
HETATM   19  C   UNK N   1      27.854  17.527   3.823  0.00  0.00     0.025 A 
HETATM   20  C   UNK N   1      27.411  18.210   4.977  0.00  0.00     0.035 A 
HETATM   21 Cl   UNK N   1      25.895  19.081   4.947  0.00  0.00    -0.084 Cl
ENDBRANCH   9  12
ENDBRANCH   7   9
ENDBRANCH   1   7
BRANCH   6  22
HETATM   22  C   UNK N   1      37.169  13.630  11.023  0.00  0.00     0.175 C 
HETATM   23  C   UNK N   1      38.313  12.688  10.656  0.00  0.00     0.042 C 
BRANCH  22  24
HETATM   24  C   UNK N   1      36.186  12.879  11.903  0.00  0.00     0.242 C 
HETATM   25  O   UNK N   1      35.738  11.815  11.497  0.00  0.00    -0.271 OA
HETATM   26  N   UNK N   1      35.764  13.373  13.106  0.00  0.00    -0.346 N 
HETATM   27  C   UNK N   1      34.798  12.639  13.899  0.00  0.00     0.152 C 
HETATM   28  C   UNK N   1      36.350  14.560  13.691  0.00  0.00     0.152 C 
HETATM   29  C   UNK N   1      35.282  12.576  15.352  0.00  0.00     0.187 C 
HETATM   30  O   UNK N   1      36.661  12.856  15.418  0.00  0.00    -0.388 OA
HETATM   31  C   UNK N   1      36.813  14.231  15.125  0.00  0.00     0.187 C 
ENDBRANCH  22  24
ENDBRANCH   6  22
TORSDOF 5
ENDMDL
MODEL 8
REMARK VINA RESULT:      -7.4      4.912      9.705
REMARK  5 active torsions:
REMARK  status: ('A' for Active; 'I' for Inactive)
REMARK    1  A    between atoms: C_9  and  S_10 
REMARK    2  A    between atoms: S_10  and  N_13 
REMARK    3  A    between atoms: C_14  and  N_13 
REMARK    4  A    between atoms: N_19  and  C_20 
REMARK    5  A    between atoms: C_20  and  C_22 
REMARK       I    between atoms: C_22  and  N_24 
ROOT
HETATM    1  C   UNK N   1      35.393  15.172   8.858  0.00  0.00     0.186 A 
HETATM    2  C   UNK N   1      36.403  14.588   9.773  0.00  0.00     0.244 A 
HETATM    3  O   UNK N   1      37.463  15.131  10.031  0.00  0.00    -0.271 OA
HETATM    4  C   UNK N   1      34.277  14.108   8.925  0.00  0.00     0.055 A 
HETATM    5  C   UNK N   1      34.733  12.997   9.875  0.00  0.00     0.129 A 
HETATM    6  N   UNK N   1      36.019  13.427  10.330  0.00  0.00    -0.337 N 
ENDROOT
BRANCH   1   7
HETATM    7  N   UNK N   1      34.960  16.460   9.399  0.00  0.00    -0.301 N 
HETATM    8  H   UNK N   1      35.028  16.712  10.385  0.00  0.00     0.173 HD
BRANCH   7   9
HETATM    9  S   UNK N   1      34.300  17.541   8.151  0.00  0.00     0.266 S 
HETATM   10  O   UNK N   1      32.980  17.860   8.861  0.00  0.00    -0.200 OA
HETATM   11  O   UNK N   1      34.936  18.932   8.304  0.00  0.00    -0.200 OA
BRANCH   9  12
HETATM   12  C   UNK N   1      33.642  17.075   6.554  0.00  0.00     0.121 A 
HETATM   13  C   UNK N   1      34.306  16.276   5.615  0.00  0.00     0.045 A 
HETATM   14  C   UNK N   1      33.416  15.708   4.672  0.00  0.00    -0.015 A 
HETATM   15  C   UNK N   1      32.083  16.050   4.871  0.00  0.00     0.016 A 
HETATM   16  C   UNK N   1      33.770  14.811   3.672  0.00  0.00     0.036 A 
HETATM   17  C   UNK N   1      31.057  15.531   4.091  0.00  0.00     0.021 A 
HETATM   18  S   UNK N   1      32.014  17.034   6.194  0.00  0.00    -0.076 SA
HETATM   19  C   UNK N   1      31.406  14.623   3.077  0.00  0.00     0.025 A 
HETATM   20  C   UNK N   1      32.756  14.262   2.871  0.00  0.00     0.035 A 
HETATM   21 Cl   UNK N   1      33.168  13.090   1.641  0.00  0.00    -0.084 Cl
ENDBRANCH   9  12
ENDBRANCH   7   9
ENDBRANCH   1   7
BRANCH   6  22
HETATM   22  C   UNK N   1      36.801  12.719  11.342  0.00  0.00     0.175 C 
HETATM   23  C   UNK N   1      37.513  11.501  10.758  0.00  0.00     0.042 C 
BRANCH  22  24
HETATM   24  C   UNK N   1      35.855  12.251  12.433  0.00  0.00     0.242 C 
HETATM   25  O   UNK N   1      35.323  11.155  12.310  0.00  0.00    -0.271 OA
HETATM   26  N   UNK N   1      35.555  13.028  13.517  0.00  0.00    -0.346 N 
HETATM   27  C   UNK N   1      34.620  12.556  14.518  0.00  0.00     0.152 C 
HETATM   28  C   UNK N   1      36.244  14.274  13.776  0.00  0.00     0.152 C 
HETATM   29  C   UNK N   1      35.214  12.787  15.913  0.00  0.00     0.187 C 
HETATM   30  O   UNK N   1      36.606  12.982  15.821  0.00  0.00    -0.388 OA
HETATM   31  C   UNK N   1      36.803  14.244  15.214  0.00  0.00     0.187 C 
ENDBRANCH  22  24
ENDBRANCH   6  22
TORSDOF 5
ENDMDL
MODEL 9
REMARK VINA RESULT:      -7.4      4.315      9.730
REMARK  5 active torsions:
REMARK  status: ('A' for Active; 'I' for Inactive)
REMARK    1  A    between atoms: C_9  and  S_10 
REMARK    2  A    between atoms: S_10  and  N_13 
REMARK    3  A    between atoms: C_14  and  N_13 
REMARK    4  A    between atoms: N_19  and  C_20 
REMARK    5  A    between atoms: C_20  and  C_22 
REMARK       I    between atoms: C_22  and  N_24 
ROOT
HETATM    1  C   UNK N   1      34.406  15.926   9.637  0.00  0.00     0.186 A 
HETATM    2  C   UNK N   1      34.417  14.594  10.287  0.00  0.00     0.244 A 
HETATM    3  O   UNK N   1      33.836  13.625   9.832  0.00  0.00    -0.271 OA
HETATM    4  C   UNK N   1      35.299  16.738  10.600  0.00  0.00     0.055 A 
HETATM    5  C   UNK N   1      35.754  15.807  11.728  0.00  0.00     0.129 A 
HETATM    6  N   UNK N   1      35.168  14.544  11.401  0.00  0.00    -0.337 N 
ENDROOT
BRANCH   1   7
HETATM    7  N   UNK N   1      35.001  15.804   8.306  0.00  0.00    -0.301 N 
HETATM    8  H   UNK N   1      35.839  15.256   8.109  0.00  0.00     0.173 HD
BRANCH   7   9
HETATM    9  S   UNK N   1      34.106  16.714   7.068  0.00  0.00     0.266 S 
HETATM   10  O   UNK N   1      34.733  18.082   7.354  0.00  0.00    -0.200 OA
HETATM   11  O   UNK N   1      34.769  16.485   5.701  0.00  0.00    -0.200 OA
BRANCH   9  12
HETATM   12  C   UNK N   1      32.382  17.192   7.112  0.00  0.00     0.121 A 
HETATM   13  C   UNK N   1      31.387  16.681   6.270  0.00  0.00     0.045 A 
HETATM   14  C   UNK N   1      30.089  16.880   6.797  0.00  0.00    -0.015 A 
HETATM   15  C   UNK N   1      30.067  17.527   8.028  0.00  0.00     0.016 A 
HETATM   16  C   UNK N   1      28.909  16.412   6.228  0.00  0.00     0.036 A 
HETATM   17  C   UNK N   1      28.890  17.745   8.734  0.00  0.00     0.021 A 
HETATM   18  S   UNK N   1      31.630  17.842   8.451  0.00  0.00    -0.076 SA
HETATM   19  C   UNK N   1      27.694  17.276   8.165  0.00  0.00     0.025 A 
HETATM   20  C   UNK N   1      27.704  16.610   6.920  0.00  0.00     0.035 A 
HETATM   21 Cl   UNK N   1      26.214  15.984   6.252  0.00  0.00    -0.084 Cl
ENDBRANCH   9  12
ENDBRANCH   7   9
ENDBRANCH   1   7
BRANCH   6  22
HETATM   22  C   UNK N   1      35.416  13.315  12.153  0.00  0.00     0.175 C 
HETATM   23  C   UNK N   1      35.822  13.607  13.596  0.00  0.00     0.042 C 
BRANCH  22  24
HETATM   24  C   UNK N   1      36.545  12.561  11.474  0.00  0.00     0.242 C 
HETATM   25  O   UNK N   1      37.630  13.116  11.362  0.00  0.00    -0.271 OA
HETATM   26  N   UNK N   1      36.373  11.307  10.958  0.00  0.00    -0.346 N 
HETATM   27  C   UNK N   1      37.469  10.635  10.288  0.00  0.00     0.152 C 
HETATM   28  C   UNK N   1      35.154  10.555  11.169  0.00  0.00     0.152 C 
HETATM   29  C   UNK N   1      37.576   9.198  10.812  0.00  0.00     0.187 C 
HETATM   30  O   UNK N   1      36.896   9.077  12.040  0.00  0.00    -0.388 OA
HETATM   31  C   UNK N   1      35.515   9.174  11.754  0.00  0.00     0.187 C 
ENDBRANCH  22  24
ENDBRANCH   6  22
TORSDOF 5
ENDMDL
