MODEL 1
REMARK VINA RESULT:      -8.1      0.000      0.000
REMARK  5 active torsions:
REMARK  status: ('A' for Active; 'I' for Inactive)
REMARK    1  A    between atoms: C_9  and  S_10 
REMARK    2  A    between atoms: S_10  and  N_13 
REMARK    3  A    between atoms: C_14  and  N_13 
REMARK    4  A    between atoms: N_19  and  C_20 
REMARK    5  A    between atoms: C_20  and  C_22 
REMARK       I    between atoms: C_22  and  N_24 
ROOT
HETATM    1  C   UNK N   1      33.900  16.194   8.749  0.00  0.00     0.186 C 
HETATM    2  C   UNK N   1      33.687  17.627   8.240  0.00  0.00     0.055 C 
HETATM    3  C   UNK N   1      32.641  17.552   7.130  0.00  0.00     0.129 C 
HETATM    4  C   UNK N   1      32.666  15.544   8.245  0.00  0.00     0.244 C 
HETATM    5  O   UNK N   1      32.326  14.415   8.563  0.00  0.00    -0.271 OA
HETATM    6  N   UNK N   1      32.007  16.280   7.326  0.00  0.00    -0.337 N 
ENDROOT
BRANCH   1   7
HETATM    7  N   UNK N   1      33.968  16.110  10.205  0.00  0.00    -0.301 N 
HETATM    8  H   UNK N   1      33.242  16.485  10.816  0.00  0.00     0.173 HD
BRANCH   7   9
HETATM    9  S   UNK N   1      35.426  15.294  10.822  0.00  0.00     0.266 S 
HETATM   10  O   UNK N   1      36.529  16.363  10.818  0.00  0.00    -0.200 OA
HETATM   11  O   UNK N   1      35.855  14.496   9.583  0.00  0.00    -0.200 OA
BRANCH   9  12
HETATM   12  C   UNK N   1      35.590  14.160  12.212  0.00  0.00     0.121 A 
HETATM   13  C   UNK N   1      34.853  12.970  12.328  0.00  0.00     0.045 A 
HETATM   14  C   UNK N   1      34.940  12.412  13.631  0.00  0.00    -0.017 A 
HETATM   15  C   UNK N   1      35.714  13.155  14.516  0.00  0.00     0.018 A 
HETATM   16  C   UNK N   1      34.278  11.267  14.070  0.00  0.00     0.014 A 
HETATM   17  C   UNK N   1      35.846  12.817  15.857  0.00  0.00     0.043 A 
HETATM   18  S   UNK N   1      36.296  14.460  13.693  0.00  0.00    -0.076 SA
HETATM   19  C   UNK N   1      35.169  11.674  16.312  0.00  0.00     0.035 A 
HETATM   20 Cl   UNK N   1      35.245  11.235  18.005  0.00  0.00    -0.084 Cl
HETATM   21  C   UNK N   1      34.396  10.899  15.421  0.00  0.00     0.024 A 
ENDBRANCH   9  12
ENDBRANCH   7   9
ENDBRANCH   1   7
BRANCH   6  22
HETATM   22  C   UNK N   1      30.812  15.820   6.595  0.00  0.00     0.175 C 
HETATM   23  C   UNK N   1      31.236  14.898   5.454  0.00  0.00     0.042 C 
BRANCH  22  24
HETATM   24  C   UNK N   1      29.964  16.933   5.953  0.00  0.00     0.242 C 
HETATM   25  O   UNK N   1      30.169  17.273   4.796  0.00  0.00    -0.271 OA
HETATM   26  N   UNK N   1      28.937  17.521   6.639  0.00  0.00    -0.346 N 
HETATM   27  C   UNK N   1      28.104  18.519   5.999  0.00  0.00     0.152 C 
HETATM   28  C   UNK N   1      28.667  17.220   8.028  0.00  0.00     0.152 C 
HETATM   29  C   UNK N   1      28.038  19.738   6.918  0.00  0.00     0.187 C 
HETATM   30  O   UNK N   1      27.559  19.342   8.183  0.00  0.00    -0.388 OA
HETATM   31  C   UNK N   1      28.564  18.551   8.777  0.00  0.00     0.187 C 
ENDBRANCH  22  24
ENDBRANCH   6  22
TORSDOF 5
ENDMDL
MODEL 2
REMARK VINA RESULT:      -7.9      2.290      3.872
REMARK  5 active torsions:
REMARK  status: ('A' for Active; 'I' for Inactive)
REMARK    1  A    between atoms: C_9  and  S_10 
REMARK    2  A    between atoms: S_10  and  N_13 
REMARK    3  A    between atoms: C_14  and  N_13 
REMARK    4  A    between atoms: N_19  and  C_20 
REMARK    5  A    between atoms: C_20  and  C_22 
REMARK       I    between atoms: C_22  and  N_24 
ROOT
HETATM    1  C   UNK N   1      35.362  14.354  10.489  0.00  0.00     0.186 C 
HETATM    2  C   UNK N   1      35.366  15.612  11.370  0.00  0.00     0.055 C 
HETATM    3  C   UNK N   1      35.228  16.810  10.432  0.00  0.00     0.129 C 
HETATM    4  C   UNK N   1      34.761  14.899   9.247  0.00  0.00     0.244 C 
HETATM    5  O   UNK N   1      34.408  14.198   8.311  0.00  0.00    -0.271 OA
HETATM    6  N   UNK N   1      34.732  16.246   9.209  0.00  0.00    -0.337 N 
ENDROOT
BRANCH   1   7
HETATM    7  N   UNK N   1      34.536  13.280  11.033  0.00  0.00    -0.301 N 
HETATM    8  H   UNK N   1      33.566  13.131  10.752  0.00  0.00     0.173 HD
BRANCH   7   9
HETATM    9  S   UNK N   1      35.367  12.253  12.227  0.00  0.00     0.266 S 
HETATM   10  O   UNK N   1      36.865  12.403  11.928  0.00  0.00    -0.200 OA
HETATM   11  O   UNK N   1      35.135  10.862  11.620  0.00  0.00    -0.200 OA
BRANCH   9  12
HETATM   12  C   UNK N   1      35.044  12.074  13.990  0.00  0.00     0.121 A 
HETATM   13  C   UNK N   1      35.091  13.147  14.896  0.00  0.00     0.045 A 
HETATM   14  C   UNK N   1      35.094  12.706  16.246  0.00  0.00    -0.017 A 
HETATM   15  C   UNK N   1      35.064  11.324  16.392  0.00  0.00     0.018 A 
HETATM   16  C   UNK N   1      35.189  13.529  17.368  0.00  0.00     0.014 A 
HETATM   17  C   UNK N   1      35.148  10.703  17.632  0.00  0.00     0.043 A 
HETATM   18  S   UNK N   1      35.009  10.665  14.882  0.00  0.00    -0.076 SA
HETATM   19  C   UNK N   1      35.262  11.522  18.767  0.00  0.00     0.035 A 
HETATM   20 Cl   UNK N   1      35.438  10.796  20.350  0.00  0.00    -0.084 Cl
HETATM   21  C   UNK N   1      35.274  12.927  18.635  0.00  0.00     0.024 A 
ENDBRANCH   9  12
ENDBRANCH   7   9
ENDBRANCH   1   7
BRANCH   6  22
HETATM   22  C   UNK N   1      34.282  17.035   8.048  0.00  0.00     0.175 C 
HETATM   23  C   UNK N   1      34.670  18.499   8.244  0.00  0.00     0.042 C 
BRANCH  22  24
HETATM   24  C   UNK N   1      32.764  17.026   7.794  0.00  0.00     0.242 C 
HETATM   25  O   UNK N   1      31.983  17.098   8.733  0.00  0.00    -0.271 OA
HETATM   26  N   UNK N   1      32.261  16.995   6.522  0.00  0.00    -0.346 N 
HETATM   27  C   UNK N   1      30.831  17.055   6.297  0.00  0.00     0.152 C 
HETATM   28  C   UNK N   1      33.113  16.849   5.362  0.00  0.00     0.152 C 
HETATM   29  C   UNK N   1      30.452  15.907   5.362  0.00  0.00     0.187 C 
HETATM   30  O   UNK N   1      31.208  16.003   4.176  0.00  0.00    -0.388 OA
HETATM   31  C   UNK N   1      32.545  15.710   4.513  0.00  0.00     0.187 C 
ENDBRANCH  22  24
ENDBRANCH   6  22
TORSDOF 5
ENDMDL
MODEL 3
REMARK VINA RESULT:      -7.8      6.024      8.006
REMARK  5 active torsions:
REMARK  status: ('A' for Active; 'I' for Inactive)
REMARK    1  A    between atoms: C_9  and  S_10 
REMARK    2  A    between atoms: S_10  and  N_13 
REMARK    3  A    between atoms: C_14  and  N_13 
REMARK    4  A    between atoms: N_19  and  C_20 
REMARK    5  A    between atoms: C_20  and  C_22 
REMARK       I    between atoms: C_22  and  N_24 
ROOT
HETATM    1  C   UNK N   1      27.718  19.855   7.113  0.00  0.00     0.186 C 
HETATM    2  C   UNK N   1      26.971  21.197   7.088  0.00  0.00     0.055 C 
HETATM    3  C   UNK N   1      26.402  21.361   5.681  0.00  0.00     0.129 C 
HETATM    4  C   UNK N   1      27.119  19.193   5.929  0.00  0.00     0.244 C 
HETATM    5  O   UNK N   1      27.301  18.017   5.656  0.00  0.00    -0.271 OA
HETATM    6  N   UNK N   1      26.436  20.037   5.129  0.00  0.00    -0.337 N 
ENDROOT
BRANCH   1   7
HETATM    7  N   UNK N   1      27.459  19.080   8.322  0.00  0.00    -0.301 N 
HETATM    8  H   UNK N   1      26.565  19.105   8.815  0.00  0.00     0.173 HD
BRANCH   7   9
HETATM    9  S   UNK N   1      28.834  18.087   8.863  0.00  0.00     0.266 S 
HETATM   10  O   UNK N   1      28.217  16.924   9.654  0.00  0.00    -0.200 OA
HETATM   11  O   UNK N   1      29.356  18.930  10.034  0.00  0.00    -0.200 OA
BRANCH   9  12
HETATM   12  C   UNK N   1      30.296  17.576   7.942  0.00  0.00     0.121 A 
HETATM   13  C   UNK N   1      30.266  16.618   6.915  0.00  0.00     0.045 A 
HETATM   14  C   UNK N   1      31.569  16.180   6.556  0.00  0.00    -0.017 A 
HETATM   15  C   UNK N   1      32.590  16.770   7.292  0.00  0.00     0.018 A 
HETATM   16  C   UNK N   1      31.862  15.199   5.610  0.00  0.00     0.014 A 
HETATM   17  C   UNK N   1      33.922  16.405   7.145  0.00  0.00     0.043 A 
HETATM   18  S   UNK N   1      31.895  17.829   8.347  0.00  0.00    -0.076 SA
HETATM   19  C   UNK N   1      34.226  15.406   6.207  0.00  0.00     0.035 A 
HETATM   20 Cl   UNK N   1      35.879  14.858   6.024  0.00  0.00    -0.084 Cl
HETATM   21  C   UNK N   1      33.203  14.812   5.438  0.00  0.00     0.024 A 
ENDBRANCH   9  12
ENDBRANCH   7   9
ENDBRANCH   1   7
BRANCH   6  22
HETATM   22  C   UNK N   1      25.834  19.654   3.838  0.00  0.00     0.175 C 
HETATM   23  C   UNK N   1      26.333  20.593   2.743  0.00  0.00     0.042 C 
BRANCH  22  24
HETATM   24  C   UNK N   1      24.296  19.716   3.786  0.00  0.00     0.242 C 
HETATM   25  O   UNK N   1      23.732  20.764   3.504  0.00  0.00    -0.271 OA
HETATM   26  N   UNK N   1      23.538  18.597   3.995  0.00  0.00    -0.346 N 
HETATM   27  C   UNK N   1      22.095  18.655   3.875  0.00  0.00     0.152 C 
HETATM   28  C   UNK N   1      24.123  17.334   4.392  0.00  0.00     0.152 C 
HETATM   29  C   UNK N   1      21.492  18.035   5.136  0.00  0.00     0.187 C 
HETATM   30  O   UNK N   1      21.985  16.724   5.292  0.00  0.00    -0.388 OA
HETATM   31  C   UNK N   1      23.353  16.833   5.616  0.00  0.00     0.187 C 
ENDBRANCH  22  24
ENDBRANCH   6  22
TORSDOF 5
ENDMDL
MODEL 4
REMARK VINA RESULT:      -7.7      2.095      3.481
REMARK  5 active torsions:
REMARK  status: ('A' for Active; 'I' for Inactive)
REMARK    1  A    between atoms: C_9  and  S_10 
REMARK    2  A    between atoms: S_10  and  N_13 
REMARK    3  A    between atoms: C_14  and  N_13 
REMARK    4  A    between atoms: N_19  and  C_20 
REMARK    5  A    between atoms: C_20  and  C_22 
REMARK       I    between atoms: C_22  and  N_24 
ROOT
HETATM    1  C   UNK N   1      34.314  15.657  10.076  0.00  0.00     0.186 C 
HETATM    2  C   UNK N   1      33.208  14.644   9.747  0.00  0.00     0.055 C 
HETATM    3  C   UNK N   1      32.049  15.433   9.141  0.00  0.00     0.129 C 
HETATM    4  C   UNK N   1      33.897  16.795   9.220  0.00  0.00     0.244 C 
HETATM    5  O   UNK N   1      34.592  17.782   9.033  0.00  0.00    -0.271 OA
HETATM    6  N   UNK N   1      32.639  16.681   8.748  0.00  0.00    -0.337 N 
ENDROOT
BRANCH   1   7
HETATM    7  N   UNK N   1      35.645  15.191   9.700  0.00  0.00    -0.301 N 
HETATM    8  H   UNK N   1      36.195  15.625   8.958  0.00  0.00     0.173 HD
BRANCH   7   9
HETATM    9  S   UNK N   1      36.226  13.800  10.647  0.00  0.00     0.266 S 
HETATM   10  O   UNK N   1      37.756  13.926  10.668  0.00  0.00    -0.200 OA
HETATM   11  O   UNK N   1      36.087  12.671   9.617  0.00  0.00    -0.200 OA
BRANCH   9  12
HETATM   12  C   UNK N   1      35.582  13.130  12.191  0.00  0.00     0.121 A 
HETATM   13  C   UNK N   1      35.786  13.739  13.441  0.00  0.00     0.045 A 
HETATM   14  C   UNK N   1      35.442  12.877  14.516  0.00  0.00    -0.017 A 
HETATM   15  C   UNK N   1      34.995  11.622  14.118  0.00  0.00     0.018 A 
HETATM   16  C   UNK N   1      35.585  13.174  15.871  0.00  0.00     0.014 A 
HETATM   17  C   UNK N   1      34.695  10.615  15.027  0.00  0.00     0.043 A 
HETATM   18  S   UNK N   1      35.001  11.591  12.470  0.00  0.00    -0.076 SA
HETATM   19  C   UNK N   1      34.851  10.898  16.393  0.00  0.00     0.035 A 
HETATM   20 Cl   UNK N   1      34.552   9.648  17.581  0.00  0.00    -0.084 Cl
HETATM   21  C   UNK N   1      35.286  12.174  16.812  0.00  0.00     0.024 A 
ENDBRANCH   9  12
ENDBRANCH   7   9
ENDBRANCH   1   7
BRANCH   6  22
HETATM   22  C   UNK N   1      31.949  17.720   7.961  0.00  0.00     0.175 C 
HETATM   23  C   UNK N   1      30.857  18.363   8.813  0.00  0.00     0.042 C 
BRANCH  22  24
HETATM   24  C   UNK N   1      31.255  17.223   6.680  0.00  0.00     0.242 C 
HETATM   25  O   UNK N   1      30.046  17.040   6.667  0.00  0.00    -0.271 OA
HETATM   26  N   UNK N   1      31.962  17.032   5.525  0.00  0.00    -0.346 N 
HETATM   27  C   UNK N   1      31.284  16.630   4.308  0.00  0.00     0.152 C 
HETATM   28  C   UNK N   1      33.402  17.168   5.472  0.00  0.00     0.152 C 
HETATM   29  C   UNK N   1      32.023  15.420   3.736  0.00  0.00     0.187 C 
HETATM   30  O   UNK N   1      33.377  15.754   3.534  0.00  0.00    -0.388 OA
HETATM   31  C   UNK N   1      33.960  15.906   4.809  0.00  0.00     0.187 C 
ENDBRANCH  22  24
ENDBRANCH   6  22
TORSDOF 5
ENDMDL
MODEL 5
REMARK VINA RESULT:      -7.5      6.268      9.476
REMARK  5 active torsions:
REMARK  status: ('A' for Active; 'I' for Inactive)
REMARK    1  A    between atoms: C_9  and  S_10 
REMARK    2  A    between atoms: S_10  and  N_13 
REMARK    3  A    between atoms: C_14  and  N_13 
REMARK    4  A    between atoms: N_19  and  C_20 
REMARK    5  A    between atoms: C_20  and  C_22 
REMARK       I    between atoms: C_22  and  N_24 
ROOT
HETATM    1  C   UNK N   1      25.332  18.089   4.558  0.00  0.00     0.186 C 
HETATM    2  C   UNK N   1      24.730  19.407   4.049  0.00  0.00     0.055 C 
HETATM    3  C   UNK N   1      23.240  19.158   3.827  0.00  0.00     0.129 C 
HETATM    4  C   UNK N   1      24.104  17.395   5.019  0.00  0.00     0.244 C 
HETATM    5  O   UNK N   1      24.124  16.357   5.662  0.00  0.00    -0.271 OA
HETATM    6  N   UNK N   1      22.965  17.965   4.577  0.00  0.00    -0.337 N 
ENDROOT
BRANCH   1   7
HETATM    7  N   UNK N   1      26.264  18.277   5.665  0.00  0.00    -0.301 N 
HETATM    8  H   UNK N   1      25.958  18.484   6.617  0.00  0.00     0.173 HD
BRANCH   7   9
HETATM    9  S   UNK N   1      27.978  18.114   5.213  0.00  0.00     0.266 S 
HETATM   10  O   UNK N   1      28.398  19.494   4.686  0.00  0.00    -0.200 OA
HETATM   11  O   UNK N   1      27.854  17.370   3.877  0.00  0.00    -0.200 OA
BRANCH   9  12
HETATM   12  C   UNK N   1      29.314  17.295   6.103  0.00  0.00     0.121 A 
HETATM   13  C   UNK N   1      29.979  17.873   7.198  0.00  0.00     0.045 A 
HETATM   14  C   UNK N   1      31.168  17.170   7.531  0.00  0.00    -0.017 A 
HETATM   15  C   UNK N   1      31.432  16.080   6.709  0.00  0.00     0.018 A 
HETATM   16  C   UNK N   1      32.069  17.529   8.532  0.00  0.00     0.014 A 
HETATM   17  C   UNK N   1      32.592  15.324   6.824  0.00  0.00     0.043 A 
HETATM   18  S   UNK N   1      30.207  15.976   5.611  0.00  0.00    -0.076 SA
HETATM   19  C   UNK N   1      33.514  15.688   7.818  0.00  0.00     0.035 A 
HETATM   20 Cl   UNK N   1      35.023  14.813   7.967  0.00  0.00    -0.084 Cl
HETATM   21  C   UNK N   1      33.250  16.780   8.672  0.00  0.00     0.024 A 
ENDBRANCH   9  12
ENDBRANCH   7   9
ENDBRANCH   1   7
BRANCH   6  22
HETATM   22  C   UNK N   1      21.617  17.414   4.806  0.00  0.00     0.175 C 
HETATM   23  C   UNK N   1      20.604  18.172   3.950  0.00  0.00     0.042 C 
BRANCH  22  24
HETATM   24  C   UNK N   1      21.106  17.506   6.255  0.00  0.00     0.242 C 
HETATM   25  O   UNK N   1      21.224  18.548   6.884  0.00  0.00    -0.271 OA
HETATM   26  N   UNK N   1      20.464  16.452   6.845  0.00  0.00    -0.346 N 
HETATM   27  C   UNK N   1      19.927  16.576   8.185  0.00  0.00     0.152 C 
HETATM   28  C   UNK N   1      20.336  15.166   6.192  0.00  0.00     0.152 C 
HETATM   29  C   UNK N   1      20.428  15.387   9.004  0.00  0.00     0.187 C 
HETATM   30  O   UNK N   1      20.054  14.189   8.364  0.00  0.00    -0.388 OA
HETATM   31  C   UNK N   1      20.812  14.099   7.179  0.00  0.00     0.187 C 
ENDBRANCH  22  24
ENDBRANCH   6  22
TORSDOF 5
ENDMDL
MODEL 6
REMARK VINA RESULT:      -7.4      7.717     10.526
REMARK  5 active torsions:
REMARK  status: ('A' for Active; 'I' for Inactive)
REMARK    1  A    between atoms: C_9  and  S_10 
REMARK    2  A    between atoms: S_10  and  N_13 
REMARK    3  A    between atoms: C_14  and  N_13 
REMARK    4  A    between atoms: N_19  and  C_20 
REMARK    5  A    between atoms: C_20  and  C_22 
REMARK       I    between atoms: C_22  and  N_24 
ROOT
HETATM    1  C   UNK N   1      25.195  14.892   2.384  0.00  0.00     0.186 C 
HETATM    2  C   UNK N   1      24.247  14.549   1.226  0.00  0.00     0.055 C 
HETATM    3  C   UNK N   1      22.824  14.749   1.744  0.00  0.00     0.129 C 
HETATM    4  C   UNK N   1      24.286  15.683   3.249  0.00  0.00     0.244 C 
HETATM    5  O   UNK N   1      24.669  16.311   4.225  0.00  0.00    -0.271 OA
HETATM    6  N   UNK N   1      22.985  15.563   2.915  0.00  0.00    -0.337 N 
ENDROOT
BRANCH   1   7
HETATM    7  N   UNK N   1      26.338  15.697   1.966  0.00  0.00    -0.301 N 
HETATM    8  H   UNK N   1      26.250  16.508   1.353  0.00  0.00     0.173 HD
BRANCH   7   9
HETATM    9  S   UNK N   1      27.900  15.144   2.619  0.00  0.00     0.266 S 
HETATM   10  O   UNK N   1      28.544  14.315   1.498  0.00  0.00    -0.200 OA
HETATM   11  O   UNK N   1      27.440  14.001   3.534  0.00  0.00    -0.200 OA
BRANCH   9  12
HETATM   12  C   UNK N   1      29.123  16.064   3.568  0.00  0.00     0.121 A 
HETATM   13  C   UNK N   1      30.390  16.408   3.066  0.00  0.00     0.045 A 
HETATM   14  C   UNK N   1      31.264  16.862   4.090  0.00  0.00    -0.017 A 
HETATM   15  C   UNK N   1      30.700  16.860   5.361  0.00  0.00     0.018 A 
HETATM   16  C   UNK N   1      32.599  17.224   3.915  0.00  0.00     0.014 A 
HETATM   17  C   UNK N   1      31.426  17.187   6.499  0.00  0.00     0.043 A 
HETATM   18  S   UNK N   1      29.146  16.331   5.215  0.00  0.00    -0.076 SA
HETATM   19  C   UNK N   1      32.776  17.536   6.336  0.00  0.00     0.035 A 
HETATM   20 Cl   UNK N   1      33.758  17.895   7.740  0.00  0.00    -0.084 Cl
HETATM   21  C   UNK N   1      33.357  17.562   5.050  0.00  0.00     0.024 A 
ENDBRANCH   9  12
ENDBRANCH   7   9
ENDBRANCH   1   7
BRANCH   6  22
HETATM   22  C   UNK N   1      21.873  16.162   3.676  0.00  0.00     0.175 C 
HETATM   23  C   UNK N   1      20.923  15.062   4.142  0.00  0.00     0.042 C 
BRANCH  22  24
HETATM   24  C   UNK N   1      21.010  17.171   2.896  0.00  0.00     0.242 C 
HETATM   25  O   UNK N   1      20.130  16.775   2.144  0.00  0.00    -0.271 OA
HETATM   26  N   UNK N   1      21.171  18.518   3.069  0.00  0.00    -0.346 N 
HETATM   27  C   UNK N   1      20.305  19.455   2.380  0.00  0.00     0.152 C 
HETATM   28  C   UNK N   1      22.226  19.068   3.893  0.00  0.00     0.152 C 
HETATM   29  C   UNK N   1      21.190  20.489   1.684  0.00  0.00     0.187 C 
HETATM   30  O   UNK N   1      22.027  21.102   2.638  0.00  0.00    -0.388 OA
HETATM   31  C   UNK N   1      22.953  20.128   3.063  0.00  0.00     0.187 C 
ENDBRANCH  22  24
ENDBRANCH   6  22
TORSDOF 5
ENDMDL
MODEL 7
REMARK VINA RESULT:      -7.4      7.732     10.701
REMARK  5 active torsions:
REMARK  status: ('A' for Active; 'I' for Inactive)
REMARK    1  A    between atoms: C_9  and  S_10 
REMARK    2  A    between atoms: S_10  and  N_13 
REMARK    3  A    between atoms: C_14  and  N_13 
REMARK    4  A    between atoms: N_19  and  C_20 
REMARK    5  A    between atoms: C_20  and  C_22 
REMARK       I    between atoms: C_22  and  N_24 
ROOT
HETATM    1  C   UNK N   1      24.750  14.619   2.090  0.00  0.00     0.186 C 
HETATM    2  C   UNK N   1      23.909  14.301   0.844  0.00  0.00     0.055 C 
HETATM    3  C   UNK N   1      22.445  14.467   1.244  0.00  0.00     0.129 C 
HETATM    4  C   UNK N   1      23.758  15.371   2.896  0.00  0.00     0.244 C 
HETATM    5  O   UNK N   1      24.046  15.973   3.920  0.00  0.00    -0.271 OA
HETATM    6  N   UNK N   1      22.492  15.245   2.448  0.00  0.00    -0.337 N 
ENDROOT
BRANCH   1   7
HETATM    7  N   UNK N   1      25.912  15.452   1.796  0.00  0.00    -0.301 N 
HETATM    8  H   UNK N   1      25.915  16.158   1.059  0.00  0.00     0.173 HD
BRANCH   7   9
HETATM    9  S   UNK N   1      27.322  15.131   2.834  0.00  0.00     0.266 S 
HETATM   10  O   UNK N   1      28.413  14.598   1.894  0.00  0.00    -0.200 OA
HETATM   11  O   UNK N   1      26.900  13.810   3.492  0.00  0.00    -0.200 OA
BRANCH   9  12
HETATM   12  C   UNK N   1      28.007  16.138   4.162  0.00  0.00     0.121 A 
HETATM   13  C   UNK N   1      29.345  16.054   4.582  0.00  0.00     0.045 A 
HETATM   14  C   UNK N   1      29.559  16.722   5.818  0.00  0.00    -0.017 A 
HETATM   15  C   UNK N   1      28.415  17.300   6.356  0.00  0.00     0.018 A 
HETATM   16  C   UNK N   1      30.765  16.769   6.516  0.00  0.00     0.014 A 
HETATM   17  C   UNK N   1      28.408  17.921   7.599  0.00  0.00     0.043 A 
HETATM   18  S   UNK N   1      27.173  17.012   5.312  0.00  0.00    -0.076 SA
HETATM   19  C   UNK N   1      29.613  17.959   8.318  0.00  0.00     0.035 A 
HETATM   20 Cl   UNK N   1      29.650  18.669   9.918  0.00  0.00    -0.084 Cl
HETATM   21  C   UNK N   1      30.786  17.393   7.775  0.00  0.00     0.024 A 
ENDBRANCH   9  12
ENDBRANCH   7   9
ENDBRANCH   1   7
BRANCH   6  22
HETATM   22  C   UNK N   1      21.310  15.806   3.128  0.00  0.00     0.175 C 
HETATM   23  C   UNK N   1      20.232  14.731   3.246  0.00  0.00     0.042 C 
BRANCH  22  24
HETATM   24  C   UNK N   1      20.647  17.000   2.418  0.00  0.00     0.242 C 
HETATM   25  O   UNK N   1      19.878  16.812   1.486  0.00  0.00    -0.271 OA
HETATM   26  N   UNK N   1      20.859  18.282   2.848  0.00  0.00    -0.346 N 
HETATM   27  C   UNK N   1      20.175  19.390   2.214  0.00  0.00     0.152 C 
HETATM   28  C   UNK N   1      21.798  18.594   3.904  0.00  0.00     0.152 C 
HETATM   29  C   UNK N   1      21.221  20.444   1.851  0.00  0.00     0.187 C 
HETATM   30  O   UNK N   1      21.929  20.817   3.011  0.00  0.00    -0.388 OA
HETATM   31  C   UNK N   1      22.713  19.709   3.391  0.00  0.00     0.187 C 
ENDBRANCH  22  24
ENDBRANCH   6  22
TORSDOF 5
ENDMDL
MODEL 8
REMARK VINA RESULT:      -7.3      2.542      4.393
REMARK  5 active torsions:
REMARK  status: ('A' for Active; 'I' for Inactive)
REMARK    1  A    between atoms: C_9  and  S_10 
REMARK    2  A    between atoms: S_10  and  N_13 
REMARK    3  A    between atoms: C_14  and  N_13 
REMARK    4  A    between atoms: N_19  and  C_20 
REMARK    5  A    between atoms: C_20  and  C_22 
REMARK       I    between atoms: C_22  and  N_24 
ROOT
HETATM    1  C   UNK N   1      34.667  16.215   8.231  0.00  0.00     0.186 C 
HETATM    2  C   UNK N   1      33.249  16.171   8.818  0.00  0.00     0.055 C 
HETATM    3  C   UNK N   1      32.288  16.521   7.683  0.00  0.00     0.129 C 
HETATM    4  C   UNK N   1      34.360  16.109   6.783  0.00  0.00     0.244 C 
HETATM    5  O   UNK N   1      35.216  15.936   5.928  0.00  0.00    -0.271 OA
HETATM    6  N   UNK N   1      33.061  16.322   6.491  0.00  0.00    -0.337 N 
ENDROOT
BRANCH   1   7
HETATM    7  N   UNK N   1      35.498  15.096   8.663  0.00  0.00    -0.301 N 
HETATM    8  H   UNK N   1      35.709  14.298   8.063  0.00  0.00     0.173 HD
BRANCH   7   9
HETATM    9  S   UNK N   1      36.114  15.244  10.328  0.00  0.00     0.266 S 
HETATM   10  O   UNK N   1      36.247  16.752  10.585  0.00  0.00    -0.200 OA
HETATM   11  O   UNK N   1      37.595  14.900  10.119  0.00  0.00    -0.200 OA
BRANCH   9  12
HETATM   12  C   UNK N   1      35.610  14.349  11.808  0.00  0.00     0.121 A 
HETATM   13  C   UNK N   1      36.138  14.609  13.084  0.00  0.00     0.045 A 
HETATM   14  C   UNK N   1      35.807  13.589  14.016  0.00  0.00    -0.017 A 
HETATM   15  C   UNK N   1      35.052  12.552  13.479  0.00  0.00     0.018 A 
HETATM   16  C   UNK N   1      36.229  13.536  15.343  0.00  0.00     0.014 A 
HETATM   17  C   UNK N   1      34.706  11.424  14.213  0.00  0.00     0.043 A 
HETATM   18  S   UNK N   1      34.780  12.904  11.892  0.00  0.00    -0.076 SA
HETATM   19  C   UNK N   1      35.141  11.353  15.546  0.00  0.00     0.035 A 
HETATM   20 Cl   UNK N   1      34.792   9.927  16.500  0.00  0.00    -0.084 Cl
HETATM   21  C   UNK N   1      35.891  12.406  16.110  0.00  0.00     0.024 A 
ENDBRANCH   9  12
ENDBRANCH   7   9
ENDBRANCH   1   7
BRANCH   6  22
HETATM   22  C   UNK N   1      32.515  16.375   5.122  0.00  0.00     0.175 C 
HETATM   23  C   UNK N   1      31.325  17.331   5.085  0.00  0.00     0.042 C 
BRANCH  22  24
HETATM   24  C   UNK N   1      32.004  15.035   4.565  0.00  0.00     0.242 C 
HETATM   25  O   UNK N   1      31.061  14.466   5.097  0.00  0.00    -0.271 OA
HETATM   26  N   UNK N   1      32.552  14.484   3.438  0.00  0.00    -0.346 N 
HETATM   27  C   UNK N   1      32.015  13.257   2.886  0.00  0.00     0.152 C 
HETATM   28  C   UNK N   1      33.707  15.061   2.784  0.00  0.00     0.152 C 
HETATM   29  C   UNK N   1      33.179  12.291   2.668  0.00  0.00     0.187 C 
HETATM   30  O   UNK N   1      34.142  12.900   1.839  0.00  0.00    -0.388 OA
HETATM   31  C   UNK N   1      34.730  13.942   2.585  0.00  0.00     0.187 C 
ENDBRANCH  22  24
ENDBRANCH   6  22
TORSDOF 5
ENDMDL
MODEL 9
REMARK VINA RESULT:      -7.3      4.347      9.967
REMARK  5 active torsions:
REMARK  status: ('A' for Active; 'I' for Inactive)
REMARK    1  A    between atoms: C_9  and  S_10 
REMARK    2  A    between atoms: S_10  and  N_13 
REMARK    3  A    between atoms: C_14  and  N_13 
REMARK    4  A    between atoms: N_19  and  C_20 
REMARK    5  A    between atoms: C_20  and  C_22 
REMARK       I    between atoms: C_22  and  N_24 
ROOT
HETATM    1  C   UNK N   1      33.988  13.700   9.515  0.00  0.00     0.186 C 
HETATM    2  C   UNK N   1      33.461  12.336   9.046  0.00  0.00     0.055 C 
HETATM    3  C   UNK N   1      34.280  11.270   9.771  0.00  0.00     0.129 C 
HETATM    4  C   UNK N   1      34.684  13.302  10.763  0.00  0.00     0.244 C 
HETATM    5  O   UNK N   1      35.121  14.107  11.571  0.00  0.00    -0.271 OA
HETATM    6  N   UNK N   1      34.877  11.972  10.871  0.00  0.00    -0.337 N 
ENDROOT
BRANCH   1   7
HETATM    7  N   UNK N   1      32.922  14.654   9.803  0.00  0.00    -0.301 N 
HETATM    8  H   UNK N   1      32.378  14.634  10.666  0.00  0.00     0.173 HD
BRANCH   7   9
HETATM    9  S   UNK N   1      32.653  15.858   8.518  0.00  0.00     0.266 S 
HETATM   10  O   UNK N   1      33.517  15.398   7.336  0.00  0.00    -0.200 OA
HETATM   11  O   UNK N   1      33.525  17.016   9.022  0.00  0.00    -0.200 OA
BRANCH   9  12
HETATM   12  C   UNK N   1      31.110  16.612   7.975  0.00  0.00     0.121 A 
HETATM   13  C   UNK N   1      30.735  16.716   6.625  0.00  0.00     0.045 A 
HETATM   14  C   UNK N   1      29.638  17.599   6.442  0.00  0.00    -0.017 A 
HETATM   15  C   UNK N   1      29.176  18.182   7.616  0.00  0.00     0.018 A 
HETATM   16  C   UNK N   1      29.074  17.949   5.216  0.00  0.00     0.014 A 
HETATM   17  C   UNK N   1      28.168  19.138   7.628  0.00  0.00     0.043 A 
HETATM   18  S   UNK N   1      30.090  17.596   8.856  0.00  0.00    -0.076 SA
HETATM   19  C   UNK N   1      27.605  19.510   6.397  0.00  0.00     0.035 A 
HETATM   20 Cl   UNK N   1      26.378  20.757   6.342  0.00  0.00    -0.084 Cl
HETATM   21  C   UNK N   1      28.051  18.912   5.198  0.00  0.00     0.024 A 
ENDBRANCH   9  12
ENDBRANCH   7   9
ENDBRANCH   1   7
BRANCH   6  22
HETATM   22  C   UNK N   1      35.633  11.328  11.962  0.00  0.00     0.175 C 
HETATM   23  C   UNK N   1      35.945   9.882  11.581  0.00  0.00     0.042 C 
BRANCH  22  24
HETATM   24  C   UNK N   1      34.907  11.266  13.318  0.00  0.00     0.242 C 
HETATM   25  O   UNK N   1      33.837  10.682  13.417  0.00  0.00    -0.271 OA
HETATM   26  N   UNK N   1      35.466  11.808  14.443  0.00  0.00    -0.346 N 
HETATM   27  C   UNK N   1      34.804  11.682  15.725  0.00  0.00     0.152 C 
HETATM   28  C   UNK N   1      36.698  12.566  14.400  0.00  0.00     0.152 C 
HETATM   29  C   UNK N   1      34.723  13.074  16.352  0.00  0.00     0.187 C 
HETATM   30  O   UNK N   1      36.020  13.618  16.446  0.00  0.00    -0.388 OA
HETATM   31  C   UNK N   1      36.452  13.888  15.131  0.00  0.00     0.187 C 
ENDBRANCH  22  24
ENDBRANCH   6  22
TORSDOF 5
ENDMDL
