MODEL 1
REMARK VINA RESULT:      -8.1      0.000      0.000
REMARK  7 active torsions:
REMARK  status: ('A' for Active; 'I' for Inactive)
REMARK    1  A    between atoms: C_1  and  N_36 
REMARK       I    between atoms: C_11  and  N_12 
REMARK    2  A    between atoms: N_12  and  C_13 
REMARK    3  A    between atoms: C_14  and  O_15 
REMARK    4  A    between atoms: C_19  and  C_21 
REMARK    5  A    between atoms: C_21  and  S_22 
REMARK       I    between atoms: C_27  and  N_28 
REMARK    6  A    between atoms: C_27  and  C_29 
REMARK    7  A    between atoms: C_35  and  N_36 
ROOT
HETATM    1  C   UNK N   1      29.478  16.321   6.738  0.00  0.00     0.135 A 
HETATM    2  N   UNK N   1      28.545  16.125   5.760  0.00  0.00    -0.175 N 
ATOM      3  HN  UNK N   1      28.742  15.467   5.006  1.00  0.00     0.186 HD
HETATM    4  C   UNK N   1      29.172  17.197   7.768  0.00  0.00     0.054 A 
HETATM    5  C   UNK N   1      27.980  17.832   7.773  0.00  0.00     0.135 A 
HETATM    6  N   UNK N   1      27.832  18.595   8.863  0.00  0.00    -0.351 N 
HETATM    7  C   UNK N   1      28.977  18.437   9.572  0.00  0.00     0.091 A 
HETATM    8  C   UNK N   1      29.842  17.559   8.911  0.00  0.00     0.036 A 
HETATM    9  N   UNK N   1      27.062  17.649   6.800  0.00  0.00    -0.175 N 
ATOM     10  HN  UNK N   1      26.167  18.138   6.831  1.00  0.00     0.186 HD
HETATM   11  C   UNK N   1      27.354  16.793   5.770  0.00  0.00     0.686 A 
HETATM   12  N   UNK N   1      26.392  16.508   4.768  0.00  0.00    -0.189 N 
HETATM   13  H   UNK N   1      27.055  19.152   9.100  0.00  0.00     0.166 HD
HETATM   14  H   UNK N   1      26.575  15.772   4.142  0.00  0.00     0.184 HD
ENDROOT
BRANCH  12  15
HETATM   15  C   UNK N   1      25.176  17.227   4.620  0.00  0.00     0.082 A 
HETATM   16  C   UNK N   1      25.140  18.485   3.959  0.00  0.00     0.096 A 
HETATM   17  C   UNK N   1      23.905  19.127   3.807  0.00  0.00     0.047 A 
HETATM   18  C   UNK N   1      22.729  18.556   4.305  0.00  0.00    -0.042 A 
HETATM   19  C   UNK N   1      22.772  17.337   4.968  0.00  0.00     0.010 A 
HETATM   20  C   UNK N   1      23.984  16.680   5.124  0.00  0.00     0.033 A 
BRANCH  16  21
HETATM   21  O   UNK N   1      26.234  19.103   3.437  0.00  0.00    -0.354 OA
HETATM   22  C   UNK N   1      26.886  20.186   3.980  0.00  0.00     0.210 C 
ENDBRANCH  16  21
BRANCH  18  23
HETATM   23  C   UNK N   1      21.423  19.243   4.132  0.00  0.00     0.178 C 
BRANCH  23  24
HETATM   24  S   UNK N   1      20.607  18.725   2.590  0.00  0.00     0.144 S 
HETATM   25  O   UNK N   1      21.036  19.697   1.482  0.00  0.00    -0.228 OA
HETATM   26  O   UNK N   1      19.122  19.111   2.688  0.00  0.00    -0.228 OA
HETATM   27  C   UNK N   1      20.643  17.045   1.910  0.00  0.00     0.161 C 
ENDBRANCH  23  24
ENDBRANCH  18  23
ENDBRANCH  12  15
BRANCH   1  28
HETATM   28  N   UNK N   1      30.657  15.540   6.784  0.00  0.00    -0.340 N 
HETATM   29  H   UNK N   1      30.588  14.558   6.774  0.00  0.00     0.167 HD
BRANCH  28  30
HETATM   30  C   UNK N   1      31.933  16.150   6.846  0.00  0.00     0.052 A 
HETATM   31  C   UNK N   1      32.847  15.760   7.857  0.00  0.00     0.097 A 
HETATM   32  C   UNK N   1      34.163  16.279   7.810  0.00  0.00     0.134 A 
HETATM   33  F   UNK N   1      35.097  15.909   8.720  0.00  0.00    -0.205 F 
HETATM   34  C   UNK N   1      34.539  17.171   6.802  0.00  0.00     0.043 A 
HETATM   35  C   UNK N   1      33.624  17.563   5.828  0.00  0.00     0.005 A 
HETATM   36  C   UNK N   1      32.334  17.044   5.841  0.00  0.00     0.030 A 
BRANCH  31  37
HETATM   37  C   UNK N   1      32.445  14.783   8.926  0.00  0.00     0.254 C 
HETATM   38  O   UNK N   1      32.313  13.596   8.669  0.00  0.00    -0.268 OA
HETATM   39  N   UNK N   1      32.219  15.199  10.187  0.00  0.00    -0.366 N 
HETATM   40  H   UNK N   1      32.587  15.908  10.763  0.00  0.00     0.159 HD
HETATM   41  H   UNK N   1      31.523  14.670  10.639  0.00  0.00     0.159 HD
ENDBRANCH  31  37
ENDBRANCH  28  30
ENDBRANCH   1  28
TORSDOF 7
ENDMDL
MODEL 2
REMARK VINA RESULT:      -8.1      2.000      2.353
REMARK  7 active torsions:
REMARK  status: ('A' for Active; 'I' for Inactive)
REMARK    1  A    between atoms: C_1  and  N_36 
REMARK       I    between atoms: C_11  and  N_12 
REMARK    2  A    between atoms: N_12  and  C_13 
REMARK    3  A    between atoms: C_14  and  O_15 
REMARK    4  A    between atoms: C_19  and  C_21 
REMARK    5  A    between atoms: C_21  and  S_22 
REMARK       I    between atoms: C_27  and  N_28 
REMARK    6  A    between atoms: C_27  and  C_29 
REMARK    7  A    between atoms: C_35  and  N_36 
ROOT
HETATM    1  C   UNK N   1      29.565  16.620   6.545  0.00  0.00     0.135 A 
HETATM    2  N   UNK N   1      28.621  16.398   5.583  0.00  0.00    -0.175 N 
ATOM      3  HN  UNK N   1      28.842  15.788   4.796  1.00  0.00     0.186 HD
HETATM    4  C   UNK N   1      29.227  17.428   7.619  0.00  0.00     0.054 A 
HETATM    5  C   UNK N   1      27.994  17.976   7.681  0.00  0.00     0.135 A 
HETATM    6  N   UNK N   1      27.823  18.681   8.806  0.00  0.00    -0.351 N 
HETATM    7  C   UNK N   1      28.997  18.576   9.479  0.00  0.00     0.091 A 
HETATM    8  C   UNK N   1      29.902  17.789   8.759  0.00  0.00     0.036 A 
HETATM    9  N   UNK N   1      27.064  17.768   6.725  0.00  0.00    -0.175 N 
ATOM     10  HN  UNK N   1      26.139  18.191   6.799  1.00  0.00     0.186 HD
HETATM   11  C   UNK N   1      27.386  16.979   5.652  0.00  0.00     0.686 A 
HETATM   12  N   UNK N   1      26.419  16.668   4.663  0.00  0.00    -0.189 N 
HETATM   13  H   UNK N   1      27.017  19.171   9.086  0.00  0.00     0.166 HD
HETATM   14  H   UNK N   1      26.636  15.973   4.001  0.00  0.00     0.184 HD
ENDROOT
BRANCH  12  15
HETATM   15  C   UNK N   1      25.152  17.303   4.577  0.00  0.00     0.082 A 
HETATM   16  C   UNK N   1      24.994  18.543   3.897  0.00  0.00     0.096 A 
HETATM   17  C   UNK N   1      23.714  19.101   3.810  0.00  0.00     0.047 A 
HETATM   18  C   UNK N   1      22.609  18.466   4.387  0.00  0.00    -0.042 A 
HETATM   19  C   UNK N   1      22.771  17.266   5.067  0.00  0.00     0.010 A 
HETATM   20  C   UNK N   1      24.031  16.692   5.161  0.00  0.00     0.033 A 
BRANCH  16  21
HETATM   21  O   UNK N   1      26.013  19.219   3.300  0.00  0.00    -0.354 OA
HETATM   22  C   UNK N   1      26.700  20.284   3.836  0.00  0.00     0.210 C 
ENDBRANCH  16  21
BRANCH  18  23
HETATM   23  C   UNK N   1      21.253  19.063   4.282  0.00  0.00     0.178 C 
BRANCH  23  24
HETATM   24  S   UNK N   1      20.474  18.649   2.691  0.00  0.00     0.144 S 
HETATM   25  O   UNK N   1      20.983  19.649   1.644  0.00  0.00    -0.228 OA
HETATM   26  O   UNK N   1      19.004  19.093   2.754  0.00  0.00    -0.228 OA
HETATM   27  C   UNK N   1      20.465  17.001   1.937  0.00  0.00     0.161 C 
ENDBRANCH  23  24
ENDBRANCH  18  23
ENDBRANCH  12  15
BRANCH   1  28
HETATM   28  N   UNK N   1      30.796  15.923   6.528  0.00  0.00    -0.340 N 
HETATM   29  H   UNK N   1      31.068  15.400   7.317  0.00  0.00     0.167 HD
BRANCH  28  30
HETATM   30  C   UNK N   1      31.642  15.967   5.393  0.00  0.00     0.052 A 
HETATM   31  C   UNK N   1      31.708  14.848   4.525  0.00  0.00     0.097 A 
HETATM   32  C   UNK N   1      32.447  14.970   3.324  0.00  0.00     0.134 A 
HETATM   33  F   UNK N   1      32.510  13.953   2.432  0.00  0.00    -0.205 F 
HETATM   34  C   UNK N   1      33.113  16.161   3.019  0.00  0.00     0.043 A 
HETATM   35  C   UNK N   1      33.058  17.245   3.891  0.00  0.00     0.005 A 
HETATM   36  C   UNK N   1      32.315  17.154   5.064  0.00  0.00     0.030 A 
BRANCH  31  37
HETATM   37  C   UNK N   1      30.972  13.577   4.847  0.00  0.00     0.254 C 
HETATM   38  O   UNK N   1      29.753  13.530   4.788  0.00  0.00    -0.268 OA
HETATM   39  N   UNK N   1      31.643  12.467   5.211  0.00  0.00    -0.366 N 
HETATM   40  H   UNK N   1      32.521  12.080   4.988  0.00  0.00     0.159 HD
HETATM   41  H   UNK N   1      31.138  11.914   5.850  0.00  0.00     0.159 HD
ENDBRANCH  31  37
ENDBRANCH  28  30
ENDBRANCH   1  28
TORSDOF 7
ENDMDL
MODEL 3
REMARK VINA RESULT:      -8.1      4.516     10.159
REMARK  7 active torsions:
REMARK  status: ('A' for Active; 'I' for Inactive)
REMARK    1  A    between atoms: C_1  and  N_36 
REMARK       I    between atoms: C_11  and  N_12 
REMARK    2  A    between atoms: N_12  and  C_13 
REMARK    3  A    between atoms: C_14  and  O_15 
REMARK    4  A    between atoms: C_19  and  C_21 
REMARK    5  A    between atoms: C_21  and  S_22 
REMARK       I    between atoms: C_27  and  N_28 
REMARK    6  A    between atoms: C_27  and  C_29 
REMARK    7  A    between atoms: C_35  and  N_36 
ROOT
HETATM    1  C   UNK N   1      24.113  18.586   4.851  0.00  0.00     0.135 A 
HETATM    2  N   UNK N   1      24.773  17.638   5.580  0.00  0.00    -0.175 N 
ATOM      3  HN  UNK N   1      24.239  16.995   6.164  1.00  0.00     0.186 HD
HETATM    4  C   UNK N   1      24.862  19.426   4.041  0.00  0.00     0.054 A 
HETATM    5  C   UNK N   1      26.205  19.294   4.001  0.00  0.00     0.135 A 
HETATM    6  N   UNK N   1      26.759  20.148   3.131  0.00  0.00    -0.351 N 
HETATM    7  C   UNK N   1      25.724  20.848   2.604  0.00  0.00     0.091 A 
HETATM    8  C   UNK N   1      24.512  20.415   3.153  0.00  0.00     0.036 A 
HETATM    9  N   UNK N   1      26.860  18.366   4.731  0.00  0.00    -0.175 N 
ATOM     10  HN  UNK N   1      27.875  18.285   4.679  1.00  0.00     0.186 HD
HETATM   11  C   UNK N   1      26.135  17.534   5.544  0.00  0.00     0.686 A 
HETATM   12  N   UNK N   1      26.769  16.493   6.268  0.00  0.00    -0.189 N 
HETATM   13  H   UNK N   1      27.716  20.246   2.919  0.00  0.00     0.166 HD
HETATM   14  H   UNK N   1      26.203  15.820   6.708  0.00  0.00     0.184 HD
ENDROOT
BRANCH  12  15
HETATM   15  C   UNK N   1      28.178  16.368   6.391  0.00  0.00     0.082 A 
HETATM   16  C   UNK N   1      28.904  17.125   7.352  0.00  0.00     0.096 A 
HETATM   17  C   UNK N   1      30.285  16.929   7.454  0.00  0.00     0.047 A 
HETATM   18  C   UNK N   1      30.949  16.019   6.624  0.00  0.00    -0.042 A 
HETATM   19  C   UNK N   1      30.240  15.297   5.674  0.00  0.00     0.010 A 
HETATM   20  C   UNK N   1      28.867  15.471   5.559  0.00  0.00     0.033 A 
BRANCH  16  21
HETATM   21  O   UNK N   1      28.334  18.021   8.203  0.00  0.00    -0.354 OA
HETATM   22  C   UNK N   1      28.840  18.414   9.420  0.00  0.00     0.210 C 
ENDBRANCH  16  21
BRANCH  18  23
HETATM   23  C   UNK N   1      32.415  15.813   6.747  0.00  0.00     0.178 C 
BRANCH  23  24
HETATM   24  S   UNK N   1      33.317  16.726   5.457  0.00  0.00     0.144 S 
HETATM   25  O   UNK N   1      34.409  15.801   4.903  0.00  0.00    -0.228 OA
HETATM   26  O   UNK N   1      34.211  17.766   6.151  0.00  0.00    -0.228 OA
HETATM   27  C   UNK N   1      32.544  17.584   4.060  0.00  0.00     0.161 C 
ENDBRANCH  23  24
ENDBRANCH  18  23
ENDBRANCH  12  15
BRANCH   1  28
HETATM   28  N   UNK N   1      22.699  18.611   4.802  0.00  0.00    -0.340 N 
HETATM   29  H   UNK N   1      22.205  19.239   5.377  0.00  0.00     0.167 HD
BRANCH  28  30
HETATM   30  C   UNK N   1      21.986  17.745   3.939  0.00  0.00     0.052 A 
HETATM   31  C   UNK N   1      21.081  18.288   2.993  0.00  0.00     0.097 A 
HETATM   32  C   UNK N   1      20.490  17.416   2.048  0.00  0.00     0.134 A 
HETATM   33  F   UNK N   1      19.653  17.882   1.089  0.00  0.00    -0.205 F 
HETATM   34  C   UNK N   1      20.779  16.049   2.067  0.00  0.00     0.043 A 
HETATM   35  C   UNK N   1      21.653  15.524   3.016  0.00  0.00     0.005 A 
HETATM   36  C   UNK N   1      22.264  16.368   3.936  0.00  0.00     0.030 A 
BRANCH  31  37
HETATM   37  C   UNK N   1      20.791  19.763   2.962  0.00  0.00     0.254 C 
HETATM   38  O   UNK N   1      20.318  20.327   3.936  0.00  0.00    -0.268 OA
HETATM   39  N   UNK N   1      21.042  20.490   1.855  0.00  0.00    -0.366 N 
HETATM   40  H   UNK N   1      21.715  20.454   1.137  0.00  0.00     0.159 HD
HETATM   41  H   UNK N   1      20.404  21.229   1.737  0.00  0.00     0.159 HD
ENDBRANCH  31  37
ENDBRANCH  28  30
ENDBRANCH   1  28
TORSDOF 7
ENDMDL
MODEL 4
REMARK VINA RESULT:      -7.7      4.569      9.694
REMARK  7 active torsions:
REMARK  status: ('A' for Active; 'I' for Inactive)
REMARK    1  A    between atoms: C_1  and  N_36 
REMARK       I    between atoms: C_11  and  N_12 
REMARK    2  A    between atoms: N_12  and  C_13 
REMARK    3  A    between atoms: C_14  and  O_15 
REMARK    4  A    between atoms: C_19  and  C_21 
REMARK    5  A    between atoms: C_21  and  S_22 
REMARK       I    between atoms: C_27  and  N_28 
REMARK    6  A    between atoms: C_27  and  C_29 
REMARK    7  A    between atoms: C_35  and  N_36 
ROOT
HETATM    1  C   UNK N   1      25.006  17.461   4.835  0.00  0.00     0.135 A 
HETATM    2  N   UNK N   1      25.860  16.775   5.650  0.00  0.00    -0.175 N 
ATOM      3  HN  UNK N   1      25.544  15.909   6.088  1.00  0.00     0.186 HD
HETATM    4  C   UNK N   1      25.471  18.618   4.228  0.00  0.00     0.054 A 
HETATM    5  C   UNK N   1      26.734  19.035   4.461  0.00  0.00     0.135 A 
HETATM    6  N   UNK N   1      27.030  20.133   3.756  0.00  0.00    -0.351 N 
HETATM    7  C   UNK N   1      25.908  20.423   3.051  0.00  0.00     0.091 A 
HETATM    8  C   UNK N   1      24.906  19.484   3.323  0.00  0.00     0.036 A 
HETATM    9  N   UNK N   1      27.575  18.363   5.277  0.00  0.00    -0.175 N 
ATOM     10  HN  UNK N   1      28.526  18.698   5.433  1.00  0.00     0.186 HD
HETATM   11  C   UNK N   1      27.127  17.223   5.892  0.00  0.00     0.686 A 
HETATM   12  N   UNK N   1      27.997  16.441   6.695  0.00  0.00    -0.189 N 
HETATM   13  H   UNK N   1      27.882  20.626   3.750  0.00  0.00     0.166 HD
HETATM   14  H   UNK N   1      27.691  15.553   6.984  0.00  0.00     0.184 HD
ENDROOT
BRANCH  12  15
HETATM   15  C   UNK N   1      29.287  16.872   7.102  0.00  0.00     0.082 A 
HETATM   16  C   UNK N   1      30.437  16.604   6.309  0.00  0.00     0.096 A 
HETATM   17  C   UNK N   1      31.676  17.090   6.741  0.00  0.00     0.047 A 
HETATM   18  C   UNK N   1      31.793  17.813   7.933  0.00  0.00    -0.042 A 
HETATM   19  C   UNK N   1      30.671  18.054   8.714  0.00  0.00     0.010 A 
HETATM   20  C   UNK N   1      29.430  17.587   8.302  0.00  0.00     0.033 A 
BRANCH  16  21
HETATM   21  O   UNK N   1      30.409  15.919   5.134  0.00  0.00    -0.354 OA
HETATM   22  C   UNK N   1      31.505  15.489   4.422  0.00  0.00     0.210 C 
ENDBRANCH  16  21
BRANCH  18  23
HETATM   23  C   UNK N   1      33.112  18.330   8.378  0.00  0.00     0.178 C 
BRANCH  23  24
HETATM   24  S   UNK N   1      34.222  16.971   8.860  0.00  0.00     0.144 S 
HETATM   25  O   UNK N   1      35.318  17.556   9.761  0.00  0.00    -0.228 OA
HETATM   26  O   UNK N   1      35.082  16.606   7.639  0.00  0.00    -0.228 OA
HETATM   27  C   UNK N   1      33.684  15.396   9.580  0.00  0.00     0.161 C 
ENDBRANCH  23  24
ENDBRANCH  18  23
ENDBRANCH  12  15
BRANCH   1  28
HETATM   28  N   UNK N   1      23.740  16.930   4.496  0.00  0.00    -0.340 N 
HETATM   29  H   UNK N   1      23.597  16.552   3.598  0.00  0.00     0.167 HD
BRANCH  28  30
HETATM   30  C   UNK N   1      22.675  16.933   5.430  0.00  0.00     0.052 A 
HETATM   31  C   UNK N   1      22.366  15.748   6.143  0.00  0.00     0.097 A 
HETATM   32  C   UNK N   1      21.396  15.815   7.172  0.00  0.00     0.134 A 
HETATM   33  F   UNK N   1      21.090  14.728   7.920  0.00  0.00    -0.205 F 
HETATM   34  C   UNK N   1      20.746  17.019   7.456  0.00  0.00     0.043 A 
HETATM   35  C   UNK N   1      21.043  18.171   6.733  0.00  0.00     0.005 A 
HETATM   36  C   UNK N   1      22.012  18.132   5.736  0.00  0.00     0.030 A 
BRANCH  31  37
HETATM   37  C   UNK N   1      23.084  14.460   5.849  0.00  0.00     0.254 C 
HETATM   38  O   UNK N   1      24.248  14.303   6.185  0.00  0.00    -0.268 OA
HETATM   39  N   UNK N   1      22.459  13.456   5.204  0.00  0.00    -0.366 N 
HETATM   40  H   UNK N   1      21.533  13.123   5.166  0.00  0.00     0.159 HD
HETATM   41  H   UNK N   1      23.071  12.933   4.638  0.00  0.00     0.159 HD
ENDBRANCH  31  37
ENDBRANCH  28  30
ENDBRANCH   1  28
TORSDOF 7
ENDMDL
MODEL 5
REMARK VINA RESULT:      -7.7      4.992      8.739
REMARK  7 active torsions:
REMARK  status: ('A' for Active; 'I' for Inactive)
REMARK    1  A    between atoms: C_1  and  N_36 
REMARK       I    between atoms: C_11  and  N_12 
REMARK    2  A    between atoms: N_12  and  C_13 
REMARK    3  A    between atoms: C_14  and  O_15 
REMARK    4  A    between atoms: C_19  and  C_21 
REMARK    5  A    between atoms: C_21  and  S_22 
REMARK       I    between atoms: C_27  and  N_28 
REMARK    6  A    between atoms: C_27  and  C_29 
REMARK    7  A    between atoms: C_35  and  N_36 
ROOT
HETATM    1  C   UNK N   1      35.864  12.870  10.657  0.00  0.00     0.135 A 
HETATM    2  N   UNK N   1      34.607  13.402  10.670  0.00  0.00    -0.175 N 
ATOM      3  HN  UNK N   1      34.016  13.270  11.491  1.00  0.00     0.186 HD
HETATM    4  C   UNK N   1      36.656  13.090   9.541  0.00  0.00     0.054 A 
HETATM    5  C   UNK N   1      36.168  13.808   8.506  0.00  0.00     0.135 A 
HETATM    6  N   UNK N   1      37.082  13.966   7.541  0.00  0.00    -0.351 N 
HETATM    7  C   UNK N   1      38.190  13.321   7.983  0.00  0.00     0.091 A 
HETATM    8  C   UNK N   1      37.956  12.760   9.244  0.00  0.00     0.036 A 
HETATM    9  N   UNK N   1      34.921  14.324   8.512  0.00  0.00    -0.175 N 
ATOM     10  HN  UNK N   1      34.578  14.866   7.719  1.00  0.00     0.186 HD
HETATM   11  C   UNK N   1      34.122  14.106   9.605  0.00  0.00     0.686 A 
HETATM   12  N   UNK N   1      32.834  14.694   9.691  0.00  0.00    -0.189 N 
HETATM   13  H   UNK N   1      36.973  14.450   6.690  0.00  0.00     0.166 HD
HETATM   14  H   UNK N   1      32.359  14.651  10.551  0.00  0.00     0.184 HD
ENDROOT
BRANCH  12  15
HETATM   15  C   UNK N   1      32.193  15.343   8.603  0.00  0.00     0.082 A 
HETATM   16  C   UNK N   1      31.956  14.664   7.377  0.00  0.00     0.096 A 
HETATM   17  C   UNK N   1      31.282  15.342   6.354  0.00  0.00     0.047 A 
HETATM   18  C   UNK N   1      30.860  16.665   6.523  0.00  0.00    -0.042 A 
HETATM   19  C   UNK N   1      31.112  17.332   7.714  0.00  0.00     0.010 A 
HETATM   20  C   UNK N   1      31.773  16.676   8.744  0.00  0.00     0.033 A 
BRANCH  16  21
HETATM   21  O   UNK N   1      32.324  13.376   7.135  0.00  0.00    -0.354 OA
HETATM   22  C   UNK N   1      32.789  12.879   5.940  0.00  0.00     0.210 C 
ENDBRANCH  16  21
BRANCH  18  23
HETATM   23  C   UNK N   1      30.140  17.374   5.433  0.00  0.00     0.178 C 
BRANCH  23  24
HETATM   24  S   UNK N   1      28.439  17.786   5.930  0.00  0.00     0.144 S 
HETATM   25  O   UNK N   1      27.823  16.538   6.578  0.00  0.00    -0.228 OA
HETATM   26  O   UNK N   1      27.576  17.849   4.659  0.00  0.00    -0.228 OA
HETATM   27  C   UNK N   1      27.967  19.226   6.925  0.00  0.00     0.161 C 
ENDBRANCH  23  24
ENDBRANCH  18  23
ENDBRANCH  12  15
BRANCH   1  28
HETATM   28  N   UNK N   1      36.400  12.245  11.808  0.00  0.00    -0.340 N 
HETATM   29  H   UNK N   1      37.368  12.074  11.860  0.00  0.00     0.167 HD
BRANCH  28  30
HETATM   30  C   UNK N   1      35.564  11.862  12.884  0.00  0.00     0.052 A 
HETATM   31  C   UNK N   1      35.445  12.709  14.014  0.00  0.00     0.097 A 
HETATM   32  C   UNK N   1      34.495  12.375  15.009  0.00  0.00     0.134 A 
HETATM   33  F   UNK N   1      34.302  13.168  16.091  0.00  0.00    -0.205 F 
HETATM   34  C   UNK N   1      33.713  11.223  14.885  0.00  0.00     0.043 A 
HETATM   35  C   UNK N   1      33.855  10.388  13.780  0.00  0.00     0.005 A 
HETATM   36  C   UNK N   1      34.764  10.712  12.779  0.00  0.00     0.030 A 
BRANCH  31  37
HETATM   37  C   UNK N   1      36.272  13.958  14.133  0.00  0.00     0.254 C 
HETATM   38  O   UNK N   1      36.127  14.880  13.346  0.00  0.00    -0.268 OA
HETATM   39  N   UNK N   1      37.194  14.083  15.108  0.00  0.00    -0.366 N 
HETATM   40  H   UNK N   1      37.273  13.762  16.036  0.00  0.00     0.159 HD
HETATM   41  H   UNK N   1      37.969  14.620  14.828  0.00  0.00     0.159 HD
ENDBRANCH  31  37
ENDBRANCH  28  30
ENDBRANCH   1  28
TORSDOF 7
ENDMDL
MODEL 6
REMARK VINA RESULT:      -7.7      5.485      9.507
REMARK  7 active torsions:
REMARK  status: ('A' for Active; 'I' for Inactive)
REMARK    1  A    between atoms: C_1  and  N_36 
REMARK       I    between atoms: C_11  and  N_12 
REMARK    2  A    between atoms: N_12  and  C_13 
REMARK    3  A    between atoms: C_14  and  O_15 
REMARK    4  A    between atoms: C_19  and  C_21 
REMARK    5  A    between atoms: C_21  and  S_22 
REMARK       I    between atoms: C_27  and  N_28 
REMARK    6  A    between atoms: C_27  and  C_29 
REMARK    7  A    between atoms: C_35  and  N_36 
ROOT
HETATM    1  C   UNK N   1      36.700  13.650  11.764  0.00  0.00     0.135 A 
HETATM    2  N   UNK N   1      35.503  14.297  11.644  0.00  0.00    -0.175 N 
ATOM      3  HN  UNK N   1      34.928  14.441  12.475  1.00  0.00     0.186 HD
HETATM    4  C   UNK N   1      37.475  13.496  10.625  0.00  0.00     0.054 A 
HETATM    5  C   UNK N   1      37.030  13.973   9.442  0.00  0.00     0.135 A 
HETATM    6  N   UNK N   1      37.924  13.783   8.465  0.00  0.00    -0.351 N 
HETATM    7  C   UNK N   1      38.975  13.160   9.054  0.00  0.00     0.091 A 
HETATM    8  C   UNK N   1      38.726  12.967  10.417  0.00  0.00     0.036 A 
HETATM    9  N   UNK N   1      35.841  14.600   9.321  0.00  0.00    -0.175 N 
ATOM     10  HN  UNK N   1      35.530  14.954   8.417  1.00  0.00     0.186 HD
HETATM   11  C   UNK N   1      35.058  14.752  10.436  0.00  0.00     0.686 A 
HETATM   12  N   UNK N   1      33.838  15.474  10.374  0.00  0.00    -0.189 N 
HETATM   13  H   UNK N   1      37.838  14.043   7.520  0.00  0.00     0.166 HD
HETATM   14  H   UNK N   1      33.388  15.701  11.219  0.00  0.00     0.184 HD
ENDROOT
BRANCH  12  15
HETATM   15  C   UNK N   1      33.232  15.887   9.159  0.00  0.00     0.082 A 
HETATM   16  C   UNK N   1      32.508  14.971   8.348  0.00  0.00     0.096 A 
HETATM   17  C   UNK N   1      31.897  15.446   7.182  0.00  0.00     0.047 A 
HETATM   18  C   UNK N   1      32.003  16.790   6.807  0.00  0.00    -0.042 A 
HETATM   19  C   UNK N   1      32.729  17.676   7.591  0.00  0.00     0.010 A 
HETATM   20  C   UNK N   1      33.337  17.228   8.755  0.00  0.00     0.033 A 
BRANCH  16  21
HETATM   21  O   UNK N   1      32.348  13.652   8.645  0.00  0.00    -0.354 OA
HETATM   22  C   UNK N   1      33.138  12.620   8.194  0.00  0.00     0.210 C 
ENDBRANCH  16  21
BRANCH  18  23
HETATM   23  C   UNK N   1      31.345  17.285   5.571  0.00  0.00     0.178 C 
BRANCH  23  24
HETATM   24  S   UNK N   1      29.534  17.281   5.744  0.00  0.00     0.144 S 
HETATM   25  O   UNK N   1      28.974  18.394   4.848  0.00  0.00    -0.228 OA
HETATM   26  O   UNK N   1      29.189  17.881   7.118  0.00  0.00    -0.228 OA
HETATM   27  C   UNK N   1      28.475  15.822   5.557  0.00  0.00     0.161 C 
ENDBRANCH  23  24
ENDBRANCH  18  23
ENDBRANCH  12  15
BRANCH   1  28
HETATM   28  N   UNK N   1      37.206  13.287  13.034  0.00  0.00    -0.340 N 
HETATM   29  H   UNK N   1      38.176  13.175  13.156  0.00  0.00     0.167 HD
BRANCH  28  30
HETATM   30  C   UNK N   1      36.336  13.082  14.132  0.00  0.00     0.052 A 
HETATM   31  C   UNK N   1      35.455  11.972  14.130  0.00  0.00     0.097 A 
HETATM   32  C   UNK N   1      34.702  11.708  15.299  0.00  0.00     0.134 A 
HETATM   33  F   UNK N   1      33.877  10.635  15.375  0.00  0.00    -0.205 F 
HETATM   34  C   UNK N   1      34.811  12.540  16.416  0.00  0.00     0.043 A 
HETATM   35  C   UNK N   1      35.664  13.640  16.398  0.00  0.00     0.005 A 
HETATM   36  C   UNK N   1      36.432  13.902  15.268  0.00  0.00     0.030 A 
BRANCH  31  37
HETATM   37  C   UNK N   1      35.358  11.066  12.934  0.00  0.00     0.254 C 
HETATM   38  O   UNK N   1      36.289  10.341  12.623  0.00  0.00    -0.268 OA
HETATM   39  N   UNK N   1      34.242  11.042  12.180  0.00  0.00    -0.366 N 
HETATM   40  H   UNK N   1      33.280  11.163  12.355  0.00  0.00     0.159 HD
HETATM   41  H   UNK N   1      34.432  10.861  11.231  0.00  0.00     0.159 HD
ENDBRANCH  31  37
ENDBRANCH  28  30
ENDBRANCH   1  28
TORSDOF 7
ENDMDL
MODEL 7
REMARK VINA RESULT:      -7.6      6.629      9.618
REMARK  7 active torsions:
REMARK  status: ('A' for Active; 'I' for Inactive)
REMARK    1  A    between atoms: C_1  and  N_36 
REMARK       I    between atoms: C_11  and  N_12 
REMARK    2  A    between atoms: N_12  and  C_13 
REMARK    3  A    between atoms: C_14  and  O_15 
REMARK    4  A    between atoms: C_19  and  C_21 
REMARK    5  A    between atoms: C_21  and  S_22 
REMARK       I    between atoms: C_27  and  N_28 
REMARK    6  A    between atoms: C_27  and  C_29 
REMARK    7  A    between atoms: C_35  and  N_36 
ROOT
HETATM    1  C   UNK N   1      36.456  12.860  10.898  0.00  0.00     0.135 A 
HETATM    2  N   UNK N   1      35.231  13.454  10.792  0.00  0.00    -0.175 N 
ATOM      3  HN  UNK N   1      34.579  13.398  11.576  1.00  0.00     0.186 HD
HETATM    4  C   UNK N   1      37.333  12.979   9.830  0.00  0.00     0.054 A 
HETATM    5  C   UNK N   1      36.955  13.660   8.727  0.00  0.00     0.135 A 
HETATM    6  N   UNK N   1      37.940  13.718   7.822  0.00  0.00    -0.351 N 
HETATM    7  C   UNK N   1      38.979  13.045   8.376  0.00  0.00     0.091 A 
HETATM    8  C   UNK N   1      38.631  12.569   9.644  0.00  0.00     0.036 A 
HETATM    9  N   UNK N   1      35.739  14.236   8.617  0.00  0.00    -0.175 N 
ATOM     10  HN  UNK N   1      35.481  14.748   7.773  1.00  0.00     0.186 HD
HETATM   11  C   UNK N   1      34.857  14.119   9.660  0.00  0.00     0.686 A 
HETATM   12  N   UNK N   1      33.599  14.773   9.623  0.00  0.00    -0.189 N 
HETATM   13  H   UNK N   1      37.915  14.158   6.941  0.00  0.00     0.166 HD
HETATM   14  H   UNK N   1      33.065  14.802  10.449  0.00  0.00     0.184 HD
ENDROOT
BRANCH  12  15
HETATM   15  C   UNK N   1      33.070  15.390   8.460  0.00  0.00     0.082 A 
HETATM   16  C   UNK N   1      33.561  16.643   8.001  0.00  0.00     0.096 A 
HETATM   17  C   UNK N   1      33.029  17.182   6.824  0.00  0.00     0.047 A 
HETATM   18  C   UNK N   1      32.024  16.515   6.115  0.00  0.00    -0.042 A 
HETATM   19  C   UNK N   1      31.532  15.302   6.577  0.00  0.00     0.010 A 
HETATM   20  C   UNK N   1      32.050  14.746   7.739  0.00  0.00     0.033 A 
BRANCH  16  21
HETATM   21  O   UNK N   1      34.542  17.350   8.624  0.00  0.00    -0.354 OA
HETATM   22  C   UNK N   1      34.855  18.671   8.399  0.00  0.00     0.210 C 
ENDBRANCH  16  21
BRANCH  18  23
HETATM   23  C   UNK N   1      31.471  17.092   4.863  0.00  0.00     0.178 C 
BRANCH  23  24
HETATM   24  S   UNK N   1      32.014  16.146   3.407  0.00  0.00     0.144 S 
HETATM   25  O   UNK N   1      32.015  17.097   2.202  0.00  0.00    -0.228 OA
HETATM   26  O   UNK N   1      30.859  15.223   2.985  0.00  0.00    -0.228 OA
HETATM   27  C   UNK N   1      33.516  15.135   3.327  0.00  0.00     0.161 C 
ENDBRANCH  23  24
ENDBRANCH  18  23
ENDBRANCH  12  15
BRANCH   1  28
HETATM   28  N   UNK N   1      36.878  12.276  12.115  0.00  0.00    -0.340 N 
HETATM   29  H   UNK N   1      37.839  12.139  12.279  0.00  0.00     0.167 HD
BRANCH  28  30
HETATM   30  C   UNK N   1      35.939  11.886  13.100  0.00  0.00     0.052 A 
HETATM   31  C   UNK N   1      35.649  12.761  14.177  0.00  0.00     0.097 A 
HETATM   32  C   UNK N   1      34.604  12.411  15.065  0.00  0.00     0.134 A 
HETATM   33  F   UNK N   1      34.249  13.228  16.087  0.00  0.00    -0.205 F 
HETATM   34  C   UNK N   1      33.895  11.220  14.893  0.00  0.00     0.043 A 
HETATM   35  C   UNK N   1      34.204  10.359  13.843  0.00  0.00     0.005 A 
HETATM   36  C   UNK N   1      35.210  10.697  12.943  0.00  0.00     0.030 A 
BRANCH  31  37
HETATM   37  C   UNK N   1      36.400  14.052  14.346  0.00  0.00     0.254 C 
HETATM   38  O   UNK N   1      36.275  14.957  13.535  0.00  0.00    -0.268 OA
HETATM   39  N   UNK N   1      37.229  14.234  15.392  0.00  0.00    -0.366 N 
HETATM   40  H   UNK N   1      37.246  13.927  16.328  0.00  0.00     0.159 HD
HETATM   41  H   UNK N   1      37.997  14.807  15.169  0.00  0.00     0.159 HD
ENDBRANCH  31  37
ENDBRANCH  28  30
ENDBRANCH   1  28
TORSDOF 7
ENDMDL
MODEL 8
REMARK VINA RESULT:      -7.6      2.284      2.963
REMARK  7 active torsions:
REMARK  status: ('A' for Active; 'I' for Inactive)
REMARK    1  A    between atoms: C_1  and  N_36 
REMARK       I    between atoms: C_11  and  N_12 
REMARK    2  A    between atoms: N_12  and  C_13 
REMARK    3  A    between atoms: C_14  and  O_15 
REMARK    4  A    between atoms: C_19  and  C_21 
REMARK    5  A    between atoms: C_21  and  S_22 
REMARK       I    between atoms: C_27  and  N_28 
REMARK    6  A    between atoms: C_27  and  C_29 
REMARK    7  A    between atoms: C_35  and  N_36 
ROOT
HETATM    1  C   UNK N   1      29.865  16.636   6.759  0.00  0.00     0.135 A 
HETATM    2  N   UNK N   1      28.921  16.300   5.832  0.00  0.00    -0.175 N 
ATOM      3  HN  UNK N   1      29.186  15.720   5.035  1.00  0.00     0.186 HD
HETATM    4  C   UNK N   1      29.470  17.398   7.848  0.00  0.00     0.054 A 
HETATM    5  C   UNK N   1      28.182  17.791   7.957  0.00  0.00     0.135 A 
HETATM    6  N   UNK N   1      27.969  18.471   9.090  0.00  0.00    -0.351 N 
HETATM    7  C   UNK N   1      29.170  18.511   9.719  0.00  0.00     0.091 A 
HETATM    8  C   UNK N   1      30.138  17.840   8.964  0.00  0.00     0.036 A 
HETATM    9  N   UNK N   1      27.251  17.470   7.035  0.00  0.00    -0.175 N 
ATOM     10  HN  UNK N   1      26.284  17.776   7.144  1.00  0.00     0.186 HD
HETATM   11  C   UNK N   1      27.628  16.725   5.947  0.00  0.00     0.686 A 
HETATM   12  N   UNK N   1      26.670  16.296   4.993  0.00  0.00    -0.189 N 
HETATM   13  H   UNK N   1      27.119  18.859   9.401  0.00  0.00     0.166 HD
HETATM   14  H   UNK N   1      26.946  15.633   4.322  0.00  0.00     0.184 HD
ENDROOT
BRANCH  12  15
HETATM   15  C   UNK N   1      25.333  16.772   4.956  0.00  0.00     0.082 A 
HETATM   16  C   UNK N   1      24.303  16.137   5.703  0.00  0.00     0.096 A 
HETATM   17  C   UNK N   1      23.013  16.676   5.660  0.00  0.00     0.047 A 
HETATM   18  C   UNK N   1      22.730  17.809   4.889  0.00  0.00    -0.042 A 
HETATM   19  C   UNK N   1      23.734  18.415   4.145  0.00  0.00     0.010 A 
HETATM   20  C   UNK N   1      25.022  17.900   4.178  0.00  0.00     0.033 A 
BRANCH  16  21
HETATM   21  O   UNK N   1      24.496  15.039   6.484  0.00  0.00    -0.354 OA
HETATM   22  C   UNK N   1      24.496  13.732   6.056  0.00  0.00     0.210 C 
ENDBRANCH  16  21
BRANCH  18  23
HETATM   23  C   UNK N   1      21.358  18.378   4.856  0.00  0.00     0.178 C 
BRANCH  23  24
HETATM   24  S   UNK N   1      20.222  17.300   3.930  0.00  0.00     0.144 S 
HETATM   25  O   UNK N   1      21.032  16.597   2.832  0.00  0.00    -0.228 OA
HETATM   26  O   UNK N   1      19.339  18.193   3.044  0.00  0.00    -0.228 OA
HETATM   27  C   UNK N   1      19.109  16.080   4.677  0.00  0.00     0.161 C 
ENDBRANCH  23  24
ENDBRANCH  18  23
ENDBRANCH  12  15
BRANCH   1  28
HETATM   28  N   UNK N   1      31.171  16.095   6.695  0.00  0.00    -0.340 N 
HETATM   29  H   UNK N   1      31.579  15.715   7.507  0.00  0.00     0.167 HD
BRANCH  28  30
HETATM   30  C   UNK N   1      31.899  16.092   5.481  0.00  0.00     0.052 A 
HETATM   31  C   UNK N   1      32.104  14.871   4.790  0.00  0.00     0.097 A 
HETATM   32  C   UNK N   1      32.707  14.915   3.510  0.00  0.00     0.134 A 
HETATM   33  F   UNK N   1      32.889  13.787   2.781  0.00  0.00    -0.205 F 
HETATM   34  C   UNK N   1      33.109  16.134   2.957  0.00  0.00     0.043 A 
HETATM   35  C   UNK N   1      32.922  17.323   3.655  0.00  0.00     0.005 A 
HETATM   36  C   UNK N   1      32.307  17.305   4.903  0.00  0.00     0.030 A 
BRANCH  31  37
HETATM   37  C   UNK N   1      31.650  13.565   5.380  0.00  0.00     0.254 C 
HETATM   38  O   UNK N   1      32.247  13.062   6.318  0.00  0.00    -0.268 OA
HETATM   39  N   UNK N   1      30.577  12.922   4.880  0.00  0.00    -0.366 N 
HETATM   40  H   UNK N   1      29.729  13.201   4.463  0.00  0.00     0.159 HD
HETATM   41  H   UNK N   1      30.659  11.943   4.946  0.00  0.00     0.159 HD
ENDBRANCH  31  37
ENDBRANCH  28  30
ENDBRANCH   1  28
TORSDOF 7
ENDMDL
MODEL 9
REMARK VINA RESULT:      -7.6      8.532     13.605
REMARK  7 active torsions:
REMARK  status: ('A' for Active; 'I' for Inactive)
REMARK    1  A    between atoms: C_1  and  N_36 
REMARK       I    between atoms: C_11  and  N_12 
REMARK    2  A    between atoms: N_12  and  C_13 
REMARK    3  A    between atoms: C_14  and  O_15 
REMARK    4  A    between atoms: C_19  and  C_21 
REMARK    5  A    between atoms: C_21  and  S_22 
REMARK       I    between atoms: C_27  and  N_28 
REMARK    6  A    between atoms: C_27  and  C_29 
REMARK    7  A    between atoms: C_35  and  N_36 
ROOT
HETATM    1  C   UNK N   1      35.832  13.947   9.466  0.00  0.00     0.135 A 
HETATM    2  N   UNK N   1      35.172  13.987  10.661  0.00  0.00    -0.175 N 
ATOM      3  HN  UNK N   1      34.485  14.723  10.828  1.00  0.00     0.186 HD
HETATM    4  C   UNK N   1      36.737  12.919   9.253  0.00  0.00     0.054 A 
HETATM    5  C   UNK N   1      36.946  12.001  10.222  0.00  0.00     0.135 A 
HETATM    6  N   UNK N   1      37.808  11.056   9.828  0.00  0.00    -0.351 N 
HETATM    7  C   UNK N   1      38.158  11.391   8.561  0.00  0.00     0.091 A 
HETATM    8  C   UNK N   1      37.497  12.560   8.167  0.00  0.00     0.036 A 
HETATM    9  N   UNK N   1      36.303  12.047  11.408  0.00  0.00    -0.175 N 
ATOM     10  HN  UNK N   1      36.477  11.338  12.121  1.00  0.00     0.186 HD
HETATM   11  C   UNK N   1      35.413  13.063  11.637  0.00  0.00     0.686 A 
HETATM   12  N   UNK N   1      34.656  13.109  12.836  0.00  0.00    -0.189 N 
HETATM   13  H   UNK N   1      38.120  10.280  10.348  0.00  0.00     0.166 HD
HETATM   14  H   UNK N   1      33.916  13.753  12.895  0.00  0.00     0.184 HD
ENDROOT
BRANCH  12  15
HETATM   15  C   UNK N   1      34.907  12.272  13.955  0.00  0.00     0.082 A 
HETATM   16  C   UNK N   1      36.011  12.509  14.819  0.00  0.00     0.096 A 
HETATM   17  C   UNK N   1      36.184  11.675  15.930  0.00  0.00     0.047 A 
HETATM   18  C   UNK N   1      35.302  10.620  16.184  0.00  0.00    -0.042 A 
HETATM   19  C   UNK N   1      34.237  10.379  15.327  0.00  0.00     0.010 A 
HETATM   20  C   UNK N   1      34.043  11.197  14.222  0.00  0.00     0.033 A 
BRANCH  16  21
HETATM   21  O   UNK N   1      36.909  13.518  14.649  0.00  0.00    -0.354 OA
HETATM   22  C   UNK N   1      37.080  14.597  15.485  0.00  0.00     0.210 C 
ENDBRANCH  16  21
BRANCH  18  23
HETATM   23  C   UNK N   1      35.490   9.746  17.371  0.00  0.00     0.178 C 
BRANCH  23  24
HETATM   24  S   UNK N   1      35.470  10.714  18.910  0.00  0.00     0.144 S 
HETATM   25  O   UNK N   1      36.752  10.386  19.689  0.00  0.00    -0.228 OA
HETATM   26  O   UNK N   1      34.443  10.074  19.858  0.00  0.00    -0.228 OA
HETATM   27  C   UNK N   1      35.194  12.503  19.009  0.00  0.00     0.161 C 
ENDBRANCH  23  24
ENDBRANCH  18  23
ENDBRANCH  12  15
BRANCH   1  28
HETATM   28  N   UNK N   1      35.492  14.835   8.418  0.00  0.00    -0.340 N 
HETATM   29  H   UNK N   1      36.202  15.203   7.845  0.00  0.00     0.167 HD
BRANCH  28  30
HETATM   30  C   UNK N   1      34.144  15.201   8.183  0.00  0.00     0.052 A 
HETATM   31  C   UNK N   1      33.711  16.515   8.492  0.00  0.00     0.097 A 
HETATM   32  C   UNK N   1      32.402  16.898   8.115  0.00  0.00     0.134 A 
HETATM   33  F   UNK N   1      31.946  18.154   8.342  0.00  0.00    -0.205 F 
HETATM   34  C   UNK N   1      31.553  15.991   7.475  0.00  0.00     0.043 A 
HETATM   35  C   UNK N   1      31.984  14.696   7.197  0.00  0.00     0.005 A 
HETATM   36  C   UNK N   1      33.276  14.308   7.536  0.00  0.00     0.030 A 
BRANCH  31  37
HETATM   37  C   UNK N   1      34.635  17.495   9.161  0.00  0.00     0.254 C 
HETATM   38  O   UNK N   1      35.117  17.251  10.256  0.00  0.00    -0.268 OA
HETATM   39  N   UNK N   1      34.945  18.663   8.566  0.00  0.00    -0.366 N 
HETATM   40  H   UNK N   1      35.060  18.961   7.634  0.00  0.00     0.159 HD
HETATM   41  H   UNK N   1      35.091  19.389   9.214  0.00  0.00     0.159 HD
ENDBRANCH  31  37
ENDBRANCH  28  30
ENDBRANCH   1  28
TORSDOF 7
ENDMDL
