REMARK  5 active torsions:
REMARK  status: ('A' for Active; 'I' for Inactive)
REMARK    1  A    between atoms: C_11  and  S_12 
REMARK    2  A    between atoms: S_12  and  N_15 
REMARK    3  A    between atoms: C_16  and  N_15 
REMARK    4  A    between atoms: N_21  and  C_22 
REMARK    5  A    between atoms: C_22  and  C_24 
REMARK       I    between atoms: C_24  and  N_26 
ROOT
HETATM    1  C   UNK N   1       0.559  -1.063   0.657  0.00  0.00     0.186 C 
HETATM    2  C   UNK N   1      -0.606  -0.545  -0.195  0.00  0.00     0.055 C 
HETATM    3  C   UNK N   1      -0.368   0.987  -0.220  0.00  0.00     0.129 C 
HETATM    4  C   UNK N   1       1.583  -0.082   0.297  0.00  0.00     0.244 C 
HETATM    5  O   UNK N   1       2.790  -0.288   0.384  0.00  0.00    -0.271 OA
HETATM    6  N   UNK N   1       1.063   1.102  -0.036  0.00  0.00    -0.337 N 
ENDROOT
BRANCH   1   7
HETATM    7  N   UNK N   1       1.066  -2.425   0.513  0.00  0.00    -0.301 N 
HETATM    8  H   UNK N   1       1.988  -2.686   0.863  0.00  0.00     0.173 HD
BRANCH   7   9
HETATM    9  S   UNK N   1       0.024  -3.603  -0.288  0.00  0.00     0.259 S 
HETATM   10  O   UNK N   1       0.920  -4.702  -0.879  0.00  0.00    -0.201 OA
HETATM   11  O   UNK N   1       0.008  -4.357   1.049  0.00  0.00    -0.201 OA
BRANCH   9  12
HETATM   12  C   UNK N   1      -1.741  -3.885  -0.299  0.00  0.00     0.080 A 
HETATM   13  C   UNK N   1      -2.625  -2.816  -0.155  0.00  0.00     0.037 A 
HETATM   14  C   UNK N   1      -3.998  -3.047  -0.119  0.00  0.00    -0.024 A 
HETATM   15  C   UNK N   1      -4.884  -1.979   0.037  0.00  0.00     0.014 A 
HETATM   16  C   UNK N   1      -4.494  -4.367  -0.225  0.00  0.00    -0.024 A 
HETATM   17  C   UNK N   1      -6.259  -2.219   0.096  0.00  0.00     0.024 A 
HETATM   18  C   UNK N   1      -6.750  -3.526   0.001  0.00  0.00     0.034 A 
HETATM   19 Cl   UNK N   1      -8.471  -3.820   0.097  0.00  0.00    -0.084 Cl
HETATM   20  C   UNK N   1      -5.869  -4.599  -0.164  0.00  0.00     0.036 A 
HETATM   21  C   UNK N   1      -3.608  -5.433  -0.384  0.00  0.00     0.014 A 
HETATM   22  C   UNK N   1      -2.234  -5.193  -0.423  0.00  0.00     0.026 A 
ENDBRANCH   9  12
ENDBRANCH   7   9
ENDBRANCH   1   7
BRANCH   6  23
HETATM   23  C   UNK N   1       1.855   2.320  -0.212  0.00  0.00     0.175 C 
HETATM   24  C   UNK N   1       2.862   2.445   0.934  0.00  0.00     0.042 C 
BRANCH  23  25
HETATM   25  C   UNK N   1       1.054   3.614  -0.165  0.00  0.00     0.242 C 
HETATM   26  O   UNK N   1      -0.099   3.605   0.251  0.00  0.00    -0.271 OA
HETATM   27  N   UNK N   1       1.632   4.803  -0.500  0.00  0.00    -0.346 N 
HETATM   28  C   UNK N   1       0.940   6.052  -0.280  0.00  0.00     0.152 C 
HETATM   29  C   UNK N   1       2.993   4.876  -0.989  0.00  0.00     0.152 C 
HETATM   30  C   UNK N   1       1.861   6.923   0.579  0.00  0.00     0.187 C 
HETATM   31  O   UNK N   1       3.093   7.097  -0.087  0.00  0.00    -0.388 OA
HETATM   32  C   UNK N   1       3.753   5.850  -0.092  0.00  0.00     0.187 C 
ENDBRANCH  23  25
ENDBRANCH   6  23
TORSDOF 5
