MODEL 1
REMARK VINA RESULT:      -8.7      0.000      0.000
REMARK  5 active torsions:
REMARK  status: ('A' for Active; 'I' for Inactive)
REMARK    1  A    between atoms: C_11  and  S_12 
REMARK    2  A    between atoms: S_12  and  N_15 
REMARK    3  A    between atoms: C_16  and  N_15 
REMARK    4  A    between atoms: N_21  and  C_22 
REMARK    5  A    between atoms: C_22  and  C_24 
REMARK       I    between atoms: C_24  and  N_26 
ROOT
HETATM    1  C   UNK N   1      34.820  15.672   9.634  0.00  0.00     0.186 C 
HETATM    2  C   UNK N   1      33.868  14.512   9.951  0.00  0.00     0.055 C 
HETATM    3  C   UNK N   1      34.834  13.354  10.310  0.00  0.00     0.129 C 
HETATM    4  C   UNK N   1      35.912  15.352  10.553  0.00  0.00     0.244 C 
HETATM    5  O   UNK N   1      36.714  16.179  10.978  0.00  0.00    -0.271 OA
HETATM    6  N   UNK N   1      36.010  14.043  10.797  0.00  0.00    -0.337 N 
ENDROOT
BRANCH   1   7
HETATM    7  N   UNK N   1      34.404  17.064   9.779  0.00  0.00    -0.301 N 
HETATM    8  H   UNK N   1      34.370  17.513  10.694  0.00  0.00     0.173 HD
BRANCH   7   9
HETATM    9  S   UNK N   1      33.964  17.941   8.312  0.00  0.00     0.259 S 
HETATM   10  O   UNK N   1      34.940  19.118   8.154  0.00  0.00    -0.201 OA
HETATM   11  O   UNK N   1      34.965  17.034   7.582  0.00  0.00    -0.201 OA
BRANCH   9  12
HETATM   12  C   UNK N   1      32.871  17.588   6.942  0.00  0.00     0.080 A 
HETATM   13  C   UNK N   1      31.537  17.257   7.175  0.00  0.00     0.037 A 
HETATM   14  C   UNK N   1      30.702  16.938   6.107  0.00  0.00    -0.024 A 
HETATM   15  C   UNK N   1      29.368  16.595   6.339  0.00  0.00     0.014 A 
HETATM   16  C   UNK N   1      31.210  16.948   4.787  0.00  0.00    -0.024 A 
HETATM   17  C   UNK N   1      28.541  16.254   5.266  0.00  0.00     0.024 A 
HETATM   18  C   UNK N   1      29.046  16.254   3.960  0.00  0.00     0.034 A 
HETATM   19 Cl   UNK N   1      28.010  15.805   2.625  0.00  0.00    -0.084 Cl
HETATM   20  C   UNK N   1      30.378  16.605   3.720  0.00  0.00     0.036 A 
HETATM   21  C   UNK N   1      32.541  17.295   4.556  0.00  0.00     0.014 A 
HETATM   22  C   UNK N   1      33.371  17.616   5.631  0.00  0.00     0.026 A 
ENDBRANCH   9  12
ENDBRANCH   7   9
ENDBRANCH   1   7
BRANCH   6  23
HETATM   23  C   UNK N   1      37.142  13.424  11.487  0.00  0.00     0.175 C 
HETATM   24  C   UNK N   1      38.214  13.038  10.465  0.00  0.00     0.042 C 
BRANCH  23  25
HETATM   25  C   UNK N   1      36.815  12.126  12.213  0.00  0.00     0.242 C 
HETATM   26  O   UNK N   1      37.155  11.053  11.729  0.00  0.00    -0.271 OA
HETATM   27  N   UNK N   1      36.222  12.146  13.441  0.00  0.00    -0.346 N 
HETATM   28  C   UNK N   1      36.080  10.934  14.215  0.00  0.00     0.152 C 
HETATM   29  C   UNK N   1      35.807  13.384  14.066  0.00  0.00     0.152 C 
HETATM   30  C   UNK N   1      36.740  11.195  15.571  0.00  0.00     0.187 C 
HETATM   31  O   UNK N   1      36.121  12.305  16.185  0.00  0.00    -0.388 OA
HETATM   32  C   UNK N   1      36.469  13.451  15.440  0.00  0.00     0.187 C 
ENDBRANCH  23  25
ENDBRANCH   6  23
TORSDOF 5
ENDMDL
MODEL 2
REMARK VINA RESULT:      -8.4      4.516     10.695
REMARK  5 active torsions:
REMARK  status: ('A' for Active; 'I' for Inactive)
REMARK    1  A    between atoms: C_11  and  S_12 
REMARK    2  A    between atoms: S_12  and  N_15 
REMARK    3  A    between atoms: C_16  and  N_15 
REMARK    4  A    between atoms: N_21  and  C_22 
REMARK    5  A    between atoms: C_22  and  C_24 
REMARK       I    between atoms: C_24  and  N_26 
ROOT
HETATM    1  C   UNK N   1      34.637  14.967  10.482  0.00  0.00     0.186 C 
HETATM    2  C   UNK N   1      35.112  16.412  10.675  0.00  0.00     0.055 C 
HETATM    3  C   UNK N   1      34.865  17.052   9.285  0.00  0.00     0.129 C 
HETATM    4  C   UNK N   1      33.563  15.189   9.512  0.00  0.00     0.244 C 
HETATM    5  O   UNK N   1      32.617  14.424   9.351  0.00  0.00    -0.271 OA
HETATM    6  N   UNK N   1      33.779  16.261   8.746  0.00  0.00    -0.337 N 
ENDROOT
BRANCH   1   7
HETATM    7  N   UNK N   1      34.169  14.159  11.604  0.00  0.00    -0.301 N 
HETATM    8  H   UNK N   1      33.182  14.132  11.862  0.00  0.00     0.173 HD
BRANCH   7   9
HETATM    9  S   UNK N   1      35.373  13.229  12.498  0.00  0.00     0.259 S 
HETATM   10  O   UNK N   1      36.721  13.383  11.776  0.00  0.00    -0.201 OA
HETATM   11  O   UNK N   1      35.659  14.523  13.273  0.00  0.00    -0.201 OA
BRANCH   9  12
HETATM   12  C   UNK N   1      35.384  12.441  14.103  0.00  0.00     0.080 A 
HETATM   13  C   UNK N   1      35.230  13.202  15.261  0.00  0.00     0.037 A 
HETATM   14  C   UNK N   1      35.285  12.589  16.510  0.00  0.00    -0.024 A 
HETATM   15  C   UNK N   1      35.142  13.351  17.672  0.00  0.00     0.014 A 
HETATM   16  C   UNK N   1      35.500  11.194  16.602  0.00  0.00    -0.024 A 
HETATM   17  C   UNK N   1      35.221  12.734  18.923  0.00  0.00     0.024 A 
HETATM   18  C   UNK N   1      35.444  11.356  19.015  0.00  0.00     0.034 A 
HETATM   19 Cl   UNK N   1      35.563  10.594  20.584  0.00  0.00    -0.084 Cl
HETATM   20  C   UNK N   1      35.579  10.585  17.856  0.00  0.00     0.036 A 
HETATM   21  C   UNK N   1      35.640  10.433  15.441  0.00  0.00     0.014 A 
HETATM   22  C   UNK N   1      35.580  11.055  14.193  0.00  0.00     0.026 A 
ENDBRANCH   9  12
ENDBRANCH   7   9
ENDBRANCH   1   7
BRANCH   6  23
HETATM   23  C   UNK N   1      32.996  16.581   7.552  0.00  0.00     0.175 C 
HETATM   24  C   UNK N   1      33.756  17.599   6.699  0.00  0.00     0.042 C 
BRANCH  23  25
HETATM   25  C   UNK N   1      31.650  17.237   7.829  0.00  0.00     0.242 C 
HETATM   26  O   UNK N   1      31.582  18.193   8.593  0.00  0.00    -0.271 OA
HETATM   27  N   UNK N   1      30.528  16.830   7.171  0.00  0.00    -0.346 N 
HETATM   28  C   UNK N   1      29.291  17.567   7.288  0.00  0.00     0.152 C 
HETATM   29  C   UNK N   1      30.549  15.712   6.250  0.00  0.00     0.152 C 
HETATM   30  C   UNK N   1      28.854  17.927   5.865  0.00  0.00     0.187 C 
HETATM   31  O   UNK N   1      28.710  16.745   5.107  0.00  0.00    -0.388 OA
HETATM   32  C   UNK N   1      29.999  16.205   4.914  0.00  0.00     0.187 C 
ENDBRANCH  23  25
ENDBRANCH   6  23
TORSDOF 5
ENDMDL
MODEL 3
REMARK VINA RESULT:      -8.1      1.170      1.701
REMARK  5 active torsions:
REMARK  status: ('A' for Active; 'I' for Inactive)
REMARK    1  A    between atoms: C_11  and  S_12 
REMARK    2  A    between atoms: S_12  and  N_15 
REMARK    3  A    between atoms: C_16  and  N_15 
REMARK    4  A    between atoms: N_21  and  C_22 
REMARK    5  A    between atoms: C_22  and  C_24 
REMARK       I    between atoms: C_24  and  N_26 
ROOT
HETATM    1  C   UNK N   1      35.039  15.339   9.271  0.00  0.00     0.186 C 
HETATM    2  C   UNK N   1      33.684  14.621   9.309  0.00  0.00     0.055 C 
HETATM    3  C   UNK N   1      34.057  13.193   9.782  0.00  0.00     0.129 C 
HETATM    4  C   UNK N   1      35.713  14.651  10.372  0.00  0.00     0.244 C 
HETATM    5  O   UNK N   1      36.650  15.127  11.006  0.00  0.00    -0.271 OA
HETATM    6  N   UNK N   1      35.269  13.403  10.544  0.00  0.00    -0.337 N 
ENDROOT
BRANCH   1   7
HETATM    7  N   UNK N   1      35.142  16.788   9.418  0.00  0.00    -0.301 N 
HETATM    8  H   UNK N   1      35.762  17.206  10.112  0.00  0.00     0.173 HD
BRANCH   7   9
HETATM    9  S   UNK N   1      34.154  17.789   8.351  0.00  0.00     0.259 S 
HETATM   10  O   UNK N   1      34.988  19.013   7.946  0.00  0.00    -0.201 OA
HETATM   11  O   UNK N   1      34.776  17.000   7.191  0.00  0.00    -0.201 OA
BRANCH   9  12
HETATM   12  C   UNK N   1      32.603  17.530   7.501  0.00  0.00     0.080 A 
HETATM   13  C   UNK N   1      32.588  17.263   6.132  0.00  0.00     0.037 A 
HETATM   14  C   UNK N   1      31.375  17.107   5.466  0.00  0.00    -0.024 A 
HETATM   15  C   UNK N   1      31.357  16.852   4.094  0.00  0.00     0.014 A 
HETATM   16  C   UNK N   1      30.159  17.224   6.179  0.00  0.00    -0.024 A 
HETATM   17  C   UNK N   1      30.137  16.720   3.426  0.00  0.00     0.024 A 
HETATM   18  C   UNK N   1      28.933  16.845   4.129  0.00  0.00     0.034 A 
HETATM   19 Cl   UNK N   1      27.410  16.699   3.283  0.00  0.00    -0.084 Cl
HETATM   20  C   UNK N   1      28.944  17.092   5.505  0.00  0.00     0.036 A 
HETATM   21  C   UNK N   1      30.178  17.477   7.551  0.00  0.00     0.014 A 
HETATM   22  C   UNK N   1      31.397  17.628   8.212  0.00  0.00     0.026 A 
ENDBRANCH   9  12
ENDBRANCH   7   9
ENDBRANCH   1   7
BRANCH   6  23
HETATM   23  C   UNK N   1      35.919  12.419  11.410  0.00  0.00     0.175 C 
HETATM   24  C   UNK N   1      36.328  11.199  10.581  0.00  0.00     0.042 C 
BRANCH  23  25
HETATM   25  C   UNK N   1      35.033  11.856  12.513  0.00  0.00     0.242 C 
HETATM   26  O   UNK N   1      34.406  10.819  12.325  0.00  0.00    -0.271 OA
HETATM   27  N   UNK N   1      34.994  12.444  13.743  0.00  0.00    -0.346 N 
HETATM   28  C   UNK N   1      34.306  11.813  14.846  0.00  0.00     0.152 C 
HETATM   29  C   UNK N   1      35.721  13.664  14.026  0.00  0.00     0.152 C 
HETATM   30  C   UNK N   1      35.322  11.679  15.983  0.00  0.00     0.187 C 
HETATM   31  O   UNK N   1      35.821  12.956  16.316  0.00  0.00    -0.388 OA
HETATM   32  C   UNK N   1      36.613  13.398  15.236  0.00  0.00     0.187 C 
ENDBRANCH  23  25
ENDBRANCH   6  23
TORSDOF 5
ENDMDL
MODEL 4
REMARK VINA RESULT:      -7.7      4.662     10.439
REMARK  5 active torsions:
REMARK  status: ('A' for Active; 'I' for Inactive)
REMARK    1  A    between atoms: C_11  and  S_12 
REMARK    2  A    between atoms: S_12  and  N_15 
REMARK    3  A    between atoms: C_16  and  N_15 
REMARK    4  A    between atoms: N_21  and  C_22 
REMARK    5  A    between atoms: C_22  and  C_24 
REMARK       I    between atoms: C_24  and  N_26 
ROOT
HETATM    1  C   UNK N   1      36.457  13.375  12.094  0.00  0.00     0.186 C 
HETATM    2  C   UNK N   1      37.472  13.201  10.959  0.00  0.00     0.055 C 
HETATM    3  C   UNK N   1      36.581  12.822   9.747  0.00  0.00     0.129 C 
HETATM    4  C   UNK N   1      35.314  13.875  11.329  0.00  0.00     0.244 C 
HETATM    5  O   UNK N   1      34.406  14.545  11.812  0.00  0.00    -0.271 OA
HETATM    6  N   UNK N   1      35.309  13.432  10.069  0.00  0.00    -0.337 N 
ENDROOT
BRANCH   1   7
HETATM    7  N   UNK N   1      36.733  14.235  13.243  0.00  0.00    -0.301 N 
HETATM    8  H   UNK N   1      36.903  15.234  13.127  0.00  0.00     0.173 HD
BRANCH   7   9
HETATM    9  S   UNK N   1      36.760  13.481  14.838  0.00  0.00     0.259 S 
HETATM   10  O   UNK N   1      36.851  14.599  15.888  0.00  0.00    -0.201 OA
HETATM   11  O   UNK N   1      35.233  13.632  14.832  0.00  0.00    -0.201 OA
BRANCH   9  12
HETATM   12  C   UNK N   1      36.446  11.822  15.426  0.00  0.00     0.080 A 
HETATM   13  C   UNK N   1      35.695  11.617  16.583  0.00  0.00     0.037 A 
HETATM   14  C   UNK N   1      35.491  10.325  17.061  0.00  0.00    -0.024 A 
HETATM   15  C   UNK N   1      34.749  10.118  18.226  0.00  0.00     0.014 A 
HETATM   16  C   UNK N   1      36.051   9.222  16.375  0.00  0.00    -0.024 A 
HETATM   17  C   UNK N   1      34.568   8.822  18.714  0.00  0.00     0.024 A 
HETATM   18  C   UNK N   1      35.129   7.731  18.041  0.00  0.00     0.034 A 
HETATM   19 Cl   UNK N   1      34.916   6.114  18.670  0.00  0.00    -0.084 Cl
HETATM   20  C   UNK N   1      35.866   7.930  16.869  0.00  0.00     0.036 A 
HETATM   21  C   UNK N   1      36.790   9.430  15.210  0.00  0.00     0.014 A 
HETATM   22  C   UNK N   1      36.986  10.727  14.734  0.00  0.00     0.026 A 
ENDBRANCH   9  12
ENDBRANCH   7   9
ENDBRANCH   1   7
BRANCH   6  23
HETATM   23  C   UNK N   1      34.174  13.582   9.157  0.00  0.00     0.175 C 
HETATM   24  C   UNK N   1      33.448  12.241   9.020  0.00  0.00     0.042 C 
BRANCH  23  25
HETATM   25  C   UNK N   1      34.548  13.966   7.732  0.00  0.00     0.242 C 
HETATM   26  O   UNK N   1      34.530  13.119   6.846  0.00  0.00    -0.271 OA
HETATM   27  N   UNK N   1      34.821  15.262   7.409  0.00  0.00    -0.346 N 
HETATM   28  C   UNK N   1      34.992  15.663   6.032  0.00  0.00     0.152 C 
HETATM   29  C   UNK N   1      34.848  16.306   8.412  0.00  0.00     0.152 C 
HETATM   30  C   UNK N   1      33.995  16.796   5.774  0.00  0.00     0.187 C 
HETATM   31  O   UNK N   1      34.242  17.850   6.679  0.00  0.00    -0.388 OA
HETATM   32  C   UNK N   1      33.880  17.399   7.966  0.00  0.00     0.187 C 
ENDBRANCH  23  25
ENDBRANCH   6  23
TORSDOF 5
ENDMDL
MODEL 5
REMARK VINA RESULT:      -7.7      4.149     10.087
REMARK  5 active torsions:
REMARK  status: ('A' for Active; 'I' for Inactive)
REMARK    1  A    between atoms: C_11  and  S_12 
REMARK    2  A    between atoms: S_12  and  N_15 
REMARK    3  A    between atoms: C_16  and  N_15 
REMARK    4  A    between atoms: N_21  and  C_22 
REMARK    5  A    between atoms: C_22  and  C_24 
REMARK       I    between atoms: C_24  and  N_26 
ROOT
HETATM    1  C   UNK N   1      36.042  14.622   9.583  0.00  0.00     0.186 C 
HETATM    2  C   UNK N   1      35.538  15.490  10.743  0.00  0.00     0.055 C 
HETATM    3  C   UNK N   1      35.027  16.768  10.028  0.00  0.00     0.129 C 
HETATM    4  C   UNK N   1      35.105  15.038   8.539  0.00  0.00     0.244 C 
HETATM    5  O   UNK N   1      34.822  14.353   7.560  0.00  0.00    -0.271 OA
HETATM    6  N   UNK N   1      34.670  16.289   8.710  0.00  0.00    -0.337 N 
ENDROOT
BRANCH   1   7
HETATM    7  N   UNK N   1      36.098  13.166   9.686  0.00  0.00    -0.301 N 
HETATM    8  H   UNK N   1      36.655  12.612   9.035  0.00  0.00     0.173 HD
BRANCH   7   9
HETATM    9  S   UNK N   1      35.169  12.402  10.977  0.00  0.00     0.259 S 
HETATM   10  O   UNK N   1      34.192  11.408  10.332  0.00  0.00    -0.201 OA
HETATM   11  O   UNK N   1      36.251  11.313  10.982  0.00  0.00    -0.201 OA
BRANCH   9  12
HETATM   12  C   UNK N   1      35.331  12.362  12.757  0.00  0.00     0.080 A 
HETATM   13  C   UNK N   1      34.953  11.225  13.472  0.00  0.00     0.037 A 
HETATM   14  C   UNK N   1      35.039  11.216  14.862  0.00  0.00    -0.024 A 
HETATM   15  C   UNK N   1      34.650  10.083  15.580  0.00  0.00     0.014 A 
HETATM   16  C   UNK N   1      35.505  12.362  15.547  0.00  0.00    -0.024 A 
HETATM   17  C   UNK N   1      34.716  10.088  16.975  0.00  0.00     0.024 A 
HETATM   18  C   UNK N   1      35.168  11.224  17.655  0.00  0.00     0.034 A 
HETATM   19 Cl   UNK N   1      35.227  11.230  19.402  0.00  0.00    -0.084 Cl
HETATM   20  C   UNK N   1      35.566  12.359  16.942  0.00  0.00     0.036 A 
HETATM   21  C   UNK N   1      35.896  13.492  14.829  0.00  0.00     0.014 A 
HETATM   22  C   UNK N   1      35.811  13.492  13.436  0.00  0.00     0.026 A 
ENDBRANCH   9  12
ENDBRANCH   7   9
ENDBRANCH   1   7
BRANCH   6  23
HETATM   23  C   UNK N   1      33.916  17.034   7.701  0.00  0.00     0.175 C 
HETATM   24  C   UNK N   1      33.998  18.532   8.006  0.00  0.00     0.042 C 
BRANCH  23  25
HETATM   25  C   UNK N   1      32.425  16.729   7.665  0.00  0.00     0.242 C 
HETATM   26  O   UNK N   1      31.771  16.748   8.702  0.00  0.00    -0.271 OA
HETATM   27  N   UNK N   1      31.786  16.519   6.478  0.00  0.00    -0.346 N 
HETATM   28  C   UNK N   1      30.346  16.416   6.420  0.00  0.00     0.152 C 
HETATM   29  C   UNK N   1      32.504  16.495   5.222  0.00  0.00     0.152 C 
HETATM   30  C   UNK N   1      29.868  17.465   5.412  0.00  0.00     0.187 C 
HETATM   31  O   UNK N   1      30.479  17.225   4.163  0.00  0.00    -0.388 OA
HETATM   32  C   UNK N   1      31.852  17.521   4.298  0.00  0.00     0.187 C 
ENDBRANCH  23  25
ENDBRANCH   6  23
TORSDOF 5
ENDMDL
MODEL 6
REMARK VINA RESULT:      -7.7      4.713     10.736
REMARK  5 active torsions:
REMARK  status: ('A' for Active; 'I' for Inactive)
REMARK    1  A    between atoms: C_11  and  S_12 
REMARK    2  A    between atoms: S_12  and  N_15 
REMARK    3  A    between atoms: C_16  and  N_15 
REMARK    4  A    between atoms: N_21  and  C_22 
REMARK    5  A    between atoms: C_22  and  C_24 
REMARK       I    between atoms: C_24  and  N_26 
ROOT
HETATM    1  C   UNK N   1      35.155  13.528  10.525  0.00  0.00     0.186 C 
HETATM    2  C   UNK N   1      35.440  15.033  10.458  0.00  0.00     0.055 C 
HETATM    3  C   UNK N   1      35.423  15.325   8.935  0.00  0.00     0.129 C 
HETATM    4  C   UNK N   1      34.288  13.388   9.355  0.00  0.00     0.244 C 
HETATM    5  O   UNK N   1      33.473  12.481   9.211  0.00  0.00    -0.271 OA
HETATM    6  N   UNK N   1      34.553  14.294   8.411  0.00  0.00    -0.337 N 
ENDROOT
BRANCH   1   7
HETATM    7  N   UNK N   1      34.547  12.916  11.704  0.00  0.00    -0.301 N 
HETATM    8  H   UNK N   1      33.541  12.751  11.754  0.00  0.00     0.173 HD
BRANCH   7   9
HETATM    9  S   UNK N   1      35.615  12.473  13.036  0.00  0.00     0.259 S 
HETATM   10  O   UNK N   1      37.004  13.062  12.745  0.00  0.00    -0.201 OA
HETATM   11  O   UNK N   1      35.204  13.802  13.684  0.00  0.00    -0.201 OA
BRANCH   9  12
HETATM   12  C   UNK N   1      35.342  11.769  14.657  0.00  0.00     0.080 A 
HETATM   13  C   UNK N   1      35.404  12.576  15.793  0.00  0.00     0.037 A 
HETATM   14  C   UNK N   1      35.235  12.014  17.056  0.00  0.00    -0.024 A 
HETATM   15  C   UNK N   1      35.308  12.818  18.196  0.00  0.00     0.014 A 
HETATM   16  C   UNK N   1      35.005  10.625  17.185  0.00  0.00    -0.024 A 
HETATM   17  C   UNK N   1      35.162  12.245  19.462  0.00  0.00     0.024 A 
HETATM   18  C   UNK N   1      34.944  10.869  19.590  0.00  0.00     0.034 A 
HETATM   19 Cl   UNK N   1      34.782  10.157  21.179  0.00  0.00    -0.084 Cl
HETATM   20  C   UNK N   1      34.861  10.060  18.453  0.00  0.00     0.036 A 
HETATM   21  C   UNK N   1      34.929   9.823  16.046  0.00  0.00     0.014 A 
HETATM   22  C   UNK N   1      35.095  10.394  14.784  0.00  0.00     0.026 A 
ENDBRANCH   9  12
ENDBRANCH   7   9
ENDBRANCH   1   7
BRANCH   6  23
HETATM   23  C   UNK N   1      34.004  14.243   7.055  0.00  0.00     0.175 C 
HETATM   24  C   UNK N   1      34.855  13.306   6.194  0.00  0.00     0.042 C 
BRANCH  23  25
HETATM   25  C   UNK N   1      34.017  15.571   6.311  0.00  0.00     0.242 C 
HETATM   26  O   UNK N   1      35.003  15.897   5.659  0.00  0.00    -0.271 OA
HETATM   27  N   UNK N   1      32.911  16.368   6.289  0.00  0.00    -0.346 N 
HETATM   28  C   UNK N   1      32.852  17.532   5.435  0.00  0.00     0.152 C 
HETATM   29  C   UNK N   1      31.715  16.029   7.032  0.00  0.00     0.152 C 
HETATM   30  C   UNK N   1      31.603  17.379   4.563  0.00  0.00     0.187 C 
HETATM   31  O   UNK N   1      30.467  17.258   5.392  0.00  0.00    -0.388 OA
HETATM   32  C   UNK N   1      30.549  16.011   6.046  0.00  0.00     0.187 C 
ENDBRANCH  23  25
ENDBRANCH   6  23
TORSDOF 5
ENDMDL
MODEL 7
REMARK VINA RESULT:      -7.4      2.378      2.882
REMARK  5 active torsions:
REMARK  status: ('A' for Active; 'I' for Inactive)
REMARK    1  A    between atoms: C_11  and  S_12 
REMARK    2  A    between atoms: S_12  and  N_15 
REMARK    3  A    between atoms: C_16  and  N_15 
REMARK    4  A    between atoms: N_21  and  C_22 
REMARK    5  A    between atoms: C_22  and  C_24 
REMARK       I    between atoms: C_24  and  N_26 
ROOT
HETATM    1  C   UNK N   1      34.479  13.327  10.241  0.00  0.00     0.186 C 
HETATM    2  C   UNK N   1      34.358  11.810  10.053  0.00  0.00     0.055 C 
HETATM    3  C   UNK N   1      35.485  11.254  10.962  0.00  0.00     0.129 C 
HETATM    4  C   UNK N   1      34.937  13.369  11.629  0.00  0.00     0.244 C 
HETATM    5  O   UNK N   1      34.788  14.335  12.372  0.00  0.00    -0.271 OA
HETATM    6  N   UNK N   1      35.632  12.281  11.972  0.00  0.00    -0.337 N 
ENDROOT
BRANCH   1   7
HETATM    7  N   UNK N   1      33.337  14.216  10.040  0.00  0.00    -0.301 N 
HETATM    8  H   UNK N   1      32.655  14.376  10.781  0.00  0.00     0.173 HD
BRANCH   7   9
HETATM    9  S   UNK N   1      33.183  15.004   8.468  0.00  0.00     0.259 S 
HETATM   10  O   UNK N   1      34.318  14.491   7.569  0.00  0.00    -0.201 OA
HETATM   11  O   UNK N   1      32.330  13.797   8.053  0.00  0.00    -0.201 OA
BRANCH   9  12
HETATM   12  C   UNK N   1      31.903  15.986   7.699  0.00  0.00     0.080 A 
HETATM   13  C   UNK N   1      31.086  16.809   8.475  0.00  0.00     0.037 A 
HETATM   14  C   UNK N   1      30.061  17.537   7.876  0.00  0.00    -0.024 A 
HETATM   15  C   UNK N   1      29.235  18.352   8.653  0.00  0.00     0.014 A 
HETATM   16  C   UNK N   1      29.848  17.439   6.482  0.00  0.00    -0.024 A 
HETATM   17  C   UNK N   1      28.194  19.063   8.050  0.00  0.00     0.024 A 
HETATM   18  C   UNK N   1      27.976  18.958   6.672  0.00  0.00     0.034 A 
HETATM   19 Cl   UNK N   1      26.657  19.834   5.929  0.00  0.00    -0.084 Cl
HETATM   20  C   UNK N   1      28.805  18.151   5.887  0.00  0.00     0.036 A 
HETATM   21  C   UNK N   1      30.676  16.627   5.706  0.00  0.00     0.014 A 
HETATM   22  C   UNK N   1      31.703  15.903   6.313  0.00  0.00     0.026 A 
ENDBRANCH   9  12
ENDBRANCH   7   9
ENDBRANCH   1   7
BRANCH   6  23
HETATM   23  C   UNK N   1      36.400  12.160  13.212  0.00  0.00     0.175 C 
HETATM   24  C   UNK N   1      37.792  11.607  12.899  0.00  0.00     0.042 C 
BRANCH  23  25
HETATM   25  C   UNK N   1      35.818  11.190  14.230  0.00  0.00     0.242 C 
HETATM   26  O   UNK N   1      36.000   9.985  14.100  0.00  0.00    -0.271 OA
HETATM   27  N   UNK N   1      35.168  11.650  15.337  0.00  0.00    -0.346 N 
HETATM   28  C   UNK N   1      34.779  10.748  16.397  0.00  0.00     0.152 C 
HETATM   29  C   UNK N   1      34.932  13.063  15.549  0.00  0.00     0.152 C 
HETATM   30  C   UNK N   1      35.395  11.292  17.689  0.00  0.00     0.187 C 
HETATM   31  O   UNK N   1      34.938  12.610  17.905  0.00  0.00    -0.388 OA
HETATM   32  C   UNK N   1      35.516  13.428  16.912  0.00  0.00     0.187 C 
ENDBRANCH  23  25
ENDBRANCH   6  23
TORSDOF 5
ENDMDL
MODEL 8
REMARK VINA RESULT:      -7.4      2.281      2.572
REMARK  5 active torsions:
REMARK  status: ('A' for Active; 'I' for Inactive)
REMARK    1  A    between atoms: C_11  and  S_12 
REMARK    2  A    between atoms: S_12  and  N_15 
REMARK    3  A    between atoms: C_16  and  N_15 
REMARK    4  A    between atoms: N_21  and  C_22 
REMARK    5  A    between atoms: C_22  and  C_24 
REMARK       I    between atoms: C_24  and  N_26 
ROOT
HETATM    1  C   UNK N   1      34.342  16.171   8.592  0.00  0.00     0.186 C 
HETATM    2  C   UNK N   1      34.073  14.893   7.789  0.00  0.00     0.055 C 
HETATM    3  C   UNK N   1      35.136  13.905   8.335  0.00  0.00     0.129 C 
HETATM    4  C   UNK N   1      34.798  15.580   9.850  0.00  0.00     0.244 C 
HETATM    5  O   UNK N   1      34.743  16.151  10.936  0.00  0.00    -0.271 OA
HETATM    6  N   UNK N   1      35.380  14.391   9.676  0.00  0.00    -0.337 N 
ENDROOT
BRANCH   1   7
HETATM    7  N   UNK N   1      33.295  17.161   8.829  0.00  0.00    -0.301 N 
HETATM    8  H   UNK N   1      33.510  18.071   9.237  0.00  0.00     0.173 HD
BRANCH   7   9
HETATM    9  S   UNK N   1      31.644  16.726   8.380  0.00  0.00     0.259 S 
HETATM   10  O   UNK N   1      31.046  15.895   9.526  0.00  0.00    -0.201 OA
HETATM   11  O   UNK N   1      31.210  18.008   9.104  0.00  0.00    -0.201 OA
BRANCH   9  12
HETATM   12  C   UNK N   1      30.535  17.259   7.084  0.00  0.00     0.080 A 
HETATM   13  C   UNK N   1      29.493  18.141   7.368  0.00  0.00     0.037 A 
HETATM   14  C   UNK N   1      28.605  18.518   6.364  0.00  0.00    -0.024 A 
HETATM   15  C   UNK N   1      27.554  19.392   6.649  0.00  0.00     0.014 A 
HETATM   16  C   UNK N   1      28.759  18.001   5.056  0.00  0.00    -0.024 A 
HETATM   17  C   UNK N   1      26.652  19.748   5.644  0.00  0.00     0.024 A 
HETATM   18  C   UNK N   1      26.798  19.229   4.352  0.00  0.00     0.034 A 
HETATM   19 Cl   UNK N   1      25.653  19.663   3.104  0.00  0.00    -0.084 Cl
HETATM   20  C   UNK N   1      27.853  18.360   4.057  0.00  0.00     0.036 A 
HETATM   21  C   UNK N   1      29.811  17.130   4.771  0.00  0.00     0.014 A 
HETATM   22  C   UNK N   1      30.699  16.761   5.782  0.00  0.00     0.026 A 
ENDBRANCH   9  12
ENDBRANCH   7   9
ENDBRANCH   1   7
BRANCH   6  23
HETATM   23  C   UNK N   1      36.128  13.689  10.720  0.00  0.00     0.175 C 
HETATM   24  C   UNK N   1      37.214  12.823  10.076  0.00  0.00     0.042 C 
BRANCH  23  25
HETATM   25  C   UNK N   1      35.303  12.717  11.552  0.00  0.00     0.242 C 
HETATM   26  O   UNK N   1      34.790  11.739  11.020  0.00  0.00    -0.271 OA
HETATM   27  N   UNK N   1      35.196  12.874  12.902  0.00  0.00    -0.346 N 
HETATM   28  C   UNK N   1      34.575  11.857  13.720  0.00  0.00     0.152 C 
HETATM   29  C   UNK N   1      35.788  14.005  13.586  0.00  0.00     0.152 C 
HETATM   30  C   UNK N   1      35.595  11.468  14.794  0.00  0.00     0.187 C 
HETATM   31  O   UNK N   1      35.953  12.615  15.535  0.00  0.00    -0.388 OA
HETATM   32  C   UNK N   1      36.698  13.456  14.682  0.00  0.00     0.187 C 
ENDBRANCH  23  25
ENDBRANCH   6  23
TORSDOF 5
ENDMDL
MODEL 9
REMARK VINA RESULT:      -7.3      4.319     10.251
REMARK  5 active torsions:
REMARK  status: ('A' for Active; 'I' for Inactive)
REMARK    1  A    between atoms: C_11  and  S_12 
REMARK    2  A    between atoms: S_12  and  N_15 
REMARK    3  A    between atoms: C_16  and  N_15 
REMARK    4  A    between atoms: N_21  and  C_22 
REMARK    5  A    between atoms: C_22  and  C_24 
REMARK       I    between atoms: C_24  and  N_26 
ROOT
HETATM    1  C   UNK N   1      34.143  15.092   8.085  0.00  0.00     0.186 C 
HETATM    2  C   UNK N   1      34.499  16.561   7.825  0.00  0.00     0.055 C 
HETATM    3  C   UNK N   1      34.066  16.770   6.351  0.00  0.00     0.129 C 
HETATM    4  C   UNK N   1      32.969  14.966   7.220  0.00  0.00     0.244 C 
HETATM    5  O   UNK N   1      32.087  14.127   7.381  0.00  0.00    -0.271 OA
HETATM    6  N   UNK N   1      33.014  15.793   6.173  0.00  0.00    -0.337 N 
ENDROOT
BRANCH   1   7
HETATM    7  N   UNK N   1      33.856  14.601   9.430  0.00  0.00    -0.301 N 
HETATM    8  H   UNK N   1      32.902  14.573   9.791  0.00  0.00     0.173 HD
BRANCH   7   9
HETATM    9  S   UNK N   1      35.221  14.056  10.408  0.00  0.00     0.259 S 
HETATM   10  O   UNK N   1      36.508  14.326   9.614  0.00  0.00    -0.201 OA
HETATM   11  O   UNK N   1      35.278  15.488  10.957  0.00  0.00    -0.201 OA
BRANCH   9  12
HETATM   12  C   UNK N   1      35.396  13.553  12.114  0.00  0.00     0.080 A 
HETATM   13  C   UNK N   1      34.803  12.373  12.563  0.00  0.00     0.037 A 
HETATM   14  C   UNK N   1      34.904  12.009  13.904  0.00  0.00    -0.024 A 
HETATM   15  C   UNK N   1      34.302  10.834  14.358  0.00  0.00     0.014 A 
HETATM   16  C   UNK N   1      35.606  12.839  14.809  0.00  0.00    -0.024 A 
HETATM   17  C   UNK N   1      34.387  10.486  15.709  0.00  0.00     0.024 A 
HETATM   18  C   UNK N   1      35.072  11.312  16.606  0.00  0.00     0.034 A 
HETATM   19 Cl   UNK N   1      35.156  10.880  18.299  0.00  0.00    -0.084 Cl
HETATM   20  C   UNK N   1      35.685  12.485  16.157  0.00  0.00     0.036 A 
HETATM   21  C   UNK N   1      36.210  14.011  14.353  0.00  0.00     0.014 A 
HETATM   22  C   UNK N   1      36.108  14.367  13.008  0.00  0.00     0.026 A 
ENDBRANCH   9  12
ENDBRANCH   7   9
ENDBRANCH   1   7
BRANCH   6  23
HETATM   23  C   UNK N   1      32.098  15.716   5.034  0.00  0.00     0.175 C 
HETATM   24  C   UNK N   1      32.902  15.570   3.740  0.00  0.00     0.042 C 
BRANCH  23  25
HETATM   25  C   UNK N   1      31.243  16.958   4.819  0.00  0.00     0.242 C 
HETATM   26  O   UNK N   1      31.694  17.909   4.190  0.00  0.00    -0.271 OA
HETATM   27  N   UNK N   1      29.948  16.993   5.243  0.00  0.00    -0.346 N 
HETATM   28  C   UNK N   1      29.078  18.087   4.879  0.00  0.00     0.152 C 
HETATM   29  C   UNK N   1      29.359  15.895   5.982  0.00  0.00     0.152 C 
HETATM   30  C   UNK N   1      27.851  17.471   4.201  0.00  0.00     0.187 C 
HETATM   31  O   UNK N   1      27.235  16.562   5.087  0.00  0.00    -0.388 OA
HETATM   32  C   UNK N   1      28.102  15.459   5.234  0.00  0.00     0.187 C 
ENDBRANCH  23  25
ENDBRANCH   6  23
TORSDOF 5
ENDMDL
