MODEL 1
REMARK VINA RESULT:      -8.2      0.000      0.000
REMARK  5 active torsions:
REMARK  status: ('A' for Active; 'I' for Inactive)
REMARK    1  A    between atoms: C_10  and  S_11 
REMARK    2  A    between atoms: S_11  and  N_14 
REMARK    3  A    between atoms: C_15  and  N_14 
REMARK    4  A    between atoms: N_20  and  C_21 
REMARK    5  A    between atoms: C_21  and  C_23 
REMARK       I    between atoms: C_23  and  N_25 
ROOT
HETATM    1  C   UNK N   1      31.676  16.988   8.408  0.00  0.00     0.186 C 
HETATM    2  C   UNK N   1      30.270  17.441   8.461  0.00  0.00     0.244 C 
HETATM    3  O   UNK N   1      29.865  18.275   9.264  0.00  0.00    -0.271 OA
HETATM    4  C   UNK N   1      31.596  15.934   7.283  0.00  0.00     0.055 C 
HETATM    5  C   UNK N   1      30.207  16.010   6.654  0.00  0.00     0.129 C 
HETATM    6  N   UNK N   1      29.493  16.933   7.489  0.00  0.00    -0.337 N 
ENDROOT
BRANCH   1   7
HETATM    7  N   UNK N   1      32.511  18.133   8.037  0.00  0.00    -0.300 N 
HETATM    8  H   UNK N   1      32.129  19.002   7.664  0.00  0.00     0.173 HD
BRANCH   7   9
HETATM    9  S   UNK N   1      34.253  17.868   8.297  0.00  0.00     0.275 S 
HETATM   10  O   UNK N   1      34.693  17.500   6.874  0.00  0.00    -0.199 OA
HETATM   11  O   UNK N   1      34.909  19.253   8.403  0.00  0.00    -0.199 OA
BRANCH   9  12
HETATM   12  C   UNK N   1      34.987  16.580   9.303  0.00  0.00     0.150 A 
HETATM   13  N   UNK N   1      34.830  15.261   9.033  0.00  0.00    -0.345 N 
HETATM   14  C   UNK N   1      35.199  14.629  10.159  0.00  0.00     0.043 A 
HETATM   15  H   UNK N   1      34.514  14.855   8.194  0.00  0.00     0.167 HD
HETATM   16  C   UNK N   1      35.156  13.261  10.410  0.00  0.00     0.032 A 
HETATM   17  C   UNK N   1      35.568  15.524  11.120  0.00  0.00    -0.005 A 
HETATM   18  C   UNK N   1      35.492  12.827  11.709  0.00  0.00     0.026 A 
HETATM   19  C   UNK N   1      35.857  13.762  12.706  0.00  0.00     0.035 A 
HETATM   20 Cl   UNK N   1      36.211  13.222  14.332  0.00  0.00    -0.084 Cl
HETATM   21  C   UNK N   1      35.902  15.134  12.409  0.00  0.00     0.037 A 
HETATM   22  C   UNK N   1      35.445  16.780  10.598  0.00  0.00     0.057 A 
ENDBRANCH   9  12
ENDBRANCH   7   9
ENDBRANCH   1   7
BRANCH   6  23
HETATM   23  C   UNK N   1      28.117  17.342   7.236  0.00  0.00     0.175 C 
HETATM   24  C   UNK N   1      27.144  16.171   7.358  0.00  0.00     0.042 C 
BRANCH  23  25
HETATM   25  C   UNK N   1      28.030  17.903   5.827  0.00  0.00     0.242 C 
HETATM   26  O   UNK N   1      28.112  17.125   4.885  0.00  0.00    -0.271 OA
HETATM   27  N   UNK N   1      27.908  19.242   5.589  0.00  0.00    -0.346 N 
HETATM   28  C   UNK N   1      27.872  19.743   4.230  0.00  0.00     0.152 C 
HETATM   29  C   UNK N   1      27.673  20.188   6.660  0.00  0.00     0.152 C 
HETATM   30  C   UNK N   1      26.714  20.740   4.094  0.00  0.00     0.187 C 
HETATM   31  O   UNK N   1      25.790  20.555   5.142  0.00  0.00    -0.388 OA
HETATM   32  C   UNK N   1      26.415  21.014   6.325  0.00  0.00     0.187 C 
ENDBRANCH  23  25
ENDBRANCH   6  23
TORSDOF 5
ENDMDL
MODEL 2
REMARK VINA RESULT:      -8.0      3.996      9.624
REMARK  5 active torsions:
REMARK  status: ('A' for Active; 'I' for Inactive)
REMARK    1  A    between atoms: C_10  and  S_11 
REMARK    2  A    between atoms: S_11  and  N_14 
REMARK    3  A    between atoms: C_15  and  N_14 
REMARK    4  A    between atoms: N_20  and  C_21 
REMARK    5  A    between atoms: C_21  and  C_23 
REMARK       I    between atoms: C_23  and  N_25 
ROOT
HETATM    1  C   UNK N   1      35.500  14.880   8.732  0.00  0.00     0.186 C 
HETATM    2  C   UNK N   1      36.553  14.398   9.651  0.00  0.00     0.244 C 
HETATM    3  O   UNK N   1      37.565  15.042   9.906  0.00  0.00    -0.271 OA
HETATM    4  C   UNK N   1      34.531  13.677   8.751  0.00  0.00     0.055 C 
HETATM    5  C   UNK N   1      35.005  12.697   9.821  0.00  0.00     0.129 C 
HETATM    6  N   UNK N   1      36.261  13.236  10.259  0.00  0.00    -0.337 N 
ENDROOT
BRANCH   1   7
HETATM    7  N   UNK N   1      34.902  16.082   9.315  0.00  0.00    -0.300 N 
HETATM    8  H   UNK N   1      34.924  16.288  10.313  0.00  0.00     0.173 HD
BRANCH   7   9
HETATM    9  S   UNK N   1      34.130  17.154   8.120  0.00  0.00     0.275 S 
HETATM   10  O   UNK N   1      34.696  18.511   8.557  0.00  0.00    -0.199 OA
HETATM   11  O   UNK N   1      34.898  16.984   6.800  0.00  0.00    -0.199 OA
BRANCH   9  12
HETATM   12  C   UNK N   1      32.373  17.469   7.962  0.00  0.00     0.150 A 
HETATM   13  N   UNK N   1      31.580  17.741   9.027  0.00  0.00    -0.345 N 
HETATM   14  C   UNK N   1      30.326  17.565   8.582  0.00  0.00     0.043 A 
HETATM   15  H   UNK N   1      31.863  18.010   9.931  0.00  0.00     0.167 HD
HETATM   16  C   UNK N   1      29.149  17.661   9.317  0.00  0.00     0.032 A 
HETATM   17  C   UNK N   1      30.325  17.178   7.273  0.00  0.00    -0.005 A 
HETATM   18  C   UNK N   1      27.944  17.326   8.665  0.00  0.00     0.026 A 
HETATM   19  C   UNK N   1      27.952  16.910   7.312  0.00  0.00     0.035 A 
HETATM   20 Cl   UNK N   1      26.462  16.435   6.529  0.00  0.00    -0.084 Cl
HETATM   21  C   UNK N   1      29.160  16.839   6.600  0.00  0.00     0.037 A 
HETATM   22  C   UNK N   1      31.622  17.113   6.851  0.00  0.00     0.057 A 
ENDBRANCH   9  12
ENDBRANCH   7   9
ENDBRANCH   1   7
BRANCH   6  23
HETATM   23  C   UNK N   1      37.065  12.636  11.317  0.00  0.00     0.175 C 
HETATM   24  C   UNK N   1      37.859  11.432  10.815  0.00  0.00     0.042 C 
BRANCH  23  25
HETATM   25  C   UNK N   1      36.136  12.177  12.428  0.00  0.00     0.242 C 
HETATM   26  O   UNK N   1      35.733  11.021  12.409  0.00  0.00    -0.271 OA
HETATM   27  N   UNK N   1      35.712  13.024  13.411  0.00  0.00    -0.346 N 
HETATM   28  C   UNK N   1      34.792  12.562  14.430  0.00  0.00     0.152 C 
HETATM   29  C   UNK N   1      36.261  14.357  13.558  0.00  0.00     0.152 C 
HETATM   30  C   UNK N   1      35.305  13.001  15.807  0.00  0.00     0.187 C 
HETATM   31  O   UNK N   1      36.676  13.318  15.734  0.00  0.00    -0.388 OA
HETATM   32  C   UNK N   1      36.779  14.524  15.000  0.00  0.00     0.187 C 
ENDBRANCH  23  25
ENDBRANCH   6  23
TORSDOF 5
ENDMDL
MODEL 3
REMARK VINA RESULT:      -7.8      2.689      3.858
REMARK  5 active torsions:
REMARK  status: ('A' for Active; 'I' for Inactive)
REMARK    1  A    between atoms: C_10  and  S_11 
REMARK    2  A    between atoms: S_11  and  N_14 
REMARK    3  A    between atoms: C_15  and  N_14 
REMARK    4  A    between atoms: N_20  and  C_21 
REMARK    5  A    between atoms: C_21  and  C_23 
REMARK       I    between atoms: C_23  and  N_25 
ROOT
HETATM    1  C   UNK N   1      34.140  15.688   8.282  0.00  0.00     0.186 C 
HETATM    2  C   UNK N   1      32.863  15.109   7.816  0.00  0.00     0.244 C 
HETATM    3  O   UNK N   1      32.464  14.001   8.162  0.00  0.00    -0.271 OA
HETATM    4  C   UNK N   1      34.147  17.025   7.510  0.00  0.00     0.055 C 
HETATM    5  C   UNK N   1      32.792  17.189   6.826  0.00  0.00     0.129 C 
HETATM    6  N   UNK N   1      32.127  15.940   7.059  0.00  0.00    -0.337 N 
ENDROOT
BRANCH   1   7
HETATM    7  N   UNK N   1      34.051  15.884   9.730  0.00  0.00    -0.300 N 
HETATM    8  H   UNK N   1      33.226  16.266  10.191  0.00  0.00     0.173 HD
BRANCH   7   9
HETATM    9  S   UNK N   1      35.519  15.396  10.614  0.00  0.00     0.275 S 
HETATM   10  O   UNK N   1      36.299  14.698   9.493  0.00  0.00    -0.199 OA
HETATM   11  O   UNK N   1      36.390  16.652  10.771  0.00  0.00    -0.199 OA
BRANCH   9  12
HETATM   12  C   UNK N   1      35.596  14.222  11.966  0.00  0.00     0.150 A 
HETATM   13  N   UNK N   1      34.815  13.115  12.020  0.00  0.00    -0.345 N 
HETATM   14  C   UNK N   1      34.892  12.697  13.293  0.00  0.00     0.043 A 
HETATM   15  H   UNK N   1      34.303  12.707  11.284  0.00  0.00     0.167 HD
HETATM   16  C   UNK N   1      34.212  11.630  13.872  0.00  0.00     0.032 A 
HETATM   17  C   UNK N   1      35.690  13.524  14.029  0.00  0.00    -0.005 A 
HETATM   18  C   UNK N   1      34.363  11.438  15.261  0.00  0.00     0.026 A 
HETATM   19  C   UNK N   1      35.179  12.310  16.021  0.00  0.00     0.035 A 
HETATM   20 Cl   UNK N   1      35.310  12.105  17.753  0.00  0.00    -0.084 Cl
HETATM   21  C   UNK N   1      35.859  13.368  15.397  0.00  0.00     0.037 A 
HETATM   22  C   UNK N   1      36.157  14.505  13.203  0.00  0.00     0.057 A 
ENDBRANCH   9  12
ENDBRANCH   7   9
ENDBRANCH   1   7
BRANCH   6  23
HETATM   23  C   UNK N   1      30.769  15.659   6.609  0.00  0.00     0.175 C 
HETATM   24  C   UNK N   1      30.739  15.162   5.165  0.00  0.00     0.042 C 
BRANCH  23  25
HETATM   25  C   UNK N   1      29.955  16.939   6.701  0.00  0.00     0.242 C 
HETATM   26  O   UNK N   1      29.544  17.442   5.663  0.00  0.00    -0.271 OA
HETATM   27  N   UNK N   1      29.712  17.555   7.894  0.00  0.00    -0.346 N 
HETATM   28  C   UNK N   1      28.968  18.798   7.937  0.00  0.00     0.152 C 
HETATM   29  C   UNK N   1      30.056  16.936   9.157  0.00  0.00     0.152 C 
HETATM   30  C   UNK N   1      27.896  18.704   9.031  0.00  0.00     0.187 C 
HETATM   31  O   UNK N   1      27.655  17.355   9.357  0.00  0.00    -0.388 OA
HETATM   32  C   UNK N   1      28.799  16.889  10.047  0.00  0.00     0.187 C 
ENDBRANCH  23  25
ENDBRANCH   6  23
TORSDOF 5
ENDMDL
MODEL 4
REMARK VINA RESULT:      -7.8      3.898      5.645
REMARK  5 active torsions:
REMARK  status: ('A' for Active; 'I' for Inactive)
REMARK    1  A    between atoms: C_10  and  S_11 
REMARK    2  A    between atoms: S_11  and  N_14 
REMARK    3  A    between atoms: C_15  and  N_14 
REMARK    4  A    between atoms: N_20  and  C_21 
REMARK    5  A    between atoms: C_21  and  C_23 
REMARK       I    between atoms: C_23  and  N_25 
ROOT
HETATM    1  C   UNK N   1      34.521  16.678   8.522  0.00  0.00     0.186 C 
HETATM    2  C   UNK N   1      34.507  16.383   7.074  0.00  0.00     0.244 C 
HETATM    3  O   UNK N   1      35.393  15.747   6.511  0.00  0.00    -0.271 OA
HETATM    4  C   UNK N   1      33.234  17.521   8.655  0.00  0.00     0.055 C 
HETATM    5  C   UNK N   1      32.491  17.473   7.322  0.00  0.00     0.129 C 
HETATM    6  N   UNK N   1      33.392  16.786   6.442  0.00  0.00    -0.337 N 
ENDROOT
BRANCH   1   7
HETATM    7  N   UNK N   1      34.430  15.409   9.247  0.00  0.00    -0.300 N 
HETATM    8  H   UNK N   1      33.676  14.738   9.102  0.00  0.00     0.173 HD
BRANCH   7   9
HETATM    9  S   UNK N   1      35.757  15.146  10.406  0.00  0.00     0.275 S 
HETATM   10  O   UNK N   1      36.820  14.543   9.479  0.00  0.00    -0.199 OA
HETATM   11  O   UNK N   1      36.408  16.513  10.664  0.00  0.00    -0.199 OA
BRANCH   9  12
HETATM   12  C   UNK N   1      35.734  14.019  11.799  0.00  0.00     0.150 A 
HETATM   13  N   UNK N   1      34.922  12.935  11.851  0.00  0.00    -0.345 N 
HETATM   14  C   UNK N   1      34.923  12.561  13.140  0.00  0.00     0.043 A 
HETATM   15  H   UNK N   1      34.436  12.515  11.105  0.00  0.00     0.167 HD
HETATM   16  C   UNK N   1      34.187  11.533  13.720  0.00  0.00     0.032 A 
HETATM   17  C   UNK N   1      35.705  13.393  13.887  0.00  0.00    -0.005 A 
HETATM   18  C   UNK N   1      34.262  11.387  15.120  0.00  0.00     0.026 A 
HETATM   19  C   UNK N   1      35.062  12.264  15.891  0.00  0.00     0.035 A 
HETATM   20 Cl   UNK N   1      35.101  12.117  17.633  0.00  0.00    -0.084 Cl
HETATM   21  C   UNK N   1      35.802  13.281  15.267  0.00  0.00     0.037 A 
HETATM   22  C   UNK N   1      36.240  14.332  13.053  0.00  0.00     0.057 A 
ENDBRANCH   9  12
ENDBRANCH   7   9
ENDBRANCH   1   7
BRANCH   6  23
HETATM   23  C   UNK N   1      33.074  16.477   5.053  0.00  0.00     0.175 C 
HETATM   24  C   UNK N   1      32.167  17.535   4.428  0.00  0.00     0.042 C 
BRANCH  23  25
HETATM   25  C   UNK N   1      32.363  15.136   5.007  0.00  0.00     0.242 C 
HETATM   26  O   UNK N   1      31.284  15.029   5.576  0.00  0.00    -0.271 OA
HETATM   27  N   UNK N   1      32.912  14.048   4.389  0.00  0.00    -0.346 N 
HETATM   28  C   UNK N   1      32.223  12.774   4.403  0.00  0.00     0.152 C 
HETATM   29  C   UNK N   1      34.114  14.152   3.589  0.00  0.00     0.152 C 
HETATM   30  C   UNK N   1      32.219  12.190   2.984  0.00  0.00     0.187 C 
HETATM   31  O   UNK N   1      32.472  13.207   2.042  0.00  0.00    -0.388 OA
HETATM   32  C   UNK N   1      33.830  13.572   2.189  0.00  0.00     0.187 C 
ENDBRANCH  23  25
ENDBRANCH   6  23
TORSDOF 5
ENDMDL
MODEL 5
REMARK VINA RESULT:      -7.8      3.530      5.585
REMARK  5 active torsions:
REMARK  status: ('A' for Active; 'I' for Inactive)
REMARK    1  A    between atoms: C_10  and  S_11 
REMARK    2  A    between atoms: S_11  and  N_14 
REMARK    3  A    between atoms: C_15  and  N_14 
REMARK    4  A    between atoms: N_20  and  C_21 
REMARK    5  A    between atoms: C_21  and  C_23 
REMARK       I    between atoms: C_23  and  N_25 
ROOT
HETATM    1  C   UNK N   1      27.942  19.758   6.972  0.00  0.00     0.186 C 
HETATM    2  C   UNK N   1      27.511  18.973   5.797  0.00  0.00     0.244 C 
HETATM    3  O   UNK N   1      27.912  17.836   5.567  0.00  0.00    -0.271 OA
HETATM    4  C   UNK N   1      27.187  21.082   6.726  0.00  0.00     0.055 C 
HETATM    5  C   UNK N   1      26.238  20.879   5.547  0.00  0.00     0.129 C 
HETATM    6  N   UNK N   1      26.566  19.572   5.053  0.00  0.00    -0.337 N 
ENDROOT
BRANCH   1   7
HETATM    7  N   UNK N   1      27.476  19.069   8.178  0.00  0.00    -0.300 N 
HETATM    8  H   UNK N   1      26.547  19.208   8.574  0.00  0.00     0.173 HD
BRANCH   7   9
HETATM    9  S   UNK N   1      28.682  17.968   8.889  0.00  0.00     0.275 S 
HETATM   10  O   UNK N   1      29.274  18.870   9.979  0.00  0.00    -0.199 OA
HETATM   11  O   UNK N   1      27.917  16.978   9.782  0.00  0.00    -0.199 OA
BRANCH   9  12
HETATM   12  C   UNK N   1      30.130  17.311   8.062  0.00  0.00     0.150 A 
HETATM   13  N   UNK N   1      30.051  16.408   7.055  0.00  0.00    -0.345 N 
HETATM   14  C   UNK N   1      31.290  15.902   6.944  0.00  0.00     0.043 A 
HETATM   15  H   UNK N   1      29.257  16.173   6.522  0.00  0.00     0.167 HD
HETATM   16  C   UNK N   1      31.712  14.887   6.091  0.00  0.00     0.032 A 
HETATM   17  C   UNK N   1      32.128  16.461   7.864  0.00  0.00    -0.005 A 
HETATM   18  C   UNK N   1      33.043  14.438   6.221  0.00  0.00     0.026 A 
HETATM   19  C   UNK N   1      33.901  15.012   7.189  0.00  0.00     0.035 A 
HETATM   20 Cl   UNK N   1      35.531  14.407   7.388  0.00  0.00    -0.084 Cl
HETATM   21  C   UNK N   1      33.442  16.044   8.022  0.00  0.00     0.037 A 
HETATM   22  C   UNK N   1      31.412  17.370   8.590  0.00  0.00     0.057 A 
ENDBRANCH   9  12
ENDBRANCH   7   9
ENDBRANCH   1   7
BRANCH   6  23
HETATM   23  C   UNK N   1      25.872  18.940   3.938  0.00  0.00     0.175 C 
HETATM   24  C   UNK N   1      25.281  19.971   2.978  0.00  0.00     0.042 C 
BRANCH  23  25
HETATM   25  C   UNK N   1      24.744  18.087   4.491  0.00  0.00     0.242 C 
HETATM   26  O   UNK N   1      23.831  18.644   5.086  0.00  0.00    -0.271 OA
HETATM   27  N   UNK N   1      24.746  16.726   4.378  0.00  0.00    -0.346 N 
HETATM   28  C   UNK N   1      23.674  15.942   4.957  0.00  0.00     0.152 C 
HETATM   29  C   UNK N   1      25.726  16.029   3.572  0.00  0.00     0.152 C 
HETATM   30  C   UNK N   1      23.187  14.918   3.924  0.00  0.00     0.187 C 
HETATM   31  O   UNK N   1      23.587  15.308   2.630  0.00  0.00    -0.388 OA
HETATM   32  C   UNK N   1      24.988  15.127   2.563  0.00  0.00     0.187 C 
ENDBRANCH  23  25
ENDBRANCH   6  23
TORSDOF 5
ENDMDL
MODEL 6
REMARK VINA RESULT:      -7.8      4.054      6.489
REMARK  5 active torsions:
REMARK  status: ('A' for Active; 'I' for Inactive)
REMARK    1  A    between atoms: C_10  and  S_11 
REMARK    2  A    between atoms: S_11  and  N_14 
REMARK    3  A    between atoms: C_15  and  N_14 
REMARK    4  A    between atoms: N_20  and  C_21 
REMARK    5  A    between atoms: C_21  and  C_23 
REMARK       I    between atoms: C_23  and  N_25 
ROOT
HETATM    1  C   UNK N   1      35.651  14.245  10.530  0.00  0.00     0.186 C 
HETATM    2  C   UNK N   1      35.301  14.801   9.206  0.00  0.00     0.244 C 
HETATM    3  O   UNK N   1      35.180  14.111   8.199  0.00  0.00    -0.271 OA
HETATM    4  C   UNK N   1      35.713  15.534  11.376  0.00  0.00     0.055 C 
HETATM    5  C   UNK N   1      35.204  16.693  10.521  0.00  0.00     0.129 C 
HETATM    6  N   UNK N   1      35.028  16.117   9.219  0.00  0.00    -0.337 N 
ENDROOT
BRANCH   1   7
HETATM    7  N   UNK N   1      34.566  13.356  10.952  0.00  0.00    -0.300 N 
HETATM    8  H   UNK N   1      33.604  13.461  10.633  0.00  0.00     0.173 HD
BRANCH   7   9
HETATM    9  S   UNK N   1      35.083  12.075  12.077  0.00  0.00     0.275 S 
HETATM   10  O   UNK N   1      34.243  10.899  11.564  0.00  0.00    -0.199 OA
HETATM   11  O   UNK N   1      36.470  11.602  11.616  0.00  0.00    -0.199 OA
BRANCH   9  12
HETATM   12  C   UNK N   1      34.800  12.046  13.846  0.00  0.00     0.150 A 
HETATM   13  N   UNK N   1      34.895  13.154  14.621  0.00  0.00    -0.345 N 
HETATM   14  C   UNK N   1      34.972  12.693  15.880  0.00  0.00     0.043 A 
HETATM   15  H   UNK N   1      34.906  14.093  14.325  0.00  0.00     0.167 HD
HETATM   16  C   UNK N   1      35.149  13.437  17.041  0.00  0.00     0.032 A 
HETATM   17  C   UNK N   1      34.940  11.328  15.900  0.00  0.00    -0.005 A 
HETATM   18  C   UNK N   1      35.313  12.731  18.250  0.00  0.00     0.026 A 
HETATM   19  C   UNK N   1      35.294  11.316  18.262  0.00  0.00     0.035 A 
HETATM   20 Cl   UNK N   1      35.560  10.445  19.755  0.00  0.00    -0.084 Cl
HETATM   21  C   UNK N   1      35.099  10.599  17.070  0.00  0.00     0.037 A 
HETATM   22  C   UNK N   1      34.825  10.889  14.613  0.00  0.00     0.057 A 
ENDBRANCH   9  12
ENDBRANCH   7   9
ENDBRANCH   1   7
BRANCH   6  23
HETATM   23  C   UNK N   1      34.513  16.862   8.077  0.00  0.00     0.175 C 
HETATM   24  C   UNK N   1      34.563  18.371   8.312  0.00  0.00     0.042 C 
BRANCH  23  25
HETATM   25  C   UNK N   1      33.068  16.454   7.845  0.00  0.00     0.242 C 
HETATM   26  O   UNK N   1      32.316  16.404   8.810  0.00  0.00    -0.271 OA
HETATM   27  N   UNK N   1      32.606  16.104   6.609  0.00  0.00    -0.346 N 
HETATM   28  C   UNK N   1      31.232  15.678   6.435  0.00  0.00     0.152 C 
HETATM   29  C   UNK N   1      33.412  16.274   5.418  0.00  0.00     0.152 C 
HETATM   30  C   UNK N   1      30.627  16.414   5.232  0.00  0.00     0.187 C 
HETATM   31  O   UNK N   1      31.389  17.562   4.934  0.00  0.00    -0.388 OA
HETATM   32  C   UNK N   1      32.616  17.109   4.395  0.00  0.00     0.187 C 
ENDBRANCH  23  25
ENDBRANCH   6  23
TORSDOF 5
ENDMDL
MODEL 7
REMARK VINA RESULT:      -7.7      3.945      9.429
REMARK  5 active torsions:
REMARK  status: ('A' for Active; 'I' for Inactive)
REMARK    1  A    between atoms: C_10  and  S_11 
REMARK    2  A    between atoms: S_11  and  N_14 
REMARK    3  A    between atoms: C_15  and  N_14 
REMARK    4  A    between atoms: N_20  and  C_21 
REMARK    5  A    between atoms: C_21  and  C_23 
REMARK       I    between atoms: C_23  and  N_25 
ROOT
HETATM    1  C   UNK N   1      31.911  17.567   7.973  0.00  0.00     0.186 C 
HETATM    2  C   UNK N   1      33.282  17.053   8.173  0.00  0.00     0.244 C 
HETATM    3  O   UNK N   1      33.972  17.347   9.144  0.00  0.00    -0.271 OA
HETATM    4  C   UNK N   1      31.562  16.932   6.609  0.00  0.00     0.055 C 
HETATM    5  C   UNK N   1      32.676  15.956   6.238  0.00  0.00     0.129 C 
HETATM    6  N   UNK N   1      33.673  16.159   7.249  0.00  0.00    -0.337 N 
ENDROOT
BRANCH   1   7
HETATM    7  N   UNK N   1      31.069  17.053   9.055  0.00  0.00    -0.300 N 
HETATM    8  H   UNK N   1      31.356  16.293   9.670  0.00  0.00     0.173 HD
BRANCH   7   9
HETATM    9  S   UNK N   1      29.496  17.877   9.197  0.00  0.00     0.275 S 
HETATM   10  O   UNK N   1      28.741  16.884  10.089  0.00  0.00    -0.199 OA
HETATM   11  O   UNK N   1      29.676  19.022  10.206  0.00  0.00    -0.199 OA
BRANCH   9  12
HETATM   12  C   UNK N   1      28.345  18.193   7.860  0.00  0.00     0.150 A 
HETATM   13  N   UNK N   1      27.958  17.232   6.985  0.00  0.00    -0.345 N 
HETATM   14  C   UNK N   1      27.405  17.898   5.959  0.00  0.00     0.043 A 
HETATM   15  H   UNK N   1      28.061  16.258   7.081  0.00  0.00     0.167 HD
HETATM   16  C   UNK N   1      26.912  17.362   4.774  0.00  0.00     0.032 A 
HETATM   17  C   UNK N   1      27.451  19.245   6.173  0.00  0.00    -0.005 A 
HETATM   18  C   UNK N   1      26.473  18.264   3.784  0.00  0.00     0.026 A 
HETATM   19  C   UNK N   1      26.539  19.661   4.006  0.00  0.00     0.035 A 
HETATM   20 Cl   UNK N   1      26.052  20.775   2.748  0.00  0.00    -0.084 Cl
HETATM   21  C   UNK N   1      27.031  20.163   5.221  0.00  0.00     0.037 A 
HETATM   22  C   UNK N   1      28.044  19.461   7.384  0.00  0.00     0.057 A 
ENDBRANCH   9  12
ENDBRANCH   7   9
ENDBRANCH   1   7
BRANCH   6  23
HETATM   23  C   UNK N   1      34.915  15.399   7.313  0.00  0.00     0.175 C 
HETATM   24  C   UNK N   1      35.394  14.973   5.927  0.00  0.00     0.042 C 
BRANCH  23  25
HETATM   25  C   UNK N   1      34.677  14.153   8.150  0.00  0.00     0.242 C 
HETATM   26  O   UNK N   1      33.881  13.319   7.738  0.00  0.00    -0.271 OA
HETATM   27  N   UNK N   1      35.290  13.965   9.355  0.00  0.00    -0.346 N 
HETATM   28  C   UNK N   1      35.005  12.784  10.144  0.00  0.00     0.152 C 
HETATM   29  C   UNK N   1      36.337  14.848   9.825  0.00  0.00     0.152 C 
HETATM   30  C   UNK N   1      36.326  12.172  10.628  0.00  0.00     0.187 C 
HETATM   31  O   UNK N   1      37.395  12.643   9.839  0.00  0.00    -0.388 OA
HETATM   32  C   UNK N   1      37.580  14.005  10.172  0.00  0.00     0.187 C 
ENDBRANCH  23  25
ENDBRANCH   6  23
TORSDOF 5
ENDMDL
MODEL 8
REMARK VINA RESULT:      -7.6     13.514     16.926
REMARK  5 active torsions:
REMARK  status: ('A' for Active; 'I' for Inactive)
REMARK    1  A    between atoms: C_10  and  S_11 
REMARK    2  A    between atoms: S_11  and  N_14 
REMARK    3  A    between atoms: C_15  and  N_14 
REMARK    4  A    between atoms: N_20  and  C_21 
REMARK    5  A    between atoms: C_21  and  C_23 
REMARK       I    between atoms: C_23  and  N_25 
ROOT
HETATM    1  C   UNK N   1      25.621  25.352  -5.930  0.00  0.00     0.186 C 
HETATM    2  C   UNK N   1      26.406  25.829  -4.771  0.00  0.00     0.244 C 
HETATM    3  O   UNK N   1      25.956  25.873  -3.631  0.00  0.00    -0.271 OA
HETATM    4  C   UNK N   1      26.639  25.562  -7.071  0.00  0.00     0.055 C 
HETATM    5  C   UNK N   1      27.979  25.951  -6.452  0.00  0.00     0.129 C 
HETATM    6  N   UNK N   1      27.687  26.117  -5.057  0.00  0.00    -0.337 N 
ENDROOT
BRANCH   1   7
HETATM    7  N   UNK N   1      25.308  23.938  -5.719  0.00  0.00    -0.300 N 
HETATM    8  H   UNK N   1      24.946  23.573  -4.838  0.00  0.00     0.173 HD
BRANCH   7   9
HETATM    9  S   UNK N   1      25.619  22.912  -7.141  0.00  0.00     0.275 S 
HETATM   10  O   UNK N   1      24.692  21.727  -6.837  0.00  0.00    -0.199 OA
HETATM   11  O   UNK N   1      24.848  23.527  -8.319  0.00  0.00    -0.199 OA
BRANCH   9  12
HETATM   12  C   UNK N   1      27.175  22.125  -7.556  0.00  0.00     0.150 A 
HETATM   13  N   UNK N   1      27.244  20.928  -8.188  0.00  0.00    -0.345 N 
HETATM   14  C   UNK N   1      28.507  20.511  -8.008  0.00  0.00     0.043 A 
HETATM   15  H   UNK N   1      26.523  20.465  -8.673  0.00  0.00     0.167 HD
HETATM   16  C   UNK N   1      29.062  19.302  -8.412  0.00  0.00     0.032 A 
HETATM   17  C   UNK N   1      29.216  21.415  -7.270  0.00  0.00    -0.005 A 
HETATM   18  C   UNK N   1      30.387  19.028  -8.018  0.00  0.00     0.026 A 
HETATM   19  C   UNK N   1      31.111  19.962  -7.239  0.00  0.00     0.035 A 
HETATM   20 Cl   UNK N   1      32.733  19.589  -6.700  0.00  0.00    -0.084 Cl
HETATM   21  C   UNK N   1      30.521  21.179  -6.862  0.00  0.00     0.037 A 
HETATM   22  C   UNK N   1      28.388  22.459  -6.972  0.00  0.00     0.057 A 
ENDBRANCH   9  12
ENDBRANCH   7   9
ENDBRANCH   1   7
BRANCH   6  23
HETATM   23  C   UNK N   1      28.696  26.456  -4.062  0.00  0.00     0.175 C 
HETATM   24  C   UNK N   1      29.186  27.895  -4.216  0.00  0.00     0.042 C 
BRANCH  23  25
HETATM   25  C   UNK N   1      29.879  25.519  -4.234  0.00  0.00     0.242 C 
HETATM   26  O   UNK N   1      30.898  25.957  -4.752  0.00  0.00    -0.271 OA
HETATM   27  N   UNK N   1      29.818  24.205  -3.868  0.00  0.00    -0.346 N 
HETATM   28  C   UNK N   1      30.952  23.330  -4.088  0.00  0.00     0.152 C 
HETATM   29  C   UNK N   1      28.692  23.670  -3.132  0.00  0.00     0.152 C 
HETATM   30  C   UNK N   1      31.221  22.526  -2.809  0.00  0.00     0.187 C 
HETATM   31  O   UNK N   1      30.611  23.154  -1.705  0.00  0.00    -0.388 OA
HETATM   32  C   UNK N   1      29.215  22.982  -1.856  0.00  0.00     0.187 C 
ENDBRANCH  23  25
ENDBRANCH   6  23
TORSDOF 5
ENDMDL
MODEL 9
REMARK VINA RESULT:      -7.6      3.298      4.744
REMARK  5 active torsions:
REMARK  status: ('A' for Active; 'I' for Inactive)
REMARK    1  A    between atoms: C_10  and  S_11 
REMARK    2  A    between atoms: S_11  and  N_14 
REMARK    3  A    between atoms: C_15  and  N_14 
REMARK    4  A    between atoms: N_20  and  C_21 
REMARK    5  A    between atoms: C_21  and  C_23 
REMARK       I    between atoms: C_23  and  N_25 
ROOT
HETATM    1  C   UNK N   1      34.695  15.595   9.888  0.00  0.00     0.186 C 
HETATM    2  C   UNK N   1      34.074  16.757   9.217  0.00  0.00     0.244 C 
HETATM    3  O   UNK N   1      34.688  17.785   8.953  0.00  0.00    -0.271 OA
HETATM    4  C   UNK N   1      33.481  14.649  10.007  0.00  0.00     0.055 C 
HETATM    5  C   UNK N   1      32.321  15.259   9.225  0.00  0.00     0.129 C 
HETATM    6  N   UNK N   1      32.802  16.553   8.833  0.00  0.00    -0.337 N 
ENDROOT
BRANCH   1   7
HETATM    7  N   UNK N   1      35.732  15.059   9.003  0.00  0.00    -0.300 N 
HETATM    8  H   UNK N   1      35.782  15.277   8.009  0.00  0.00     0.173 HD
BRANCH   7   9
HETATM    9  S   UNK N   1      36.895  13.989   9.824  0.00  0.00     0.275 S 
HETATM   10  O   UNK N   1      36.488  12.632   9.236  0.00  0.00    -0.199 OA
HETATM   11  O   UNK N   1      38.247  14.164   9.115  0.00  0.00    -0.199 OA
BRANCH   9  12
HETATM   12  C   UNK N   1      36.976  13.670  11.585  0.00  0.00     0.150 A 
HETATM   13  N   UNK N   1      37.539  12.550  12.101  0.00  0.00    -0.345 N 
HETATM   14  C   UNK N   1      37.106  12.495  13.371  0.00  0.00     0.043 A 
HETATM   15  H   UNK N   1      38.136  11.914  11.644  0.00  0.00     0.167 HD
HETATM   16  C   UNK N   1      37.352  11.493  14.303  0.00  0.00     0.032 A 
HETATM   17  C   UNK N   1      36.280  13.546  13.647  0.00  0.00    -0.005 A 
HETATM   18  C   UNK N   1      36.702  11.589  15.550  0.00  0.00     0.026 A 
HETATM   19  C   UNK N   1      35.834  12.672  15.825  0.00  0.00     0.035 A 
HETATM   20 Cl   UNK N   1      34.981  12.752  17.350  0.00  0.00    -0.084 Cl
HETATM   21  C   UNK N   1      35.621  13.672  14.862  0.00  0.00     0.037 A 
HETATM   22  C   UNK N   1      36.184  14.315  12.524  0.00  0.00     0.057 A 
ENDBRANCH   9  12
ENDBRANCH   7   9
ENDBRANCH   1   7
BRANCH   6  23
HETATM   23  C   UNK N   1      32.027  17.484   8.023  0.00  0.00     0.175 C 
HETATM   24  C   UNK N   1      30.992  18.238   8.856  0.00  0.00     0.042 C 
BRANCH  23  25
HETATM   25  C   UNK N   1      31.305  16.699   6.942  0.00  0.00     0.242 C 
HETATM   26  O   UNK N   1      30.136  16.387   7.132  0.00  0.00    -0.271 OA
HETATM   27  N   UNK N   1      31.933  16.302   5.796  0.00  0.00    -0.346 N 
HETATM   28  C   UNK N   1      31.223  15.517   4.807  0.00  0.00     0.152 C 
HETATM   29  C   UNK N   1      33.266  16.756   5.461  0.00  0.00     0.152 C 
HETATM   30  C   UNK N   1      31.470  16.118   3.417  0.00  0.00     0.187 C 
HETATM   31  O   UNK N   1      31.920  17.448   3.539  0.00  0.00    -0.388 OA
HETATM   32  C   UNK N   1      33.236  17.389   4.055  0.00  0.00     0.187 C 
ENDBRANCH  23  25
ENDBRANCH   6  23
TORSDOF 5
ENDMDL
