REMARK  5 active torsions:
REMARK  status: ('A' for Active; 'I' for Inactive)
REMARK    1  A    between atoms: C_10  and  S_11 
REMARK    2  A    between atoms: S_11  and  N_14 
REMARK    3  A    between atoms: C_15  and  N_14 
REMARK    4  A    between atoms: N_20  and  C_21 
REMARK    5  A    between atoms: C_21  and  C_23 
REMARK       I    between atoms: C_23  and  N_25 
ROOT
HETATM    1  C   UNK N   1      -0.237  -3.167  -0.858  0.00  0.00     0.186 C 
HETATM    2  C   UNK N   1      -1.525  -2.447  -0.942  0.00  0.00     0.244 C 
HETATM    3  O   UNK N   1      -2.489  -2.870  -1.572  0.00  0.00    -0.271 OA
HETATM    4  C   UNK N   1       0.591  -2.176  -0.012  0.00  0.00     0.055 C 
HETATM    5  C   UNK N   1      -0.342  -1.073   0.482  0.00  0.00     0.129 C 
HETATM    6  N   UNK N   1      -1.583  -1.336  -0.188  0.00  0.00    -0.337 N 
ENDROOT
BRANCH   1   7
HETATM    7  N   UNK N   1      -0.467  -4.434  -0.161  0.00  0.00    -0.300 N 
HETATM    8  H   UNK N   1      -1.397  -4.818   0.003  0.00  0.00     0.173 HD
BRANCH   7   9
HETATM    9  S   UNK N   1       1.027  -5.242   0.375  0.00  0.00     0.275 S 
HETATM   10  O   UNK N   1       0.966  -4.967   1.883  0.00  0.00    -0.199 OA
HETATM   11  O   UNK N   1       0.742  -6.752   0.392  0.00  0.00    -0.199 OA
BRANCH   9  12
HETATM   12  C   UNK N   1       2.699  -4.771  -0.065  0.00  0.00     0.150 A 
HETATM   13  N   UNK N   1       3.788  -5.461   0.354  0.00  0.00    -0.345 N 
HETATM   14  C   UNK N   1       4.826  -4.637   0.139  0.00  0.00     0.043 A 
HETATM   15  H   UNK N   1       3.812  -6.369   0.734  0.00  0.00     0.167 HD
HETATM   16  C   UNK N   1       6.160  -4.859   0.465  0.00  0.00     0.032 A 
HETATM   17  C   UNK N   1       4.404  -3.452  -0.390  0.00  0.00    -0.005 A 
HETATM   18  C   UNK N   1       7.069  -3.804   0.245  0.00  0.00     0.026 A 
HETATM   19  C   UNK N   1       6.622  -2.572  -0.289  0.00  0.00     0.035 A 
HETATM   20 Cl   UNK N   1       7.743  -1.246  -0.500  0.00  0.00    -0.084 Cl
HETATM   21  C   UNK N   1       5.269  -2.391  -0.618  0.00  0.00     0.037 A 
HETATM   22  C   UNK N   1       3.048  -3.513  -0.535  0.00  0.00     0.057 A 
ENDBRANCH   9  12
ENDBRANCH   7   9
ENDBRANCH   1   7
BRANCH   6  23
HETATM   23  C   UNK N   1      -2.788  -0.542   0.017  0.00  0.00     0.175 C 
HETATM   24  C   UNK N   1      -2.564   0.582   1.027  0.00  0.00     0.042 C 
BRANCH  23  25
HETATM   25  C   UNK N   1      -3.885  -1.454   0.539  0.00  0.00     0.242 C 
HETATM   26  O   UNK N   1      -3.661  -2.118   1.543  0.00  0.00    -0.271 OA
HETATM   27  N   UNK N   1      -5.084  -1.581  -0.102  0.00  0.00    -0.346 N 
HETATM   28  C   UNK N   1      -6.090  -2.494   0.402  0.00  0.00     0.152 C 
HETATM   29  C   UNK N   1      -5.451  -0.724  -1.210  0.00  0.00     0.152 C 
HETATM   30  C   UNK N   1      -7.445  -1.776   0.441  0.00  0.00     0.187 C 
HETATM   31  O   UNK N   1      -7.254  -0.380   0.407  0.00  0.00    -0.388 OA
HETATM   32  C   UNK N   1      -6.806  -0.060  -0.896  0.00  0.00     0.187 C 
ENDBRANCH  23  25
ENDBRANCH   6  23
TORSDOF 5
