MODEL 1
REMARK VINA RESULT:      -4.6      0.000      0.000
REMARK  13 active torsions:
REMARK  status: ('A' for Active; 'I' for Inactive)
REMARK    1  A    between atoms: C_2  and  N_1 
REMARK    2  A    between atoms: C_2  and  C_3 
REMARK    3  A    between atoms: C_2  and  C_5 
REMARK    4  A    between atoms: C_3  and  S_4 
REMARK    5  A    between atoms: S_4  and  C_8 
REMARK    6  A    between atoms: C_5  and  O_7 
REMARK    7  A    between atoms: C_8  and  C_9 
REMARK    8  A    between atoms: C_9  and  C_10 
REMARK    9  A    between atoms: C_10  and  C_11 
REMARK   10  A    between atoms: C_11  and  C_12 
REMARK   11  A    between atoms: C_12  and  C_13 
REMARK   12  A    between atoms: C_13  and  C_14 
REMARK   13  A    between atoms: C_14  and  C_15 
ROOT
HETATM    1  S   UNK N   1      20.680  17.964   4.502  0.00  0.00    -0.167 SA
ENDROOT
BRANCH   1   2
HETATM    2  C   UNK N   1      21.448  18.381   2.899  0.00  0.00     0.109 C 
BRANCH   2   3
HETATM    3  C   UNK N   1      20.483  18.996   1.884  0.00  0.00     0.182 C 
BRANCH   3   4
HETATM    4  N   UNK N   1      19.182  19.192   2.504  0.00  0.00    -0.417 N 
HETATM    5  H   UNK N   1      18.259  19.590   2.335  0.00  0.00     0.150 HD
HETATM    6  H   UNK N   1      19.199  18.786   3.441  0.00  0.00     0.150 HD
ENDBRANCH   3   4
BRANCH   3   7
HETATM    7  C   UNK N   1      20.964  20.291   1.280  0.00  0.00     0.163 C 
HETATM    8  O   UNK N   1      21.633  21.058   1.955  0.00  0.00    -0.648 OA
BRANCH   7   9
HETATM    9  O   UNK N   1      20.653  20.626   0.013  0.00  0.00    -0.775 OA
HETATM   10  H   UNK N   1      19.973  21.250  -0.154  0.00  0.00     0.167 HD
ENDBRANCH   7   9
ENDBRANCH   3   7
ENDBRANCH   2   3
ENDBRANCH   1   2
BRANCH   1  11
HETATM   11  C   UNK N   1      22.287  17.550   5.252  0.00  0.00     0.074 C 
BRANCH  11  12
HETATM   12  C   UNK N   1      23.403  18.398   4.653  0.00  0.00     0.010 C 
BRANCH  12  13
HETATM   13  C   UNK N   1      24.733  17.667   4.662  0.00  0.00     0.001 C 
BRANCH  13  14
HETATM   14  C   UNK N   1      25.671  18.218   3.603  0.00  0.00     0.000 C 
BRANCH  14  15
HETATM   15  C   UNK N   1      25.229  19.615   3.216  0.00  0.00     0.000 C 
BRANCH  15  16
HETATM   16  C   UNK N   1      26.410  20.566   3.231  0.00  0.00     0.000 C 
BRANCH  16  17
HETATM   17  C   UNK N   1      27.387  20.122   4.298  0.00  0.00    -0.000 C 
BRANCH  17  18
HETATM   18  C   UNK N   1      27.268  21.024   5.506  0.00  0.00    -0.005 C 
HETATM   19  C   UNK N   1      27.422  20.197   6.765  0.00  0.00     0.005 C 
ENDBRANCH  17  18
ENDBRANCH  16  17
ENDBRANCH  15  16
ENDBRANCH  14  15
ENDBRANCH  13  14
ENDBRANCH  12  13
ENDBRANCH  11  12
ENDBRANCH   1  11
TORSDOF 13
ENDMDL
MODEL 2
REMARK VINA RESULT:      -4.5      8.434     10.705
REMARK  13 active torsions:
REMARK  status: ('A' for Active; 'I' for Inactive)
REMARK    1  A    between atoms: C_2  and  N_1 
REMARK    2  A    between atoms: C_2  and  C_3 
REMARK    3  A    between atoms: C_2  and  C_5 
REMARK    4  A    between atoms: C_3  and  S_4 
REMARK    5  A    between atoms: S_4  and  C_8 
REMARK    6  A    between atoms: C_5  and  O_7 
REMARK    7  A    between atoms: C_8  and  C_9 
REMARK    8  A    between atoms: C_9  and  C_10 
REMARK    9  A    between atoms: C_10  and  C_11 
REMARK   10  A    between atoms: C_11  and  C_12 
REMARK   11  A    between atoms: C_12  and  C_13 
REMARK   12  A    between atoms: C_13  and  C_14 
REMARK   13  A    between atoms: C_14  and  C_15 
ROOT
HETATM    1  S   UNK N   1      31.980  15.386   8.484  0.00  0.00    -0.167 SA
ENDROOT
BRANCH   1   2
HETATM    2  C   UNK N   1      33.708  15.959   8.344  0.00  0.00     0.109 C 
BRANCH   2   3
HETATM    3  C   UNK N   1      33.973  17.314   9.002  0.00  0.00     0.182 C 
BRANCH   3   4
HETATM    4  N   UNK N   1      34.775  17.127  10.200  0.00  0.00    -0.417 N 
HETATM    5  H   UNK N   1      35.139  17.622  11.014  0.00  0.00     0.150 HD
HETATM    6  H   UNK N   1      35.083  16.154  10.242  0.00  0.00     0.150 HD
ENDBRANCH   3   4
BRANCH   3   7
HETATM    7  C   UNK N   1      34.633  18.323   8.096  0.00  0.00     0.163 C 
HETATM    8  O   UNK N   1      34.508  18.216   6.886  0.00  0.00    -0.648 OA
BRANCH   7   9
HETATM    9  O   UNK N   1      35.372  19.331   8.597  0.00  0.00    -0.775 OA
HETATM   10  H   UNK N   1      34.977  20.164   8.767  0.00  0.00     0.167 HD
ENDBRANCH   7   9
ENDBRANCH   3   7
ENDBRANCH   2   3
ENDBRANCH   1   2
BRANCH   1  11
HETATM   11  C   UNK N   1      31.324  16.961   7.846  0.00  0.00     0.074 C 
BRANCH  11  12
HETATM   12  C   UNK N   1      30.199  16.718   6.847  0.00  0.00     0.010 C 
BRANCH  12  13
HETATM   13  C   UNK N   1      29.074  17.723   7.011  0.00  0.00     0.001 C 
BRANCH  13  14
HETATM   14  C   UNK N   1      27.766  17.179   6.462  0.00  0.00     0.000 C 
BRANCH  14  15
HETATM   15  C   UNK N   1      27.066  18.261   5.664  0.00  0.00     0.000 C 
BRANCH  15  16
HETATM   16  C   UNK N   1      28.083  19.151   4.977  0.00  0.00     0.000 C 
BRANCH  16  17
HETATM   17  C   UNK N   1      27.379  19.990   3.933  0.00  0.00    -0.000 C 
BRANCH  17  18
HETATM   18  C   UNK N   1      26.061  19.345   3.563  0.00  0.00    -0.005 C 
HETATM   19  C   UNK N   1      25.173  20.371   2.890  0.00  0.00     0.005 C 
ENDBRANCH  17  18
ENDBRANCH  16  17
ENDBRANCH  15  16
ENDBRANCH  14  15
ENDBRANCH  13  14
ENDBRANCH  12  13
ENDBRANCH  11  12
ENDBRANCH   1  11
TORSDOF 13
ENDMDL
MODEL 3
REMARK VINA RESULT:      -4.5     13.053     15.562
REMARK  13 active torsions:
REMARK  status: ('A' for Active; 'I' for Inactive)
REMARK    1  A    between atoms: C_2  and  N_1 
REMARK    2  A    between atoms: C_2  and  C_3 
REMARK    3  A    between atoms: C_2  and  C_5 
REMARK    4  A    between atoms: C_3  and  S_4 
REMARK    5  A    between atoms: S_4  and  C_8 
REMARK    6  A    between atoms: C_5  and  O_7 
REMARK    7  A    between atoms: C_8  and  C_9 
REMARK    8  A    between atoms: C_9  and  C_10 
REMARK    9  A    between atoms: C_10  and  C_11 
REMARK   10  A    between atoms: C_11  and  C_12 
REMARK   11  A    between atoms: C_12  and  C_13 
REMARK   12  A    between atoms: C_13  and  C_14 
REMARK   13  A    between atoms: C_14  and  C_15 
ROOT
HETATM    1  S   UNK N   1      34.257  14.289   9.548  0.00  0.00    -0.167 SA
ENDROOT
BRANCH   1   2
HETATM    2  C   UNK N   1      34.912  15.705   8.600  0.00  0.00     0.109 C 
BRANCH   2   3
HETATM    3  C   UNK N   1      34.411  17.067   9.083  0.00  0.00     0.182 C 
BRANCH   3   4
HETATM    4  N   UNK N   1      34.974  17.358  10.392  0.00  0.00    -0.417 N 
HETATM    5  H   UNK N   1      35.751  17.833  10.849  0.00  0.00     0.150 HD
HETATM    6  H   UNK N   1      34.378  16.938  11.107  0.00  0.00     0.150 HD
ENDBRANCH   3   4
BRANCH   3   7
HETATM    7  C   UNK N   1      34.701  18.204   8.136  0.00  0.00     0.163 C 
HETATM    8  O   UNK N   1      35.262  19.205   8.552  0.00  0.00    -0.648 OA
BRANCH   7   9
HETATM    9  O   UNK N   1      34.334  18.142   6.841  0.00  0.00    -0.775 OA
HETATM   10  H   UNK N   1      34.687  18.754   6.224  0.00  0.00     0.167 HD
ENDBRANCH   7   9
ENDBRANCH   3   7
ENDBRANCH   2   3
ENDBRANCH   1   2
BRANCH   1  11
HETATM   11  C   UNK N   1      35.905  13.530   9.704  0.00  0.00     0.074 C 
BRANCH  11  12
HETATM   12  C   UNK N   1      36.771  14.307  10.689  0.00  0.00     0.010 C 
BRANCH  12  13
HETATM   13  C   UNK N   1      36.109  14.423  12.050  0.00  0.00     0.001 C 
BRANCH  13  14
HETATM   14  C   UNK N   1      36.293  13.153  12.862  0.00  0.00     0.000 C 
BRANCH  14  15
HETATM   15  C   UNK N   1      36.437  13.508  14.329  0.00  0.00     0.000 C 
BRANCH  15  16
HETATM   16  C   UNK N   1      36.043  12.330  15.198  0.00  0.00     0.000 C 
BRANCH  16  17
HETATM   17  C   UNK N   1      34.547  12.361  15.423  0.00  0.00    -0.000 C 
BRANCH  17  18
HETATM   18  C   UNK N   1      33.908  11.152  14.776  0.00  0.00    -0.005 C 
HETATM   19  C   UNK N   1      34.731   9.921  15.090  0.00  0.00     0.005 C 
ENDBRANCH  17  18
ENDBRANCH  16  17
ENDBRANCH  15  16
ENDBRANCH  14  15
ENDBRANCH  13  14
ENDBRANCH  12  13
ENDBRANCH  11  12
ENDBRANCH   1  11
TORSDOF 13
ENDMDL
MODEL 4
REMARK VINA RESULT:      -4.4     14.623     17.102
REMARK  13 active torsions:
REMARK  status: ('A' for Active; 'I' for Inactive)
REMARK    1  A    between atoms: C_2  and  N_1 
REMARK    2  A    between atoms: C_2  and  C_3 
REMARK    3  A    between atoms: C_2  and  C_5 
REMARK    4  A    between atoms: C_3  and  S_4 
REMARK    5  A    between atoms: S_4  and  C_8 
REMARK    6  A    between atoms: C_5  and  O_7 
REMARK    7  A    between atoms: C_8  and  C_9 
REMARK    8  A    between atoms: C_9  and  C_10 
REMARK    9  A    between atoms: C_10  and  C_11 
REMARK   10  A    between atoms: C_11  and  C_12 
REMARK   11  A    between atoms: C_12  and  C_13 
REMARK   12  A    between atoms: C_13  and  C_14 
REMARK   13  A    between atoms: C_14  and  C_15 
ROOT
HETATM    1  S   UNK N   1      34.847  12.112  11.751  0.00  0.00    -0.167 SA
ENDROOT
BRANCH   1   2
HETATM    2  C   UNK N   1      35.367  13.859  11.876  0.00  0.00     0.109 C 
BRANCH   2   3
HETATM    3  C   UNK N   1      34.878  14.741  10.727  0.00  0.00     0.182 C 
BRANCH   3   4
HETATM    4  N   UNK N   1      33.430  14.866  10.789  0.00  0.00    -0.417 N 
HETATM    5  H   UNK N   1      32.686  15.431  11.196  0.00  0.00     0.150 HD
HETATM    6  H   UNK N   1      33.011  14.126  10.225  0.00  0.00     0.150 HD
ENDBRANCH   3   4
BRANCH   3   7
HETATM    7  C   UNK N   1      35.510  16.109  10.685  0.00  0.00     0.163 C 
HETATM    8  O   UNK N   1      36.718  16.218  10.824  0.00  0.00    -0.648 OA
BRANCH   7   9
HETATM    9  O   UNK N   1      34.762  17.217  10.516  0.00  0.00    -0.775 OA
HETATM   10  H   UNK N   1      35.036  18.030  10.894  0.00  0.00     0.167 HD
ENDBRANCH   7   9
ENDBRANCH   3   7
ENDBRANCH   2   3
ENDBRANCH   1   2
BRANCH   1  11
HETATM   11  C   UNK N   1      35.290  11.775  13.485  0.00  0.00     0.074 C 
BRANCH  11  12
HETATM   12  C   UNK N   1      34.076  11.300  14.275  0.00  0.00     0.010 C 
BRANCH  12  13
HETATM   13  C   UNK N   1      34.480  10.558  15.536  0.00  0.00     0.001 C 
BRANCH  13  14
HETATM   14  C   UNK N   1      35.714  11.178  16.168  0.00  0.00     0.000 C 
BRANCH  14  15
HETATM   15  C   UNK N   1      35.304  11.996  17.376  0.00  0.00     0.000 C 
BRANCH  15  16
HETATM   16  C   UNK N   1      35.044  13.435  16.975  0.00  0.00     0.000 C 
BRANCH  16  17
HETATM   17  C   UNK N   1      35.462  14.347  18.107  0.00  0.00    -0.000 C 
BRANCH  17  18
HETATM   18  C   UNK N   1      36.564  15.271  17.639  0.00  0.00    -0.005 C 
HETATM   19  C   UNK N   1      36.895  14.965  16.194  0.00  0.00     0.005 C 
ENDBRANCH  17  18
ENDBRANCH  16  17
ENDBRANCH  15  16
ENDBRANCH  14  15
ENDBRANCH  13  14
ENDBRANCH  12  13
ENDBRANCH  11  12
ENDBRANCH   1  11
TORSDOF 13
ENDMDL
MODEL 5
REMARK VINA RESULT:      -4.3     16.702     18.576
REMARK  13 active torsions:
REMARK  status: ('A' for Active; 'I' for Inactive)
REMARK    1  A    between atoms: C_2  and  N_1 
REMARK    2  A    between atoms: C_2  and  C_3 
REMARK    3  A    between atoms: C_2  and  C_5 
REMARK    4  A    between atoms: C_3  and  S_4 
REMARK    5  A    between atoms: S_4  and  C_8 
REMARK    6  A    between atoms: C_5  and  O_7 
REMARK    7  A    between atoms: C_8  and  C_9 
REMARK    8  A    between atoms: C_9  and  C_10 
REMARK    9  A    between atoms: C_10  and  C_11 
REMARK   10  A    between atoms: C_11  and  C_12 
REMARK   11  A    between atoms: C_12  and  C_13 
REMARK   12  A    between atoms: C_13  and  C_14 
REMARK   13  A    between atoms: C_14  and  C_15 
ROOT
HETATM    1  S   UNK N   1      36.657  10.187  13.159  0.00  0.00    -0.167 SA
ENDROOT
BRANCH   1   2
HETATM    2  C   UNK N   1      36.087  11.610  12.167  0.00  0.00     0.109 C 
BRANCH   2   3
HETATM    3  C   UNK N   1      36.787  12.928  12.504  0.00  0.00     0.182 C 
BRANCH   3   4
HETATM    4  N   UNK N   1      37.966  13.083  11.666  0.00  0.00    -0.417 N 
HETATM    5  H   UNK N   1      38.271  13.440  10.761  0.00  0.00     0.150 HD
HETATM    6  H   UNK N   1      38.773  12.701  12.159  0.00  0.00     0.150 HD
ENDBRANCH   3   4
BRANCH   3   7
HETATM    7  C   UNK N   1      35.905  14.145  12.381  0.00  0.00     0.163 C 
HETATM    8  O   UNK N   1      34.692  14.010  12.374  0.00  0.00    -0.648 OA
BRANCH   7   9
HETATM    9  O   UNK N   1      36.433  15.378  12.261  0.00  0.00    -0.775 OA
HETATM   10  H   UNK N   1      35.896  16.134  12.398  0.00  0.00     0.167 HD
ENDBRANCH   7   9
ENDBRANCH   3   7
ENDBRANCH   2   3
ENDBRANCH   1   2
BRANCH   1  11
HETATM   11  C   UNK N   1      34.962   9.554  13.367  0.00  0.00     0.074 C 
BRANCH  11  12
HETATM   12  C   UNK N   1      33.995  10.685  13.695  0.00  0.00     0.010 C 
BRANCH  12  13
HETATM   13  C   UNK N   1      33.941  10.965  15.185  0.00  0.00     0.001 C 
BRANCH  13  14
HETATM   14  C   UNK N   1      34.492  12.344  15.507  0.00  0.00     0.000 C 
BRANCH  14  15
HETATM   15  C   UNK N   1      35.486  12.236  16.646  0.00  0.00     0.000 C 
BRANCH  15  16
HETATM   16  C   UNK N   1      35.050  13.104  17.810  0.00  0.00     0.000 C 
BRANCH  16  17
HETATM   17  C   UNK N   1      35.341  12.377  19.105  0.00  0.00    -0.000 C 
BRANCH  17  18
HETATM   18  C   UNK N   1      35.348  10.884  18.862  0.00  0.00    -0.005 C 
HETATM   19  C   UNK N   1      36.560  10.273  19.533  0.00  0.00     0.005 C 
ENDBRANCH  17  18
ENDBRANCH  16  17
ENDBRANCH  15  16
ENDBRANCH  14  15
ENDBRANCH  13  14
ENDBRANCH  12  13
ENDBRANCH  11  12
ENDBRANCH   1  11
TORSDOF 13
ENDMDL
MODEL 6
REMARK VINA RESULT:      -4.3     10.924     12.618
REMARK  13 active torsions:
REMARK  status: ('A' for Active; 'I' for Inactive)
REMARK    1  A    between atoms: C_2  and  N_1 
REMARK    2  A    between atoms: C_2  and  C_3 
REMARK    3  A    between atoms: C_2  and  C_5 
REMARK    4  A    between atoms: C_3  and  S_4 
REMARK    5  A    between atoms: S_4  and  C_8 
REMARK    6  A    between atoms: C_5  and  O_7 
REMARK    7  A    between atoms: C_8  and  C_9 
REMARK    8  A    between atoms: C_9  and  C_10 
REMARK    9  A    between atoms: C_10  and  C_11 
REMARK   10  A    between atoms: C_11  and  C_12 
REMARK   11  A    between atoms: C_12  and  C_13 
REMARK   12  A    between atoms: C_13  and  C_14 
REMARK   13  A    between atoms: C_14  and  C_15 
ROOT
HETATM    1  S   UNK N   1      29.246  24.211  -4.858  0.00  0.00    -0.167 SA
ENDROOT
BRANCH   1   2
HETATM    2  C   UNK N   1      29.836  22.520  -4.502  0.00  0.00     0.109 C 
BRANCH   2   3
HETATM    3  C   UNK N   1      31.304  22.445  -4.080  0.00  0.00     0.182 C 
BRANCH   3   4
HETATM    4  N   UNK N   1      31.994  23.656  -4.498  0.00  0.00    -0.417 N 
HETATM    5  H   UNK N   1      32.723  24.308  -4.211  0.00  0.00     0.150 HD
HETATM    6  H   UNK N   1      31.615  23.958  -5.395  0.00  0.00     0.150 HD
ENDBRANCH   3   4
BRANCH   3   7
HETATM    7  C   UNK N   1      31.513  22.219  -2.604  0.00  0.00     0.163 C 
HETATM    8  O   UNK N   1      30.877  22.880  -1.798  0.00  0.00    -0.648 OA
BRANCH   7   9
HETATM    9  O   UNK N   1      32.402  21.311  -2.158  0.00  0.00    -0.775 OA
HETATM   10  H   UNK N   1      32.107  20.472  -1.859  0.00  0.00     0.167 HD
ENDBRANCH   7   9
ENDBRANCH   3   7
ENDBRANCH   2   3
ENDBRANCH   1   2
BRANCH   1  11
HETATM   11  C   UNK N   1      28.050  24.166  -3.486  0.00  0.00     0.074 C 
BRANCH  11  12
HETATM   12  C   UNK N   1      26.620  24.250  -4.006  0.00  0.00     0.010 C 
BRANCH  12  13
HETATM   13  C   UNK N   1      26.178  25.688  -4.208  0.00  0.00     0.001 C 
BRANCH  13  14
HETATM   14  C   UNK N   1      25.358  25.838  -5.478  0.00  0.00     0.000 C 
BRANCH  14  15
HETATM   15  C   UNK N   1      25.629  27.195  -6.096  0.00  0.00     0.000 C 
BRANCH  15  16
HETATM   16  C   UNK N   1      27.082  27.303  -6.514  0.00  0.00     0.000 C 
BRANCH  16  17
HETATM   17  C   UNK N   1      27.545  28.732  -6.325  0.00  0.00    -0.000 C 
BRANCH  17  18
HETATM   18  C   UNK N   1      27.725  29.020  -4.851  0.00  0.00    -0.005 C 
HETATM   19  C   UNK N   1      26.991  30.295  -4.496  0.00  0.00     0.005 C 
ENDBRANCH  17  18
ENDBRANCH  16  17
ENDBRANCH  15  16
ENDBRANCH  14  15
ENDBRANCH  13  14
ENDBRANCH  12  13
ENDBRANCH  11  12
ENDBRANCH   1  11
TORSDOF 13
ENDMDL
MODEL 7
REMARK VINA RESULT:      -4.3      4.354      6.467
REMARK  13 active torsions:
REMARK  status: ('A' for Active; 'I' for Inactive)
REMARK    1  A    between atoms: C_2  and  N_1 
REMARK    2  A    between atoms: C_2  and  C_3 
REMARK    3  A    between atoms: C_2  and  C_5 
REMARK    4  A    between atoms: C_3  and  S_4 
REMARK    5  A    between atoms: S_4  and  C_8 
REMARK    6  A    between atoms: C_5  and  O_7 
REMARK    7  A    between atoms: C_8  and  C_9 
REMARK    8  A    between atoms: C_9  and  C_10 
REMARK    9  A    between atoms: C_10  and  C_11 
REMARK   10  A    between atoms: C_11  and  C_12 
REMARK   11  A    between atoms: C_12  and  C_13 
REMARK   12  A    between atoms: C_13  and  C_14 
REMARK   13  A    between atoms: C_14  and  C_15 
ROOT
HETATM    1  S   UNK N   1      22.014  17.634   4.241  0.00  0.00    -0.167 SA
ENDROOT
BRANCH   1   2
HETATM    2  C   UNK N   1      21.034  19.147   3.945  0.00  0.00     0.109 C 
BRANCH   2   3
HETATM    3  C   UNK N   1      20.656  19.370   2.480  0.00  0.00     0.182 C 
BRANCH   3   4
HETATM    4  N   UNK N   1      19.223  19.185   2.312  0.00  0.00    -0.417 N 
HETATM    5  H   UNK N   1      18.484  18.488   2.400  0.00  0.00     0.150 HD
HETATM    6  H   UNK N   1      18.812  20.063   1.993  0.00  0.00     0.150 HD
ENDBRANCH   3   4
BRANCH   3   7
HETATM    7  C   UNK N   1      21.067  20.714   1.934  0.00  0.00     0.163 C 
HETATM    8  O   UNK N   1      20.782  21.009   0.784  0.00  0.00    -0.648 OA
BRANCH   7   9
HETATM    9  O   UNK N   1      21.760  21.590   2.687  0.00  0.00    -0.775 OA
HETATM   10  H   UNK N   1      21.315  22.117   3.323  0.00  0.00     0.167 HD
ENDBRANCH   7   9
ENDBRANCH   3   7
ENDBRANCH   2   3
ENDBRANCH   1   2
BRANCH   1  11
HETATM   11  C   UNK N   1      20.823  17.009   5.469  0.00  0.00     0.074 C 
BRANCH  11  12
HETATM   12  C   UNK N   1      21.518  16.139   6.509  0.00  0.00     0.010 C 
BRANCH  12  13
HETATM   13  C   UNK N   1      20.794  14.822   6.716  0.00  0.00     0.001 C 
BRANCH  13  14
HETATM   14  C   UNK N   1      21.493  13.968   7.760  0.00  0.00     0.000 C 
BRANCH  14  15
HETATM   15  C   UNK N   1      21.133  14.469   9.145  0.00  0.00     0.000 C 
BRANCH  15  16
HETATM   16  C   UNK N   1      21.457  13.417  10.187  0.00  0.00     0.000 C 
BRANCH  16  17
HETATM   17  C   UNK N   1      22.913  13.027  10.058  0.00  0.00    -0.000 C 
BRANCH  17  18
HETATM   18  C   UNK N   1      23.171  11.751  10.829  0.00  0.00    -0.005 C 
HETATM   19  C   UNK N   1      22.735  11.938  12.267  0.00  0.00     0.005 C 
ENDBRANCH  17  18
ENDBRANCH  16  17
ENDBRANCH  15  16
ENDBRANCH  14  15
ENDBRANCH  13  14
ENDBRANCH  12  13
ENDBRANCH  11  12
ENDBRANCH   1  11
TORSDOF 13
ENDMDL
MODEL 8
REMARK VINA RESULT:      -4.3     15.807     18.190
REMARK  13 active torsions:
REMARK  status: ('A' for Active; 'I' for Inactive)
REMARK    1  A    between atoms: C_2  and  N_1 
REMARK    2  A    between atoms: C_2  and  C_3 
REMARK    3  A    between atoms: C_2  and  C_5 
REMARK    4  A    between atoms: C_3  and  S_4 
REMARK    5  A    between atoms: S_4  and  C_8 
REMARK    6  A    between atoms: C_5  and  O_7 
REMARK    7  A    between atoms: C_8  and  C_9 
REMARK    8  A    between atoms: C_9  and  C_10 
REMARK    9  A    between atoms: C_10  and  C_11 
REMARK   10  A    between atoms: C_11  and  C_12 
REMARK   11  A    between atoms: C_12  and  C_13 
REMARK   12  A    between atoms: C_13  and  C_14 
REMARK   13  A    between atoms: C_14  and  C_15 
ROOT
HETATM    1  S   UNK N   1      35.327  11.403  12.885  0.00  0.00    -0.167 SA
ENDROOT
BRANCH   1   2
HETATM    2  C   UNK N   1      34.988  13.093  13.491  0.00  0.00     0.109 C 
BRANCH   2   3
HETATM    3  C   UNK N   1      35.752  14.189  12.747  0.00  0.00     0.182 C 
BRANCH   3   4
HETATM    4  N   UNK N   1      37.083  13.712  12.406  0.00  0.00    -0.417 N 
HETATM    5  H   UNK N   1      38.039  13.669  12.758  0.00  0.00     0.150 HD
HETATM    6  H   UNK N   1      37.046  13.261  11.492  0.00  0.00     0.150 HD
ENDBRANCH   3   4
BRANCH   3   7
HETATM    7  C   UNK N   1      35.055  14.696  11.510  0.00  0.00     0.163 C 
HETATM    8  O   UNK N   1      35.719  15.039  10.544  0.00  0.00    -0.648 OA
BRANCH   7   9
HETATM    9  O   UNK N   1      33.713  14.796  11.457  0.00  0.00    -0.775 OA
HETATM   10  H   UNK N   1      33.232  14.311  10.815  0.00  0.00     0.167 HD
ENDBRANCH   7   9
ENDBRANCH   3   7
ENDBRANCH   2   3
ENDBRANCH   1   2
BRANCH   1  11
HETATM   11  C   UNK N   1      33.884  10.717  13.759  0.00  0.00     0.074 C 
BRANCH  11  12
HETATM   12  C   UNK N   1      34.257  10.288  15.173  0.00  0.00     0.010 C 
BRANCH  12  13
HETATM   13  C   UNK N   1      35.474   9.381  15.184  0.00  0.00     0.001 C 
BRANCH  13  14
HETATM   14  C   UNK N   1      36.175   9.418  16.530  0.00  0.00     0.000 C 
BRANCH  14  15
HETATM   15  C   UNK N   1      36.100  10.821  17.099  0.00  0.00     0.000 C 
BRANCH  15  16
HETATM   16  C   UNK N   1      35.637  10.781  18.542  0.00  0.00     0.000 C 
BRANCH  16  17
HETATM   17  C   UNK N   1      35.275  12.182  18.984  0.00  0.00    -0.000 C 
BRANCH  17  18
HETATM   18  C   UNK N   1      35.017  13.049  17.771  0.00  0.00    -0.005 C 
HETATM   19  C   UNK N   1      35.489  14.459  18.054  0.00  0.00     0.005 C 
ENDBRANCH  17  18
ENDBRANCH  16  17
ENDBRANCH  15  16
ENDBRANCH  14  15
ENDBRANCH  13  14
ENDBRANCH  12  13
ENDBRANCH  11  12
ENDBRANCH   1  11
TORSDOF 13
ENDMDL
MODEL 9
REMARK VINA RESULT:      -4.2     12.048     14.607
REMARK  13 active torsions:
REMARK  status: ('A' for Active; 'I' for Inactive)
REMARK    1  A    between atoms: C_2  and  N_1 
REMARK    2  A    between atoms: C_2  and  C_3 
REMARK    3  A    between atoms: C_2  and  C_5 
REMARK    4  A    between atoms: C_3  and  S_4 
REMARK    5  A    between atoms: S_4  and  C_8 
REMARK    6  A    between atoms: C_5  and  O_7 
REMARK    7  A    between atoms: C_8  and  C_9 
REMARK    8  A    between atoms: C_9  and  C_10 
REMARK    9  A    between atoms: C_10  and  C_11 
REMARK   10  A    between atoms: C_11  and  C_12 
REMARK   11  A    between atoms: C_12  and  C_13 
REMARK   12  A    between atoms: C_13  and  C_14 
REMARK   13  A    between atoms: C_14  and  C_15 
ROOT
HETATM    1  S   UNK N   1      35.983  14.570   9.721  0.00  0.00    -0.167 SA
ENDROOT
BRANCH   1   2
HETATM    2  C   UNK N   1      35.200  13.708  11.128  0.00  0.00     0.109 C 
BRANCH   2   3
HETATM    3  C   UNK N   1      36.185  13.229  12.195  0.00  0.00     0.182 C 
BRANCH   3   4
HETATM    4  N   UNK N   1      37.548  13.459  11.740  0.00  0.00    -0.417 N 
HETATM    5  H   UNK N   1      38.493  13.081  11.800  0.00  0.00     0.150 HD
HETATM    6  H   UNK N   1      37.563  14.293  11.152  0.00  0.00     0.150 HD
ENDBRANCH   3   4
BRANCH   3   7
HETATM    7  C   UNK N   1      35.984  13.859  13.550  0.00  0.00     0.163 C 
HETATM    8  O   UNK N   1      35.002  13.562  14.211  0.00  0.00    -0.648 OA
BRANCH   7   9
HETATM    9  O   UNK N   1      36.859  14.760  14.037  0.00  0.00    -0.775 OA
HETATM   10  H   UNK N   1      37.208  15.426  13.476  0.00  0.00     0.167 HD
ENDBRANCH   7   9
ENDBRANCH   3   7
ENDBRANCH   2   3
ENDBRANCH   1   2
BRANCH   1  11
HETATM   11  C   UNK N   1      35.452  16.203  10.325  0.00  0.00     0.074 C 
BRANCH  11  12
HETATM   12  C   UNK N   1      34.232  16.698   9.558  0.00  0.00     0.010 C 
BRANCH  12  13
HETATM   13  C   UNK N   1      34.594  17.790   8.568  0.00  0.00     0.001 C 
BRANCH  13  14
HETATM   14  C   UNK N   1      33.377  18.248   7.784  0.00  0.00     0.000 C 
BRANCH  14  15
HETATM   15  C   UNK N   1      32.129  17.636   8.389  0.00  0.00     0.000 C 
BRANCH  15  16
HETATM   16  C   UNK N   1      31.277  17.000   7.308  0.00  0.00     0.000 C 
BRANCH  16  17
HETATM   17  C   UNK N   1      29.865  17.533   7.414  0.00  0.00    -0.000 C 
BRANCH  17  18
HETATM   18  C   UNK N   1      29.705  18.301   8.708  0.00  0.00    -0.005 C 
HETATM   19  C   UNK N   1      28.356  17.984   9.316  0.00  0.00     0.005 C 
ENDBRANCH  17  18
ENDBRANCH  16  17
ENDBRANCH  15  16
ENDBRANCH  14  15
ENDBRANCH  13  14
ENDBRANCH  12  13
ENDBRANCH  11  12
ENDBRANCH   1  11
TORSDOF 13
ENDMDL
