MODEL 1
REMARK VINA RESULT:      -5.9      0.000      0.000
REMARK  3 active torsions:
REMARK  status: ('A' for Active; 'I' for Inactive)
REMARK    1  A    between atoms: C_1  and  C_11 
REMARK    2  A    between atoms: C_3  and  C_7 
REMARK    3  A    between atoms: C_7  and  O_8 
ROOT
HETATM    1  C   UNK N   1      32.403  16.376   8.246  0.00  0.00     0.069 C 
HETATM    2  C   UNK N   1      30.235  17.394   7.499  0.00  0.00     0.001 C 
HETATM    3  C   UNK N   1      32.872  16.217   6.768  0.00  0.00     0.095 C 
HETATM    4  C   UNK N   1      31.611  16.009   5.906  0.00  0.00     0.016 C 
HETATM    5  C   UNK N   1      30.633  17.182   6.041  0.00  0.00     0.001 C 
HETATM    6  C   UNK N   1      31.472  17.585   8.377  0.00  0.00     0.013 C 
ENDROOT
BRANCH   1   7
HETATM    7  C   UNK N   1      33.476  16.430   9.303  0.00  0.00     0.103 A 
HETATM    8  N   UNK N   1      33.864  15.347  10.010  0.00  0.00    -0.320 N 
HETATM    9  C   UNK N   1      34.856  15.831  10.776  0.00  0.00     0.192 A 
HETATM   10  H   UNK N   1      33.510  14.430   9.972  0.00  0.00     0.169 HD
HETATM   11  S   UNK N   1      35.617  15.038  11.694  0.00  0.00    -0.039 SA
HETATM   12  N   UNK N   1      35.072  17.138  10.557  0.00  0.00    -0.275 N 
HETATM   13  N   UNK N   1      34.210  17.514   9.628  0.00  0.00    -0.286 N 
HETATM   14  H   UNK N   1      35.742  17.706  11.001  0.00  0.00     0.189 HD
ATOM     15  HN  UNK N   1      34.118  18.449   9.230  1.00  0.00     0.188 HD
ENDBRANCH   1   7
BRANCH   3  16
HETATM   16  C   UNK N   1      33.722  17.358   6.215  0.00  0.00     0.144 C 
HETATM   17  O   UNK N   1      34.627  17.841   6.881  0.00  0.00    -0.650 OA
BRANCH  16  18
HETATM   18  O   UNK N   1      33.447  17.895   5.013  0.00  0.00    -0.776 OA
HETATM   19  H   UNK N   1      33.107  17.378   4.310  0.00  0.00     0.167 HD
ENDBRANCH  16  18
ENDBRANCH   3  16
TORSDOF 3
ENDMDL
MODEL 2
REMARK VINA RESULT:      -5.6      3.159      4.497
REMARK  3 active torsions:
REMARK  status: ('A' for Active; 'I' for Inactive)
REMARK    1  A    between atoms: C_1  and  C_11 
REMARK    2  A    between atoms: C_3  and  C_7 
REMARK    3  A    between atoms: C_7  and  O_8 
ROOT
HETATM    1  C   UNK N   1      32.904  16.167   8.763  0.00  0.00     0.069 C 
HETATM    2  C   UNK N   1      34.580  14.371   8.256  0.00  0.00     0.001 C 
HETATM    3  C   UNK N   1      34.036  17.138   9.215  0.00  0.00     0.095 C 
HETATM    4  C   UNK N   1      35.176  16.276   9.793  0.00  0.00     0.016 C 
HETATM    5  C   UNK N   1      35.704  15.270   8.763  0.00  0.00     0.001 C 
HETATM    6  C   UNK N   1      33.430  15.205   7.693  0.00  0.00     0.013 C 
ENDROOT
BRANCH   1   7
HETATM    7  C   UNK N   1      31.608  16.790   8.309  0.00  0.00     0.103 A 
HETATM    8  N   UNK N   1      30.685  17.269   9.169  0.00  0.00    -0.320 N 
HETATM    9  C   UNK N   1      29.745  17.771   8.350  0.00  0.00     0.192 A 
HETATM   10  H   UNK N   1      30.697  17.256  10.153  0.00  0.00     0.169 HD
HETATM   11  S   UNK N   1      28.556  18.427   8.803  0.00  0.00    -0.039 SA
HETATM   12  N   UNK N   1      30.068  17.613   7.056  0.00  0.00    -0.275 N 
HETATM   13  N   UNK N   1      31.240  17.002   7.029  0.00  0.00    -0.286 N 
HETATM   14  H   UNK N   1      29.535  17.897   6.279  0.00  0.00     0.189 HD
ATOM     15  HN  UNK N   1      31.769  16.742   6.197  1.00  0.00     0.188 HD
ENDBRANCH   1   7
BRANCH   3  16
HETATM   16  C   UNK N   1      34.567  18.085   8.141  0.00  0.00     0.144 C 
HETATM   17  O   UNK N   1      35.193  19.088   8.450  0.00  0.00    -0.650 OA
BRANCH  16  18
HETATM   18  O   UNK N   1      34.296  17.866   6.842  0.00  0.00    -0.776 OA
HETATM   19  H   UNK N   1      34.457  17.036   6.440  0.00  0.00     0.167 HD
ENDBRANCH  16  18
ENDBRANCH   3  16
TORSDOF 3
ENDMDL
MODEL 3
REMARK VINA RESULT:      -5.6      6.011      8.551
REMARK  3 active torsions:
REMARK  status: ('A' for Active; 'I' for Inactive)
REMARK    1  A    between atoms: C_1  and  C_11 
REMARK    2  A    between atoms: C_3  and  C_7 
REMARK    3  A    between atoms: C_7  and  O_8 
ROOT
HETATM    1  C   UNK N   1      35.098  12.735  14.303  0.00  0.00     0.069 C 
HETATM    2  C   UNK N   1      33.759  10.677  14.819  0.00  0.00     0.001 C 
HETATM    3  C   UNK N   1      36.249  12.257  15.239  0.00  0.00     0.095 C 
HETATM    4  C   UNK N   1      35.609  11.416  16.362  0.00  0.00     0.016 C 
HETATM    5  C   UNK N   1      34.834  10.218  15.800  0.00  0.00     0.001 C 
HETATM    6  C   UNK N   1      34.368  11.528  13.705  0.00  0.00     0.013 C 
ENDROOT
BRANCH   1   7
HETATM    7  C   UNK N   1      35.461  13.713  13.215  0.00  0.00     0.103 A 
HETATM    8  N   UNK N   1      34.780  13.803  12.053  0.00  0.00    -0.320 N 
HETATM    9  C   UNK N   1      35.397  14.818  11.424  0.00  0.00     0.192 A 
HETATM   10  H   UNK N   1      34.020  13.261  11.743  0.00  0.00     0.169 HD
HETATM   11  S   UNK N   1      35.006  15.317  10.140  0.00  0.00    -0.039 SA
HETATM   12  N   UNK N   1      36.400  15.329  12.154  0.00  0.00    -0.275 N 
HETATM   13  N   UNK N   1      36.438  14.640  13.282  0.00  0.00    -0.286 N 
HETATM   14  H   UNK N   1      36.993  16.073  11.900  0.00  0.00     0.189 HD
ATOM     15  HN  UNK N   1      37.084  14.784  14.058  1.00  0.00     0.188 HD
ENDBRANCH   1   7
BRANCH   3  16
HETATM   16  C   UNK N   1      37.378  11.483  14.561  0.00  0.00     0.144 C 
HETATM   17  O   UNK N   1      37.821  10.460  15.062  0.00  0.00    -0.650 OA
BRANCH  16  18
HETATM   18  O   UNK N   1      37.947  11.951  13.436  0.00  0.00    -0.776 OA
HETATM   19  H   UNK N   1      38.351  12.795  13.403  0.00  0.00     0.167 HD
ENDBRANCH  16  18
ENDBRANCH   3  16
TORSDOF 3
ENDMDL
MODEL 4
REMARK VINA RESULT:      -5.6      2.968      3.870
REMARK  3 active torsions:
REMARK  status: ('A' for Active; 'I' for Inactive)
REMARK    1  A    between atoms: C_1  and  C_11 
REMARK    2  A    between atoms: C_3  and  C_7 
REMARK    3  A    between atoms: C_7  and  O_8 
ROOT
HETATM    1  C   UNK N   1      31.020  17.371   8.233  0.00  0.00     0.069 C 
HETATM    2  C   UNK N   1      29.462  17.278   6.269  0.00  0.00     0.001 C 
HETATM    3  C   UNK N   1      29.931  18.070   9.102  0.00  0.00     0.095 C 
HETATM    4  C   UNK N   1      29.049  18.903   8.150  0.00  0.00     0.016 C 
HETATM    5  C   UNK N   1      28.401  18.029   7.069  0.00  0.00     0.001 C 
HETATM    6  C   UNK N   1      30.361  16.458   7.194  0.00  0.00     0.013 C 
ENDROOT
BRANCH   1   7
HETATM    7  C   UNK N   1      32.105  16.625   8.966  0.00  0.00     0.103 A 
HETATM    8  N   UNK N   1      33.349  17.121   9.138  0.00  0.00    -0.320 N 
HETATM    9  C   UNK N   1      33.950  16.173   9.875  0.00  0.00     0.192 A 
HETATM   10  H   UNK N   1      33.722  17.969   8.807  0.00  0.00     0.169 HD
HETATM   11  S   UNK N   1      35.299  16.261  10.346  0.00  0.00    -0.039 SA
HETATM   12  N   UNK N   1      33.127  15.147  10.147  0.00  0.00    -0.275 N 
HETATM   13  N   UNK N   1      31.966  15.432   9.581  0.00  0.00    -0.286 N 
HETATM   14  H   UNK N   1      33.345  14.339  10.666  0.00  0.00     0.189 HD
ATOM     15  HN  UNK N   1      31.123  14.859   9.606  1.00  0.00     0.188 HD
ENDBRANCH   1   7
BRANCH   3  16
HETATM   16  C   UNK N   1      29.073  17.144   9.962  0.00  0.00     0.144 C 
HETATM   17  O   UNK N   1      27.873  17.038   9.757  0.00  0.00    -0.650 OA
BRANCH  16  18
HETATM   18  O   UNK N   1      29.613  16.482  11.001  0.00  0.00    -0.776 OA
HETATM   19  H   UNK N   1      30.405  16.770  11.409  0.00  0.00     0.167 HD
ENDBRANCH  16  18
ENDBRANCH   3  16
TORSDOF 3
ENDMDL
MODEL 5
REMARK VINA RESULT:      -5.6      1.912      2.420
REMARK  3 active torsions:
REMARK  status: ('A' for Active; 'I' for Inactive)
REMARK    1  A    between atoms: C_1  and  C_11 
REMARK    2  A    between atoms: C_3  and  C_7 
REMARK    3  A    between atoms: C_7  and  O_8 
ROOT
HETATM    1  C   UNK N   1      33.498  15.388   8.021  0.00  0.00     0.069 C 
HETATM    2  C   UNK N   1      31.519  16.321   6.793  0.00  0.00     0.001 C 
HETATM    3  C   UNK N   1      34.414  16.520   7.465  0.00  0.00     0.095 C 
HETATM    4  C   UNK N   1      33.860  16.922   6.083  0.00  0.00     0.016 C 
HETATM    5  C   UNK N   1      32.406  17.397   6.173  0.00  0.00     0.001 C 
HETATM    6  C   UNK N   1      32.058  15.893   8.158  0.00  0.00     0.013 C 
ENDROOT
BRANCH   1   7
HETATM    7  C   UNK N   1      33.936  14.716   9.297  0.00  0.00     0.103 A 
HETATM    8  N   UNK N   1      34.974  13.854   9.353  0.00  0.00    -0.320 N 
HETATM    9  C   UNK N   1      35.042  13.553  10.660  0.00  0.00     0.192 A 
HETATM   10  H   UNK N   1      35.541  13.528   8.618  0.00  0.00     0.169 HD
HETATM   11  S   UNK N   1      36.023  12.681  11.230  0.00  0.00    -0.039 SA
HETATM   12  N   UNK N   1      34.102  14.192  11.375  0.00  0.00    -0.275 N 
HETATM   13  N   UNK N   1      33.410  14.927  10.520  0.00  0.00    -0.286 N 
HETATM   14  H   UNK N   1      33.955  14.126  12.346  0.00  0.00     0.189 HD
ATOM     15  HN  UNK N   1      32.626  15.540  10.745  1.00  0.00     0.188 HD
ENDBRANCH   1   7
BRANCH   3  16
HETATM   16  C   UNK N   1      34.571  17.746   8.362  0.00  0.00     0.144 C 
HETATM   17  O   UNK N   1      34.945  18.813   7.898  0.00  0.00    -0.650 OA
BRANCH  16  18
HETATM   18  O   UNK N   1      34.365  17.654   9.688  0.00  0.00    -0.776 OA
HETATM   19  H   UNK N   1      34.415  16.834  10.138  0.00  0.00     0.167 HD
ENDBRANCH  16  18
ENDBRANCH   3  16
TORSDOF 3
ENDMDL
MODEL 6
REMARK VINA RESULT:      -5.5      6.862      9.182
REMARK  3 active torsions:
REMARK  status: ('A' for Active; 'I' for Inactive)
REMARK    1  A    between atoms: C_1  and  C_11 
REMARK    2  A    between atoms: C_3  and  C_7 
REMARK    3  A    between atoms: C_7  and  O_8 
ROOT
HETATM    1  C   UNK N   1      35.853  12.367  14.611  0.00  0.00     0.069 C 
HETATM    2  C   UNK N   1      36.055  10.682  16.458  0.00  0.00     0.001 C 
HETATM    3  C   UNK N   1      35.457  13.480  15.629  0.00  0.00     0.095 C 
HETATM    4  C   UNK N   1      34.721  12.792  16.797  0.00  0.00     0.016 C 
HETATM    5  C   UNK N   1      35.596  11.729  17.470  0.00  0.00     0.001 C 
HETATM    6  C   UNK N   1      36.772  11.342  15.281  0.00  0.00     0.013 C 
ENDROOT
BRANCH   1   7
HETATM    7  C   UNK N   1      36.445  12.818  13.301  0.00  0.00     0.103 A 
HETATM    8  N   UNK N   1      35.794  13.633  12.443  0.00  0.00    -0.320 N 
HETATM    9  C   UNK N   1      36.694  13.814  11.462  0.00  0.00     0.192 A 
HETATM   10  H   UNK N   1      34.886  14.004  12.519  0.00  0.00     0.169 HD
HETATM   11  S   UNK N   1      36.472  14.644  10.317  0.00  0.00    -0.039 SA
HETATM   12  N   UNK N   1      37.838  13.151  11.697  0.00  0.00    -0.275 N 
HETATM   13  N   UNK N   1      37.685  12.530  12.855  0.00  0.00    -0.286 N 
HETATM   14  H   UNK N   1      38.635  13.131  11.120  0.00  0.00     0.189 HD
ATOM     15  HN  UNK N   1      38.375  11.943  13.323  1.00  0.00     0.188 HD
ENDBRANCH   1   7
BRANCH   3  16
HETATM   16  C   UNK N   1      36.604  14.344  16.147  0.00  0.00     0.144 C 
HETATM   17  O   UNK N   1      36.492  14.966  17.193  0.00  0.00    -0.650 OA
BRANCH  16  18
HETATM   18  O   UNK N   1      37.731  14.487  15.428  0.00  0.00    -0.776 OA
HETATM   19  H   UNK N   1      37.732  14.918  14.596  0.00  0.00     0.167 HD
ENDBRANCH  16  18
ENDBRANCH   3  16
TORSDOF 3
ENDMDL
MODEL 7
REMARK VINA RESULT:      -5.5     12.438     13.733
REMARK  3 active torsions:
REMARK  status: ('A' for Active; 'I' for Inactive)
REMARK    1  A    between atoms: C_1  and  C_11 
REMARK    2  A    between atoms: C_3  and  C_7 
REMARK    3  A    between atoms: C_7  and  O_8 
ROOT
HETATM    1  C   UNK N   1      43.798  21.793   2.000  0.00  0.00     0.069 C 
HETATM    2  C   UNK N   1      43.148  19.635   3.103  0.00  0.00     0.001 C 
HETATM    3  C   UNK N   1      42.446  21.838   1.225  0.00  0.00     0.095 C 
HETATM    4  C   UNK N   1      42.005  20.380   0.985  0.00  0.00     0.016 C 
HETATM    5  C   UNK N   1      41.849  19.612   2.302  0.00  0.00     0.001 C 
HETATM    6  C   UNK N   1      43.614  21.072   3.339  0.00  0.00     0.013 C 
ENDROOT
BRANCH   1   7
HETATM    7  C   UNK N   1      44.512  23.104   2.209  0.00  0.00     0.103 A 
HETATM    8  N   UNK N   1      45.520  23.524   1.415  0.00  0.00    -0.320 N 
HETATM    9  C   UNK N   1      45.811  24.735   1.920  0.00  0.00     0.192 A 
HETATM   10  H   UNK N   1      45.937  23.060   0.655  0.00  0.00     0.169 HD
HETATM   11  S   UNK N   1      46.815  25.604   1.384  0.00  0.00    -0.039 SA
HETATM   12  N   UNK N   1      45.029  25.049   2.965  0.00  0.00    -0.275 N 
HETATM   13  N   UNK N   1      44.208  24.027   3.144  0.00  0.00    -0.286 N 
HETATM   14  H   UNK N   1      45.059  25.878   3.495  0.00  0.00     0.189 HD
ATOM     15  HN  UNK N   1      43.481  23.951   3.855  1.00  0.00     0.188 HD
ENDBRANCH   1   7
BRANCH   3  16
HETATM   16  C   UNK N   1      41.328  22.639   1.888  0.00  0.00     0.144 C 
HETATM   17  O   UNK N   1      40.311  22.084   2.278  0.00  0.00    -0.650 OA
BRANCH  16  18
HETATM   18  O   UNK N   1      41.415  23.977   1.993  0.00  0.00    -0.776 OA
HETATM   19  H   UNK N   1      41.574  24.520   1.246  0.00  0.00     0.167 HD
ENDBRANCH  16  18
ENDBRANCH   3  16
TORSDOF 3
ENDMDL
MODEL 8
REMARK VINA RESULT:      -5.5      3.139      3.847
REMARK  3 active torsions:
REMARK  status: ('A' for Active; 'I' for Inactive)
REMARK    1  A    between atoms: C_1  and  C_11 
REMARK    2  A    between atoms: C_3  and  C_7 
REMARK    3  A    between atoms: C_7  and  O_8 
ROOT
HETATM    1  C   UNK N   1      33.247  15.463   8.027  0.00  0.00     0.069 C 
HETATM    2  C   UNK N   1      31.848  17.540   7.873  0.00  0.00     0.001 C 
HETATM    3  C   UNK N   1      34.500  16.300   8.424  0.00  0.00     0.095 C 
HETATM    4  C   UNK N   1      34.361  17.682   7.753  0.00  0.00     0.016 C 
HETATM    5  C   UNK N   1      33.074  18.394   8.185  0.00  0.00     0.001 C 
HETATM    6  C   UNK N   1      31.972  16.158   8.514  0.00  0.00     0.013 C 
ENDROOT
BRANCH   1   7
HETATM    7  C   UNK N   1      33.236  14.012   8.435  0.00  0.00     0.103 A 
HETATM    8  N   UNK N   1      34.202  13.141   8.072  0.00  0.00    -0.320 N 
HETATM    9  C   UNK N   1      33.828  12.007   8.688  0.00  0.00     0.192 A 
HETATM   10  H   UNK N   1      34.986  13.298   7.500  0.00  0.00     0.169 HD
HETATM   11  S   UNK N   1      34.568  10.783   8.628  0.00  0.00    -0.039 SA
HETATM   12  N   UNK N   1      32.696  12.165   9.393  0.00  0.00    -0.275 N 
HETATM   13  N   UNK N   1      32.326  13.425   9.240  0.00  0.00    -0.286 N 
HETATM   14  H   UNK N   1      32.232  11.477   9.922  0.00  0.00     0.189 HD
ATOM     15  HN  UNK N   1      31.507  13.871   9.653  1.00  0.00     0.188 HD
ENDBRANCH   1   7
BRANCH   3  16
HETATM   16  C   UNK N   1      34.750  16.451   9.923  0.00  0.00     0.144 C 
HETATM   17  O   UNK N   1      35.552  17.272  10.342  0.00  0.00    -0.650 OA
BRANCH  16  18
HETATM   18  O   UNK N   1      34.140  15.636  10.803  0.00  0.00    -0.776 OA
HETATM   19  H   UNK N   1      34.551  15.384  11.606  0.00  0.00     0.167 HD
ENDBRANCH  16  18
ENDBRANCH   3  16
TORSDOF 3
ENDMDL
MODEL 9
REMARK VINA RESULT:      -5.4      3.119      5.142
REMARK  3 active torsions:
REMARK  status: ('A' for Active; 'I' for Inactive)
REMARK    1  A    between atoms: C_1  and  C_11 
REMARK    2  A    between atoms: C_3  and  C_7 
REMARK    3  A    between atoms: C_7  and  O_8 
ROOT
HETATM    1  C   UNK N   1      33.795  14.872   9.722  0.00  0.00     0.069 C 
HETATM    2  C   UNK N   1      35.329  12.914   9.396  0.00  0.00     0.001 C 
HETATM    3  C   UNK N   1      34.602  15.334  10.973  0.00  0.00     0.095 C 
HETATM    4  C   UNK N   1      35.193  14.071  11.630  0.00  0.00     0.016 C 
HETATM    5  C   UNK N   1      36.093  13.297  10.661  0.00  0.00     0.001 C 
HETATM    6  C   UNK N   1      34.719  14.150   8.736  0.00  0.00     0.013 C 
ENDROOT
BRANCH   1   7
HETATM    7  C   UNK N   1      32.987  15.921   9.002  0.00  0.00     0.103 A 
HETATM    8  N   UNK N   1      31.716  16.227   9.340  0.00  0.00    -0.320 N 
HETATM    9  C   UNK N   1      31.415  17.228   8.496  0.00  0.00     0.192 A 
HETATM   10  H   UNK N   1      31.151  15.819  10.034  0.00  0.00     0.169 HD
HETATM   11  S   UNK N   1      30.161  17.918   8.489  0.00  0.00    -0.039 SA
HETATM   12  N   UNK N   1      32.440  17.527   7.682  0.00  0.00    -0.275 N 
HETATM   13  N   UNK N   1      33.430  16.711   8.002  0.00  0.00    -0.286 N 
HETATM   14  H   UNK N   1      32.452  18.219   6.982  0.00  0.00     0.189 HD
ATOM     15  HN  UNK N   1      34.355  16.684   7.575  1.00  0.00     0.188 HD
ENDBRANCH   1   7
BRANCH   3  16
HETATM   16  C   UNK N   1      35.694  16.370  10.714  0.00  0.00     0.144 C 
HETATM   17  O   UNK N   1      35.417  17.463  10.243  0.00  0.00    -0.650 OA
BRANCH  16  18
HETATM   18  O   UNK N   1      36.986  16.071  10.938  0.00  0.00    -0.776 OA
HETATM   19  H   UNK N   1      37.592  15.951  10.234  0.00  0.00     0.167 HD
ENDBRANCH  16  18
ENDBRANCH   3  16
TORSDOF 3
ENDMDL
