REMARK  3 active torsions:
REMARK  status: ('A' for Active; 'I' for Inactive)
REMARK    1  A    between atoms: C_1  and  C_11 
REMARK    2  A    between atoms: C_3  and  C_7 
REMARK    3  A    between atoms: C_7  and  O_8 
ROOT
HETATM    1  C   UNK N   1       0.144  -0.331   0.234  0.00  0.00     0.069 C 
HETATM    2  C   UNK N   1       0.758  -2.552  -0.758  0.00  0.00     0.001 C 
HETATM    3  C   UNK N   1       1.628  -0.063   0.628  0.00  0.00     0.095 C 
HETATM    4  C   UNK N   1       2.284  -1.431   0.904  0.00  0.00     0.016 C 
HETATM    5  C   UNK N   1       2.206  -2.353  -0.318  0.00  0.00     0.001 C 
HETATM    6  C   UNK N   1       0.081  -1.207  -1.021  0.00  0.00     0.013 C 
ENDROOT
BRANCH   1   7
HETATM    7  C   UNK N   1      -0.750   0.872   0.073  0.00  0.00     0.103 A 
HETATM    8  N   UNK N   1      -2.078   0.774  -0.150  0.00  0.00    -0.320 N 
HETATM    9  C   UNK N   1      -2.473   2.058  -0.169  0.00  0.00     0.192 A 
HETATM   10  H   UNK N   1      -2.622  -0.037  -0.268  0.00  0.00     0.169 HD
HETATM   11  S   UNK N   1      -3.831   2.474  -0.348  0.00  0.00    -0.039 SA
HETATM   12  N   UNK N   1      -1.450   2.904   0.032  0.00  0.00    -0.275 N 
HETATM   13  N   UNK N   1      -0.368   2.160   0.190  0.00  0.00    -0.286 N 
HETATM   14  H   UNK N   1      -1.496   3.887   0.057  0.00  0.00     0.189 HD
ATOM     15  HN  UNK N   1       0.578   2.497   0.368  1.00  0.00     0.188 HD
ENDBRANCH   1   7
BRANCH   3  16
HETATM   16  C   UNK N   1       2.449   0.736  -0.382  0.00  0.00     0.144 C 
HETATM   17  O   UNK N   1       3.454   0.257  -0.886  0.00  0.00    -0.650 OA
BRANCH  16  18
HETATM   18  O   UNK N   1       2.116   2.004  -0.683  0.00  0.00    -0.776 OA
HETATM   19  H   UNK N   1       2.765   2.646  -0.893  0.00  0.00     0.167 HD
ENDBRANCH  16  18
ENDBRANCH   3  16
TORSDOF 3
