MODEL 1
REMARK VINA RESULT:      -6.8      0.000      0.000
REMARK  5 active torsions:
REMARK  status: ('A' for Active; 'I' for Inactive)
REMARK    1  A    between atoms: O_2  and  C_3 
REMARK    2  A    between atoms: C_6  and  O_7 
REMARK    3  A    between atoms: C_10  and  N_11 
REMARK    4  A    between atoms: C_15  and  N_16 
REMARK    5  A    between atoms: C_17  and  C_18 
ROOT
HETATM    1  N   UNK N   1      34.882  11.417  13.332  0.00  0.00    -0.380 N 
HETATM    2  C   UNK N   1      34.296  11.584  14.633  0.00  0.00     0.134 C 
HETATM    3  C   UNK N   1      35.122  10.084  12.844  0.00  0.00     0.125 C 
HETATM    4  C   UNK N   1      36.125   9.382  13.751  0.00  0.00     0.045 C 
HETATM    5  C   UNK N   1      35.946   9.637  15.259  0.00  0.00     0.085 C 
HETATM    6  C   UNK N   1      34.740  10.549  15.676  0.00  0.00     0.059 C 
ENDROOT
BRANCH   1   7
HETATM    7  C   UNK N   1      35.179  12.576  12.558  0.00  0.00     0.033 A 
HETATM    8  C   UNK N   1      35.637  13.740  13.192  0.00  0.00     0.032 A 
HETATM    9  C   UNK N   1      35.936  14.882  12.460  0.00  0.00     0.042 A 
HETATM   10  C   UNK N   1      35.789  14.901  11.071  0.00  0.00     0.101 A 
HETATM   11  C   UNK N   1      35.326  13.729  10.409  0.00  0.00     0.103 A 
HETATM   12  C   UNK N   1      35.027  12.580  11.166  0.00  0.00     0.069 A 
BRANCH  10  13
HETATM   13  O   UNK N   1      36.102  16.056  10.431  0.00  0.00    -0.353 OA
HETATM   14  C   UNK N   1      35.210  17.039  10.070  0.00  0.00     0.210 C 
ENDBRANCH  10  13
BRANCH  11  15
HETATM   15  O   UNK N   1      35.177  13.718   9.060  0.00  0.00    -0.353 OA
HETATM   16  C   UNK N   1      33.963  13.876   8.430  0.00  0.00     0.210 C 
ENDBRANCH  11  15
ENDBRANCH   1   7
BRANCH   6  17
HETATM   17  C   UNK N   1      34.964  11.265  17.005  0.00  0.00    -0.050 A 
HETATM   18  C   UNK N   1      35.072  10.527  18.204  0.00  0.00     0.007 A 
HETATM   19  C   UNK N   1      35.261  11.166  19.428  0.00  0.00     0.001 A 
HETATM   20  C   UNK N   1      35.353  12.556  19.473  0.00  0.00     0.007 A 
HETATM   21  C   UNK N   1      35.248  13.303  18.296  0.00  0.00    -0.061 A 
HETATM   22  C   UNK N   1      35.047  12.663  17.065  0.00  0.00     0.014 A 
HETATM   23  C   UNK N   1      35.360  14.782  18.357  0.00  0.00     0.048 C 
ENDBRANCH   6  17
BRANCH   5  24
HETATM   24  N   UNK N   1      37.208  10.150  15.772  0.00  0.00    -0.425 N 
HETATM   25  H   UNK N   1      38.023  10.408  16.329  0.00  0.00     0.150 HD
HETATM   26  H   UNK N   1      37.514  10.595  14.906  0.00  0.00     0.150 HD
ENDBRANCH   5  24
TORSDOF 5
ENDMDL
MODEL 2
REMARK VINA RESULT:      -6.7      7.711     12.664
REMARK  5 active torsions:
REMARK  status: ('A' for Active; 'I' for Inactive)
REMARK    1  A    between atoms: O_2  and  C_3 
REMARK    2  A    between atoms: C_6  and  O_7 
REMARK    3  A    between atoms: C_10  and  N_11 
REMARK    4  A    between atoms: C_15  and  N_16 
REMARK    5  A    between atoms: C_17  and  C_18 
ROOT
HETATM    1  N   UNK N   1      30.207  16.361   5.323  0.00  0.00    -0.380 N 
HETATM    2  C   UNK N   1      29.615  17.409   4.537  0.00  0.00     0.134 C 
HETATM    3  C   UNK N   1      29.732  15.013   5.154  0.00  0.00     0.125 C 
HETATM    4  C   UNK N   1      28.263  14.937   5.551  0.00  0.00     0.045 C 
HETATM    5  C   UNK N   1      27.393  16.129   5.108  0.00  0.00     0.085 C 
HETATM    6  C   UNK N   1      28.112  17.247   4.277  0.00  0.00     0.059 C 
ENDROOT
BRANCH   1   7
HETATM    7  C   UNK N   1      31.262  16.689   6.223  0.00  0.00     0.033 A 
HETATM    8  C   UNK N   1      30.967  17.285   7.458  0.00  0.00     0.032 A 
HETATM    9  C   UNK N   1      31.977  17.612   8.353  0.00  0.00     0.042 A 
HETATM   10  C   UNK N   1      33.315  17.355   8.048  0.00  0.00     0.101 A 
HETATM   11  C   UNK N   1      33.636  16.751   6.799  0.00  0.00     0.103 A 
HETATM   12  C   UNK N   1      32.600  16.426   5.903  0.00  0.00     0.069 A 
BRANCH  10  13
HETATM   13  O   UNK N   1      34.241  17.706   8.977  0.00  0.00    -0.353 OA
HETATM   14  C   UNK N   1      34.865  16.846   9.850  0.00  0.00     0.210 C 
ENDBRANCH  10  13
BRANCH  11  15
HETATM   15  O   UNK N   1      34.928  16.487   6.477  0.00  0.00    -0.353 OA
HETATM   16  C   UNK N   1      35.370  15.249   6.070  0.00  0.00     0.210 C 
ENDBRANCH  11  15
ENDBRANCH   1   7
BRANCH   6  17
HETATM   17  C   UNK N   1      27.446  18.614   4.414  0.00  0.00    -0.050 A 
HETATM   18  C   UNK N   1      27.979  19.583   5.293  0.00  0.00     0.007 A 
HETATM   19  C   UNK N   1      27.373  20.829   5.441  0.00  0.00     0.001 A 
HETATM   20  C   UNK N   1      26.229  21.132   4.707  0.00  0.00     0.007 A 
HETATM   21  C   UNK N   1      25.687  20.185   3.833  0.00  0.00    -0.061 A 
HETATM   22  C   UNK N   1      26.288  18.926   3.690  0.00  0.00     0.014 A 
HETATM   23  C   UNK N   1      24.474  20.524   3.047  0.00  0.00     0.048 C 
ENDBRANCH   6  17
BRANCH   5  24
HETATM   24  N   UNK N   1      26.753  16.672   6.297  0.00  0.00    -0.425 N 
HETATM   25  H   UNK N   1      26.201  17.194   6.978  0.00  0.00     0.150 HD
HETATM   26  H   UNK N   1      27.211  16.055   6.969  0.00  0.00     0.150 HD
ENDBRANCH   5  24
TORSDOF 5
ENDMDL
MODEL 3
REMARK VINA RESULT:      -6.7     22.444     25.481
REMARK  5 active torsions:
REMARK  status: ('A' for Active; 'I' for Inactive)
REMARK    1  A    between atoms: O_2  and  C_3 
REMARK    2  A    between atoms: C_6  and  O_7 
REMARK    3  A    between atoms: C_10  and  N_11 
REMARK    4  A    between atoms: C_15  and  N_16 
REMARK    5  A    between atoms: C_17  and  C_18 
ROOT
HETATM    1  N   UNK N   1      25.872  24.194  -7.667  0.00  0.00    -0.380 N 
HETATM    2  C   UNK N   1      26.265  22.828  -7.453  0.00  0.00     0.134 C 
HETATM    3  C   UNK N   1      25.493  24.609  -8.992  0.00  0.00     0.125 C 
HETATM    4  C   UNK N   1      26.681  24.455  -9.934  0.00  0.00     0.045 C 
HETATM    5  C   UNK N   1      27.529  23.186  -9.729  0.00  0.00     0.085 C 
HETATM    6  C   UNK N   1      27.048  22.196  -8.612  0.00  0.00     0.059 C 
ENDROOT
BRANCH   1   7
HETATM    7  C   UNK N   1      25.844  25.084  -6.554  0.00  0.00     0.033 A 
HETATM    8  C   UNK N   1      25.406  26.405  -6.726  0.00  0.00     0.032 A 
HETATM    9  C   UNK N   1      25.369  27.290  -5.657  0.00  0.00     0.042 A 
HETATM   10  C   UNK N   1      25.765  26.887  -4.379  0.00  0.00     0.101 A 
HETATM   11  C   UNK N   1      26.213  25.550  -4.184  0.00  0.00     0.103 A 
HETATM   12  C   UNK N   1      26.246  24.666  -5.279  0.00  0.00     0.069 A 
BRANCH  10  13
HETATM   13  O   UNK N   1      25.699  27.814  -3.389  0.00  0.00    -0.353 OA
HETATM   14  C   UNK N   1      26.291  29.056  -3.413  0.00  0.00     0.210 C 
ENDBRANCH  10  13
BRANCH  11  15
HETATM   15  O   UNK N   1      26.603  25.131  -2.953  0.00  0.00    -0.353 OA
HETATM   16  C   UNK N   1      27.440  24.058  -2.747  0.00  0.00     0.210 C 
ENDBRANCH  11  15
ENDBRANCH   1   7
BRANCH   6  17
HETATM   17  C   UNK N   1      28.181  21.355  -8.030  0.00  0.00    -0.050 A 
HETATM   18  C   UNK N   1      28.628  20.197  -8.703  0.00  0.00     0.007 A 
HETATM   19  C   UNK N   1      29.651  19.410  -8.177  0.00  0.00     0.001 A 
HETATM   20  C   UNK N   1      30.251  19.771  -6.973  0.00  0.00     0.007 A 
HETATM   21  C   UNK N   1      29.820  20.915  -6.292  0.00  0.00    -0.061 A 
HETATM   22  C   UNK N   1      28.783  21.702  -6.813  0.00  0.00     0.014 A 
HETATM   23  C   UNK N   1      30.474  21.296  -5.016  0.00  0.00     0.048 C 
ENDBRANCH   6  17
BRANCH   5  24
HETATM   24  N   UNK N   1      28.906  23.606  -9.516  0.00  0.00    -0.425 N 
HETATM   25  H   UNK N   1      29.771  24.091  -9.278  0.00  0.00     0.150 HD
HETATM   26  H   UNK N   1      29.345  22.771  -9.907  0.00  0.00     0.150 HD
ENDBRANCH   5  24
TORSDOF 5
ENDMDL
MODEL 4
REMARK VINA RESULT:      -6.5     10.118     13.900
REMARK  5 active torsions:
REMARK  status: ('A' for Active; 'I' for Inactive)
REMARK    1  A    between atoms: O_2  and  C_3 
REMARK    2  A    between atoms: C_6  and  O_7 
REMARK    3  A    between atoms: C_10  and  N_11 
REMARK    4  A    between atoms: C_15  and  N_16 
REMARK    5  A    between atoms: C_17  and  C_18 
ROOT
HETATM    1  N   UNK N   1      26.721  16.730   4.261  0.00  0.00    -0.380 N 
HETATM    2  C   UNK N   1      27.248  16.536   5.584  0.00  0.00     0.134 C 
HETATM    3  C   UNK N   1      27.294  15.988   3.169  0.00  0.00     0.125 C 
HETATM    4  C   UNK N   1      28.758  16.375   3.002  0.00  0.00     0.045 C 
HETATM    5  C   UNK N   1      29.547  16.565   4.312  0.00  0.00     0.085 C 
HETATM    6  C   UNK N   1      28.763  16.302   5.644  0.00  0.00     0.059 C 
ENDROOT
BRANCH   1   7
HETATM    7  C   UNK N   1      25.631  17.631   4.081  0.00  0.00     0.033 A 
HETATM    8  C   UNK N   1      25.836  18.852   3.423  0.00  0.00     0.032 A 
HETATM    9  C   UNK N   1      24.789  19.745   3.233  0.00  0.00     0.042 A 
HETATM   10  C   UNK N   1      23.503  19.450   3.692  0.00  0.00     0.101 A 
HETATM   11  C   UNK N   1      23.275  18.215   4.362  0.00  0.00     0.103 A 
HETATM   12  C   UNK N   1      24.347  17.321   4.547  0.00  0.00     0.069 A 
BRANCH  10  13
HETATM   13  O   UNK N   1      22.537  20.376   3.466  0.00  0.00    -0.353 OA
HETATM   14  C   UNK N   1      21.746  20.452   2.343  0.00  0.00     0.210 C 
ENDBRANCH  10  13
BRANCH  11  15
HETATM   15  O   UNK N   1      22.036  17.901   4.817  0.00  0.00    -0.353 OA
HETATM   16  C   UNK N   1      21.677  17.960   6.144  0.00  0.00     0.210 C 
ENDBRANCH  11  15
ENDBRANCH   1   7
BRANCH   6  17
HETATM   17  C   UNK N   1      29.327  17.077   6.832  0.00  0.00    -0.050 A 
HETATM   18  C   UNK N   1      28.490  17.917   7.599  0.00  0.00     0.007 A 
HETATM   19  C   UNK N   1      28.993  18.643   8.677  0.00  0.00     0.001 A 
HETATM   20  C   UNK N   1      30.341  18.537   9.012  0.00  0.00     0.007 A 
HETATM   21  C   UNK N   1      31.185  17.711   8.263  0.00  0.00    -0.061 A 
HETATM   22  C   UNK N   1      30.684  16.988   7.171  0.00  0.00     0.014 A 
HETATM   23  C   UNK N   1      32.617  17.598   8.637  0.00  0.00     0.048 C 
ENDBRANCH   6  17
BRANCH   5  24
HETATM   24  N   UNK N   1      30.127  17.900   4.286  0.00  0.00    -0.425 N 
HETATM   25  H   UNK N   1      30.464  18.832   4.047  0.00  0.00     0.150 HD
HETATM   26  H   UNK N   1      30.435  17.912   5.260  0.00  0.00     0.150 HD
ENDBRANCH   5  24
TORSDOF 5
ENDMDL
MODEL 5
REMARK VINA RESULT:      -6.5     13.902     18.436
REMARK  5 active torsions:
REMARK  status: ('A' for Active; 'I' for Inactive)
REMARK    1  A    between atoms: O_2  and  C_3 
REMARK    2  A    between atoms: C_6  and  O_7 
REMARK    3  A    between atoms: C_10  and  N_11 
REMARK    4  A    between atoms: C_15  and  N_16 
REMARK    5  A    between atoms: C_17  and  C_18 
ROOT
HETATM    1  N   UNK N   1      21.922  18.288   3.696  0.00  0.00    -0.380 N 
HETATM    2  C   UNK N   1      21.549  16.901   3.633  0.00  0.00     0.134 C 
HETATM    3  C   UNK N   1      20.885  19.284   3.758  0.00  0.00     0.125 C 
HETATM    4  C   UNK N   1      20.044  19.225   2.489  0.00  0.00     0.045 C 
HETATM    5  C   UNK N   1      19.732  17.810   1.966  0.00  0.00     0.085 C 
HETATM    6  C   UNK N   1      20.282  16.613   2.818  0.00  0.00     0.059 C 
ENDROOT
BRANCH   1   7
HETATM    7  C   UNK N   1      23.306  18.627   3.722  0.00  0.00     0.033 A 
HETATM    8  C   UNK N   1      23.713  19.928   3.395  0.00  0.00     0.032 A 
HETATM    9  C   UNK N   1      25.055  20.283   3.415  0.00  0.00     0.042 A 
HETATM   10  C   UNK N   1      26.037  19.353   3.763  0.00  0.00     0.101 A 
HETATM   11  C   UNK N   1      25.645  18.026   4.098  0.00  0.00     0.103 A 
HETATM   12  C   UNK N   1      24.280  17.682   4.072  0.00  0.00     0.069 A 
BRANCH  10  13
HETATM   13  O   UNK N   1      27.326  19.781   3.757  0.00  0.00    -0.353 OA
HETATM   14  C   UNK N   1      28.013  20.268   4.844  0.00  0.00     0.210 C 
ENDBRANCH  10  13
BRANCH  11  15
HETATM   15  O   UNK N   1      26.578  17.102   4.442  0.00  0.00    -0.353 OA
HETATM   16  C   UNK N   1      26.893  16.792   5.745  0.00  0.00     0.210 C 
ENDBRANCH  11  15
ENDBRANCH   1   7
BRANCH   6  17
HETATM   17  C   UNK N   1      20.512  15.349   1.994  0.00  0.00    -0.050 A 
HETATM   18  C   UNK N   1      19.429  14.502   1.669  0.00  0.00     0.007 A 
HETATM   19  C   UNK N   1      19.625  13.337   0.930  0.00  0.00     0.001 A 
HETATM   20  C   UNK N   1      20.906  13.001   0.497  0.00  0.00     0.007 A 
HETATM   21  C   UNK N   1      21.989  13.827   0.810  0.00  0.00    -0.061 A 
HETATM   22  C   UNK N   1      21.797  14.995   1.563  0.00  0.00     0.014 A 
HETATM   23  C   UNK N   1      23.347  13.465   0.333  0.00  0.00     0.048 C 
ENDBRANCH   6  17
BRANCH   5  24
HETATM   24  N   UNK N   1      20.190  17.740   0.586  0.00  0.00    -0.425 N 
HETATM   25  H   UNK N   1      20.712  17.762  -0.290  0.00  0.00     0.150 HD
HETATM   26  H   UNK N   1      19.305  17.426   0.186  0.00  0.00     0.150 HD
ENDBRANCH   5  24
TORSDOF 5
ENDMDL
MODEL 6
REMARK VINA RESULT:      -6.4      8.610     12.931
REMARK  5 active torsions:
REMARK  status: ('A' for Active; 'I' for Inactive)
REMARK    1  A    between atoms: O_2  and  C_3 
REMARK    2  A    between atoms: C_6  and  O_7 
REMARK    3  A    between atoms: C_10  and  N_11 
REMARK    4  A    between atoms: C_15  and  N_16 
REMARK    5  A    between atoms: C_17  and  C_18 
ROOT
HETATM    1  N   UNK N   1      29.235  15.836   5.313  0.00  0.00    -0.380 N 
HETATM    2  C   UNK N   1      28.728  16.880   4.465  0.00  0.00     0.134 C 
HETATM    3  C   UNK N   1      28.730  14.498   5.145  0.00  0.00     0.125 C 
HETATM    4  C   UNK N   1      27.238  14.474   5.448  0.00  0.00     0.045 C 
HETATM    5  C   UNK N   1      26.435  15.680   4.921  0.00  0.00     0.085 C 
HETATM    6  C   UNK N   1      27.240  16.755   4.112  0.00  0.00     0.059 C 
ENDROOT
BRANCH   1   7
HETATM    7  C   UNK N   1      30.239  16.156   6.272  0.00  0.00     0.033 A 
HETATM    8  C   UNK N   1      31.454  15.455   6.272  0.00  0.00     0.032 A 
HETATM    9  C   UNK N   1      32.449  15.750   7.195  0.00  0.00     0.042 A 
HETATM   10  C   UNK N   1      32.267  16.754   8.148  0.00  0.00     0.101 A 
HETATM   11  C   UNK N   1      31.040  17.478   8.164  0.00  0.00     0.103 A 
HETATM   12  C   UNK N   1      30.042  17.165   7.222  0.00  0.00     0.069 A 
BRANCH  10  13
HETATM   13  O   UNK N   1      33.288  16.979   9.014  0.00  0.00    -0.353 OA
HETATM   14  C   UNK N   1      34.574  17.320   8.665  0.00  0.00     0.210 C 
ENDBRANCH  10  13
BRANCH  11  15
HETATM   15  O   UNK N   1      30.837  18.460   9.078  0.00  0.00    -0.353 OA
HETATM   16  C   UNK N   1      29.640  18.655   9.729  0.00  0.00     0.210 C 
ENDBRANCH  11  15
ENDBRANCH   1   7
BRANCH   6  17
HETATM   17  C   UNK N   1      26.609  18.143   4.172  0.00  0.00    -0.050 A 
HETATM   18  C   UNK N   1      25.498  18.458   3.359  0.00  0.00     0.007 A 
HETATM   19  C   UNK N   1      24.920  19.726   3.391  0.00  0.00     0.001 A 
HETATM   20  C   UNK N   1      25.438  20.700   4.242  0.00  0.00     0.007 A 
HETATM   21  C   UNK N   1      26.538  20.406   5.053  0.00  0.00    -0.061 A 
HETATM   22  C   UNK N   1      27.129  19.134   5.015  0.00  0.00     0.014 A 
HETATM   23  C   UNK N   1      27.074  21.448   5.965  0.00  0.00     0.048 C 
ENDBRANCH   6  17
BRANCH   5  24
HETATM   24  N   UNK N   1      25.737  16.272   6.053  0.00  0.00    -0.425 N 
HETATM   25  H   UNK N   1      25.114  16.498   6.828  0.00  0.00     0.150 HD
HETATM   26  H   UNK N   1      26.326  17.102   6.131  0.00  0.00     0.150 HD
ENDBRANCH   5  24
TORSDOF 5
ENDMDL
MODEL 7
REMARK VINA RESULT:      -6.4      4.381      9.181
REMARK  5 active torsions:
REMARK  status: ('A' for Active; 'I' for Inactive)
REMARK    1  A    between atoms: O_2  and  C_3 
REMARK    2  A    between atoms: C_6  and  O_7 
REMARK    3  A    between atoms: C_10  and  N_11 
REMARK    4  A    between atoms: C_15  and  N_16 
REMARK    5  A    between atoms: C_17  and  C_18 
ROOT
HETATM    1  N   UNK N   1      34.745  15.681   7.622  0.00  0.00    -0.380 N 
HETATM    2  C   UNK N   1      33.839  16.763   7.345  0.00  0.00     0.134 C 
HETATM    3  C   UNK N   1      35.188  14.851   6.533  0.00  0.00     0.125 C 
HETATM    4  C   UNK N   1      33.992  14.132   5.920  0.00  0.00     0.045 C 
HETATM    5  C   UNK N   1      32.711  14.977   5.782  0.00  0.00     0.085 C 
HETATM    6  C   UNK N   1      32.805  16.471   6.250  0.00  0.00     0.059 C 
ENDROOT
BRANCH   1   7
HETATM    7  C   UNK N   1      35.195  15.486   8.960  0.00  0.00     0.033 A 
HETATM    8  C   UNK N   1      34.647  16.252   9.999  0.00  0.00     0.032 A 
HETATM    9  C   UNK N   1      35.067  16.079  11.311  0.00  0.00     0.042 A 
HETATM   10  C   UNK N   1      36.046  15.135  11.632  0.00  0.00     0.101 A 
HETATM   11  C   UNK N   1      36.614  14.348  10.591  0.00  0.00     0.103 A 
HETATM   12  C   UNK N   1      36.178  14.537   9.265  0.00  0.00     0.069 A 
BRANCH  10  13
HETATM   13  O   UNK N   1      36.400  15.029  12.938  0.00  0.00    -0.353 OA
HETATM   14  C   UNK N   1      35.993  14.038  13.801  0.00  0.00     0.210 C 
ENDBRANCH  10  13
BRANCH  11  15
HETATM   15  O   UNK N   1      37.565  13.422  10.873  0.00  0.00    -0.353 OA
HETATM   16  C   UNK N   1      38.711  13.259  10.128  0.00  0.00     0.210 C 
ENDBRANCH  11  15
ENDBRANCH   1   7
BRANCH   6  17
HETATM   17  C   UNK N   1      31.460  17.045   6.687  0.00  0.00    -0.050 A 
HETATM   18  C   UNK N   1      30.401  17.166   5.761  0.00  0.00     0.007 A 
HETATM   19  C   UNK N   1      29.172  17.703   6.141  0.00  0.00     0.001 A 
HETATM   20  C   UNK N   1      28.978  18.122   7.455  0.00  0.00     0.007 A 
HETATM   21  C   UNK N   1      30.016  18.011   8.385  0.00  0.00    -0.061 A 
HETATM   22  C   UNK N   1      31.257  17.481   8.003  0.00  0.00     0.014 A 
HETATM   23  C   UNK N   1      29.794  18.450   9.785  0.00  0.00     0.048 C 
ENDBRANCH   6  17
BRANCH   5  24
HETATM   24  N   UNK N   1      31.641  14.267   6.467  0.00  0.00    -0.425 N 
HETATM   25  H   UNK N   1      30.757  13.936   6.853  0.00  0.00     0.150 HD
HETATM   26  H   UNK N   1      32.227  13.539   6.877  0.00  0.00     0.150 HD
ENDBRANCH   5  24
TORSDOF 5
ENDMDL
MODEL 8
REMARK VINA RESULT:      -6.3      3.217      8.030
REMARK  5 active torsions:
REMARK  status: ('A' for Active; 'I' for Inactive)
REMARK    1  A    between atoms: O_2  and  C_3 
REMARK    2  A    between atoms: C_6  and  O_7 
REMARK    3  A    between atoms: C_10  and  N_11 
REMARK    4  A    between atoms: C_15  and  N_16 
REMARK    5  A    between atoms: C_17  and  C_18 
ROOT
HETATM    1  N   UNK N   1      35.621  12.852  10.318  0.00  0.00    -0.380 N 
HETATM    2  C   UNK N   1      35.817  13.857   9.309  0.00  0.00     0.134 C 
HETATM    3  C   UNK N   1      35.079  11.576   9.931  0.00  0.00     0.125 C 
HETATM    4  C   UNK N   1      33.673  11.766   9.375  0.00  0.00     0.045 C 
HETATM    5  C   UNK N   1      33.479  12.999   8.472  0.00  0.00     0.085 C 
HETATM    6  C   UNK N   1      34.750  13.879   8.207  0.00  0.00     0.059 C 
ENDROOT
BRANCH   1   7
HETATM    7  C   UNK N   1      35.995  13.145  11.662  0.00  0.00     0.033 A 
HETATM    8  C   UNK N   1      35.863  14.451  12.154  0.00  0.00     0.032 A 
HETATM    9  C   UNK N   1      36.218  14.761  13.461  0.00  0.00     0.042 A 
HETATM   10  C   UNK N   1      36.717  13.779  14.320  0.00  0.00     0.101 A 
HETATM   11  C   UNK N   1      36.858  12.446  13.838  0.00  0.00     0.103 A 
HETATM   12  C   UNK N   1      36.494  12.150  12.511  0.00  0.00     0.069 A 
BRANCH  10  13
HETATM   13  O   UNK N   1      37.041  14.165  15.580  0.00  0.00    -0.353 OA
HETATM   14  C   UNK N   1      37.379  15.441  15.966  0.00  0.00     0.210 C 
ENDBRANCH  10  13
BRANCH  11  15
HETATM   15  O   UNK N   1      37.338  11.471  14.651  0.00  0.00    -0.353 OA
HETATM   16  C   UNK N   1      36.534  10.558  15.295  0.00  0.00     0.210 C 
ENDBRANCH  11  15
ENDBRANCH   1   7
BRANCH   6  17
HETATM   17  C   UNK N   1      34.414  15.333   7.886  0.00  0.00    -0.050 A 
HETATM   18  C   UNK N   1      34.570  16.335   8.869  0.00  0.00     0.007 A 
HETATM   19  C   UNK N   1      34.253  17.665   8.597  0.00  0.00     0.001 A 
HETATM   20  C   UNK N   1      33.779  18.017   7.335  0.00  0.00     0.007 A 
HETATM   21  C   UNK N   1      33.617  17.037   6.350  0.00  0.00    -0.061 A 
HETATM   22  C   UNK N   1      33.926  15.697   6.624  0.00  0.00     0.014 A 
HETATM   23  C   UNK N   1      33.124  17.427   5.005  0.00  0.00     0.048 C 
ENDBRANCH   6  17
BRANCH   5  24
HETATM   24  N   UNK N   1      32.389  13.787   9.031  0.00  0.00    -0.425 N 
HETATM   25  H   UNK N   1      31.788  14.407   9.574  0.00  0.00     0.150 HD
HETATM   26  H   UNK N   1      31.675  13.485   8.367  0.00  0.00     0.150 HD
ENDBRANCH   5  24
TORSDOF 5
ENDMDL
MODEL 9
REMARK VINA RESULT:      -6.2     21.658     24.818
REMARK  5 active torsions:
REMARK  status: ('A' for Active; 'I' for Inactive)
REMARK    1  A    between atoms: O_2  and  C_3 
REMARK    2  A    between atoms: C_6  and  O_7 
REMARK    3  A    between atoms: C_10  and  N_11 
REMARK    4  A    between atoms: C_15  and  N_16 
REMARK    5  A    between atoms: C_17  and  C_18 
ROOT
HETATM    1  N   UNK N   1      26.444  24.719  -6.555  0.00  0.00    -0.380 N 
HETATM    2  C   UNK N   1      26.945  23.477  -6.036  0.00  0.00     0.134 C 
HETATM    3  C   UNK N   1      25.965  24.763  -7.912  0.00  0.00     0.125 C 
HETATM    4  C   UNK N   1      27.107  24.442  -8.867  0.00  0.00     0.045 C 
HETATM    5  C   UNK N   1      28.055  23.315  -8.412  0.00  0.00     0.085 C 
HETATM    6  C   UNK N   1      27.707  22.616  -7.052  0.00  0.00     0.059 C 
ENDROOT
BRANCH   1   7
HETATM    7  C   UNK N   1      26.413  25.859  -5.700  0.00  0.00     0.033 A 
HETATM    8  C   UNK N   1      25.230  26.599  -5.565  0.00  0.00     0.032 A 
HETATM    9  C   UNK N   1      25.175  27.713  -4.736  0.00  0.00     0.042 A 
HETATM   10  C   UNK N   1      26.297  28.124  -4.014  0.00  0.00     0.101 A 
HETATM   11  C   UNK N   1      27.508  27.386  -4.138  0.00  0.00     0.103 A 
HETATM   12  C   UNK N   1      27.547  26.260  -4.983  0.00  0.00     0.069 A 
BRANCH  10  13
HETATM   13  O   UNK N   1      26.159  29.223  -3.228  0.00  0.00    -0.353 OA
HETATM   14  C   UNK N   1      26.442  30.516  -3.601  0.00  0.00     0.210 C 
ENDBRANCH  10  13
BRANCH  11  15
HETATM   15  O   UNK N   1      28.613  27.762  -3.446  0.00  0.00    -0.353 OA
HETATM   16  C   UNK N   1      29.897  27.484  -3.858  0.00  0.00     0.210 C 
ENDBRANCH  11  15
ENDBRANCH   1   7
BRANCH   6  17
HETATM   17  C   UNK N   1      28.928  22.015  -6.361  0.00  0.00    -0.050 A 
HETATM   18  C   UNK N   1      29.550  20.861  -6.888  0.00  0.00     0.007 A 
HETATM   19  C   UNK N   1      30.656  20.291  -6.260  0.00  0.00     0.001 A 
HETATM   20  C   UNK N   1      31.164  20.868  -5.098  0.00  0.00     0.007 A 
HETATM   21  C   UNK N   1      30.560  22.009  -4.561  0.00  0.00    -0.061 A 
HETATM   22  C   UNK N   1      29.440  22.579  -5.185  0.00  0.00     0.014 A 
HETATM   23  C   UNK N   1      31.117  22.622  -3.330  0.00  0.00     0.048 C 
ENDBRANCH   6  17
BRANCH   5  24
HETATM   24  N   UNK N   1      29.408  23.852  -8.409  0.00  0.00    -0.425 N 
HETATM   25  H   UNK N   1      30.416  24.004  -8.415  0.00  0.00     0.150 HD
HETATM   26  H   UNK N   1      29.142  24.836  -8.368  0.00  0.00     0.150 HD
ENDBRANCH   5  24
TORSDOF 5
ENDMDL
