REMARK  5 active torsions:
REMARK  status: ('A' for Active; 'I' for Inactive)
REMARK    1  A    between atoms: O_2  and  C_3 
REMARK    2  A    between atoms: C_6  and  O_7 
REMARK    3  A    between atoms: C_10  and  N_11 
REMARK    4  A    between atoms: C_15  and  N_16 
REMARK    5  A    between atoms: C_17  and  C_18 
ROOT
HETATM    1  N   UNK N   1       1.187  -1.037   0.911  0.00  0.00    -0.380 N 
HETATM    2  C   UNK N   1       2.366  -1.814   1.179  0.00  0.00     0.134 C 
HETATM    3  C   UNK N   1      -0.103  -1.660   1.053  0.00  0.00     0.125 C 
HETATM    4  C   UNK N   1      -0.228  -2.806   0.057  0.00  0.00     0.045 C 
HETATM    5  C   UNK N   1       1.036  -3.668  -0.124  0.00  0.00     0.085 C 
HETATM    6  C   UNK N   1       2.274  -3.287   0.760  0.00  0.00     0.059 C 
ENDROOT
BRANCH   1   7
HETATM    7  C   UNK N   1       1.335   0.331   0.540  0.00  0.00     0.033 A 
HETATM    8  C   UNK N   1       2.616   0.892   0.437  0.00  0.00     0.032 A 
HETATM    9  C   UNK N   1       2.786   2.222   0.075  0.00  0.00     0.042 A 
HETATM   10  C   UNK N   1       1.685   3.037  -0.197  0.00  0.00     0.101 A 
HETATM   11  C   UNK N   1       0.376   2.486  -0.098  0.00  0.00     0.103 A 
HETATM   12  C   UNK N   1       0.221   1.136   0.271  0.00  0.00     0.069 A 
BRANCH  10  13
HETATM   13  O   UNK N   1       1.938   4.325  -0.543  0.00  0.00    -0.353 OA
HETATM   14  C   UNK N   1       0.989   5.281  -0.823  0.00  0.00     0.210 C 
ENDBRANCH  10  13
BRANCH  11  15
HETATM   15  O   UNK N   1      -0.712   3.254  -0.359  0.00  0.00    -0.353 OA
HETATM   16  C   UNK N   1      -2.005   2.788  -0.283  0.00  0.00     0.210 C 
ENDBRANCH  11  15
ENDBRANCH   1   7
BRANCH   6  17
HETATM   17  C   UNK N   1       3.604  -3.697   0.133  0.00  0.00    -0.050 A 
HETATM   18  C   UNK N   1       4.546  -2.716  -0.248  0.00  0.00     0.007 A 
HETATM   19  C   UNK N   1       5.758  -3.073  -0.836  0.00  0.00     0.001 A 
HETATM   20  C   UNK N   1       6.053  -4.418  -1.047  0.00  0.00     0.007 A 
HETATM   21  C   UNK N   1       5.132  -5.403  -0.677  0.00  0.00    -0.061 A 
HETATM   22  C   UNK N   1       3.907  -5.046  -0.095  0.00  0.00     0.014 A 
HETATM   23  C   UNK N   1       5.463  -6.833  -0.896  0.00  0.00     0.048 C 
ENDBRANCH   6  17
BRANCH   5  24
HETATM   24  N   UNK N   1       1.369  -3.669  -1.541  0.00  0.00    -0.425 N 
HETATM   25  H   UNK N   1       1.486  -3.871  -2.534  0.00  0.00     0.150 HD
HETATM   26  H   UNK N   1       1.881  -2.786  -1.541  0.00  0.00     0.150 HD
ENDBRANCH   5  24
TORSDOF 5
