MODEL 1
REMARK VINA RESULT:      -6.2      0.000      0.000
REMARK  3 active torsions:
REMARK  status: ('A' for Active; 'I' for Inactive)
REMARK    1  A    between atoms: C_2  and  C_3 
REMARK    2  A    between atoms: C_2  and  O_19 
REMARK    3  A    between atoms: N_10  and  C_11 
ROOT
HETATM    1  C   UNK N   1      35.490  14.066  12.959  0.00  0.00     0.197 A 
HETATM    2  N   UNK N   1      35.246  13.080  13.836  0.00  0.00    -0.271 N 
ATOM      3  HN  UNK N   1      34.655  12.263  13.682  1.00  0.00     0.189 HD
HETATM    4  N   UNK N   1      36.317  15.001  13.477  0.00  0.00    -0.324 N 
ATOM      5  HN  UNK N   1      36.668  15.852  13.037  1.00  0.00     0.169 HD
HETATM    6  C   UNK N   1      36.569  14.534  14.721  0.00  0.00     0.101 A 
HETATM    7  C   UNK N   1      37.450  15.235  15.697  0.00  0.00     0.091 C 
HETATM    8  N   UNK N   1      35.916  13.368  14.933  0.00  0.00    -0.243 N 
ENDROOT
BRANCH   8   9
HETATM    9  C   UNK N   1      35.879  12.512  16.088  0.00  0.00     0.061 A 
HETATM   10  C   UNK N   1      35.377  13.031  17.289  0.00  0.00     0.055 A 
HETATM   11  C   UNK N   1      35.318  12.247  18.436  0.00  0.00     0.037 A 
HETATM   12  C   UNK N   1      35.764  10.925  18.398  0.00  0.00     0.048 A 
HETATM   13 Cl   UNK N   1      34.684  12.932  19.915  0.00  0.00    -0.084 Cl
HETATM   14  C   UNK N   1      36.268  10.392  17.207  0.00  0.00     0.037 A 
HETATM   15  C   UNK N   1      36.327  11.182  16.051  0.00  0.00     0.055 A 
HETATM   16 Cl   UNK N   1      36.826   8.734  17.166  0.00  0.00    -0.084 Cl
ENDBRANCH   8   9
BRANCH   1  17
HETATM   17  C   UNK N   1      34.911  14.093  11.613  0.00  0.00     0.213 C 
HETATM   18  O   UNK N   1      35.454  13.505  10.694  0.00  0.00    -0.644 OA
BRANCH  17  19
HETATM   19  O   UNK N   1      33.771  14.775  11.391  0.00  0.00    -0.771 OA
HETATM   20  H   UNK N   1      32.945  14.393  11.616  0.00  0.00     0.168 HD
ENDBRANCH  17  19
ENDBRANCH   1  17
TORSDOF 3
ENDMDL
MODEL 2
REMARK VINA RESULT:      -6.1      0.396      2.243
REMARK  3 active torsions:
REMARK  status: ('A' for Active; 'I' for Inactive)
REMARK    1  A    between atoms: C_2  and  C_3 
REMARK    2  A    between atoms: C_2  and  O_19 
REMARK    3  A    between atoms: N_10  and  C_11 
ROOT
HETATM    1  C   UNK N   1      35.783  14.195  13.170  0.00  0.00     0.197 A 
HETATM    2  N   UNK N   1      35.449  13.225  14.034  0.00  0.00    -0.271 N 
ATOM      3  HN  UNK N   1      34.853  12.419  13.842  1.00  0.00     0.189 HD
HETATM    4  N   UNK N   1      36.589  15.117  13.744  0.00  0.00    -0.324 N 
ATOM      5  HN  UNK N   1      36.993  15.955  13.325  1.00  0.00     0.169 HD
HETATM    6  C   UNK N   1      36.731  14.659  15.007  0.00  0.00     0.101 A 
HETATM    7  C   UNK N   1      37.547  15.350  16.044  0.00  0.00     0.091 C 
HETATM    8  N   UNK N   1      36.036  13.510  15.178  0.00  0.00    -0.243 N 
ENDROOT
BRANCH   8   9
HETATM    9  C   UNK N   1      35.888  12.668  16.334  0.00  0.00     0.061 A 
HETATM   10  C   UNK N   1      36.290  11.328  16.241  0.00  0.00     0.055 A 
HETATM   11  C   UNK N   1      36.169  10.469  17.329  0.00  0.00     0.037 A 
HETATM   12  C   UNK N   1      35.642  10.942  18.531  0.00  0.00     0.048 A 
HETATM   13 Cl   UNK N   1      36.681   8.804  17.172  0.00  0.00    -0.084 Cl
HETATM   14  C   UNK N   1      35.237  12.276  18.641  0.00  0.00     0.037 A 
HETATM   15  C   UNK N   1      35.359  13.141  17.544  0.00  0.00     0.055 A 
HETATM   16 Cl   UNK N   1      34.577  12.862  20.151  0.00  0.00    -0.084 Cl
ENDBRANCH   8   9
BRANCH   1  17
HETATM   17  C   UNK N   1      35.314  14.221  11.782  0.00  0.00     0.213 C 
HETATM   18  O   UNK N   1      36.110  14.198  10.859  0.00  0.00    -0.644 OA
BRANCH  17  19
HETATM   19  O   UNK N   1      33.992  14.270  11.526  0.00  0.00    -0.771 OA
HETATM   20  H   UNK N   1      33.602  15.068  11.227  0.00  0.00     0.168 HD
ENDBRANCH  17  19
ENDBRANCH   1  17
TORSDOF 3
ENDMDL
MODEL 3
REMARK VINA RESULT:      -6.1      6.957      9.562
REMARK  3 active torsions:
REMARK  status: ('A' for Active; 'I' for Inactive)
REMARK    1  A    between atoms: C_2  and  C_3 
REMARK    2  A    between atoms: C_2  and  O_19 
REMARK    3  A    between atoms: N_10  and  C_11 
ROOT
HETATM    1  C   UNK N   1      34.470  15.699  10.514  0.00  0.00     0.197 A 
HETATM    2  N   UNK N   1      33.254  15.531   9.972  0.00  0.00    -0.271 N 
ATOM      3  HN  UNK N   1      32.569  14.819  10.226  1.00  0.00     0.189 HD
HETATM    4  N   UNK N   1      35.127  16.737   9.951  0.00  0.00    -0.324 N 
ATOM      5  HN  UNK N   1      36.061  17.089  10.166  1.00  0.00     0.169 HD
HETATM    6  C   UNK N   1      34.248  17.198   9.033  0.00  0.00     0.101 A 
HETATM    7  C   UNK N   1      34.525  18.359   8.142  0.00  0.00     0.091 C 
HETATM    8  N   UNK N   1      33.113  16.462   9.051  0.00  0.00    -0.243 N 
ENDROOT
BRANCH   8   9
HETATM    9  C   UNK N   1      31.913  16.573   8.266  0.00  0.00     0.061 A 
HETATM   10  C   UNK N   1      30.912  17.455   8.696  0.00  0.00     0.055 A 
HETATM   11  C   UNK N   1      29.732  17.602   7.975  0.00  0.00     0.037 A 
HETATM   12  C   UNK N   1      29.534  16.863   6.808  0.00  0.00     0.048 A 
HETATM   13 Cl   UNK N   1      28.507  18.714   8.545  0.00  0.00    -0.084 Cl
HETATM   14  C   UNK N   1      30.523  15.977   6.365  0.00  0.00     0.037 A 
HETATM   15  C   UNK N   1      31.713  15.830   7.092  0.00  0.00     0.055 A 
HETATM   16 Cl   UNK N   1      30.269  15.054   4.901  0.00  0.00    -0.084 Cl
ENDBRANCH   8   9
BRANCH   1  17
HETATM   17  C   UNK N   1      34.988  14.843  11.584  0.00  0.00     0.213 C 
HETATM   18  O   UNK N   1      36.067  15.081  12.099  0.00  0.00    -0.644 OA
BRANCH  17  19
HETATM   19  O   UNK N   1      34.266  13.785  12.001  0.00  0.00    -0.771 OA
HETATM   20  H   UNK N   1      34.439  13.398  12.837  0.00  0.00     0.168 HD
ENDBRANCH  17  19
ENDBRANCH   1  17
TORSDOF 3
ENDMDL
MODEL 4
REMARK VINA RESULT:      -6.1      6.982      9.836
REMARK  3 active torsions:
REMARK  status: ('A' for Active; 'I' for Inactive)
REMARK    1  A    between atoms: C_2  and  C_3 
REMARK    2  A    between atoms: C_2  and  O_19 
REMARK    3  A    between atoms: N_10  and  C_11 
ROOT
HETATM    1  C   UNK N   1      34.467  15.688  10.466  0.00  0.00     0.197 A 
HETATM    2  N   UNK N   1      33.234  15.549   9.958  0.00  0.00    -0.271 N 
ATOM      3  HN  UNK N   1      32.533  14.864  10.243  1.00  0.00     0.189 HD
HETATM    4  N   UNK N   1      35.143  16.693   9.865  0.00  0.00    -0.324 N 
ATOM      5  HN  UNK N   1      36.092  17.019  10.050  1.00  0.00     0.169 HD
HETATM    6  C   UNK N   1      34.256  17.164   8.961  0.00  0.00     0.101 A 
HETATM    7  C   UNK N   1      34.546  18.297   8.039  0.00  0.00     0.091 C 
HETATM    8  N   UNK N   1      33.098  16.465   9.022  0.00  0.00    -0.243 N 
ENDROOT
BRANCH   8   9
HETATM    9  C   UNK N   1      31.883  16.599   8.266  0.00  0.00     0.061 A 
HETATM   10  C   UNK N   1      31.698  15.777   7.145  0.00  0.00     0.055 A 
HETATM   11  C   UNK N   1      30.542  15.865   6.377  0.00  0.00     0.037 A 
HETATM   12  C   UNK N   1      29.547  16.781   6.723  0.00  0.00     0.048 A 
HETATM   13 Cl   UNK N   1      30.350  14.822   4.986  0.00  0.00    -0.084 Cl
HETATM   14  C   UNK N   1      29.715  17.608   7.838  0.00  0.00     0.037 A 
HETATM   15  C   UNK N   1      30.881  17.520   8.611  0.00  0.00     0.055 A 
HETATM   16 Cl   UNK N   1      28.464  18.754   8.265  0.00  0.00    -0.084 Cl
ENDBRANCH   8   9
BRANCH   1  17
HETATM   17  C   UNK N   1      34.986  14.837  11.540  0.00  0.00     0.213 C 
HETATM   18  O   UNK N   1      36.070  15.071  12.046  0.00  0.00    -0.644 OA
BRANCH  17  19
HETATM   19  O   UNK N   1      34.258  13.788  11.970  0.00  0.00    -0.771 OA
HETATM   20  H   UNK N   1      33.351  13.901  12.178  0.00  0.00     0.168 HD
ENDBRANCH  17  19
ENDBRANCH   1  17
TORSDOF 3
ENDMDL
MODEL 5
REMARK VINA RESULT:      -6.0     16.435     18.129
REMARK  3 active torsions:
REMARK  status: ('A' for Active; 'I' for Inactive)
REMARK    1  A    between atoms: C_2  and  C_3 
REMARK    2  A    between atoms: C_2  and  O_19 
REMARK    3  A    between atoms: N_10  and  C_11 
ROOT
HETATM    1  C   UNK N   1      21.906  19.914   2.522  0.00  0.00     0.197 A 
HETATM    2  N   UNK N   1      23.226  20.131   2.622  0.00  0.00    -0.271 N 
ATOM      3  HN  UNK N   1      23.798  20.699   1.997  1.00  0.00     0.189 HD
HETATM    4  N   UNK N   1      21.456  19.113   3.514  0.00  0.00    -0.324 N 
ATOM      5  HN  UNK N   1      20.504  18.786   3.683  1.00  0.00     0.169 HD
HETATM    6  C   UNK N   1      22.573  18.849   4.228  0.00  0.00     0.101 A 
HETATM    7  C   UNK N   1      22.585  17.989   5.444  0.00  0.00     0.091 C 
HETATM    8  N   UNK N   1      23.645  19.470   3.682  0.00  0.00    -0.243 N 
ENDROOT
BRANCH   8   9
HETATM    9  C   UNK N   1      25.025  19.484   4.086  0.00  0.00     0.061 A 
HETATM   10  C   UNK N   1      25.861  18.450   3.643  0.00  0.00     0.055 A 
HETATM   11  C   UNK N   1      27.204  18.414   4.003  0.00  0.00     0.037 A 
HETATM   12  C   UNK N   1      27.732  19.419   4.816  0.00  0.00     0.048 A 
HETATM   13 Cl   UNK N   1      28.215  17.107   3.431  0.00  0.00    -0.084 Cl
HETATM   14  C   UNK N   1      26.911  20.458   5.266  0.00  0.00     0.037 A 
HETATM   15  C   UNK N   1      25.557  20.493   4.903  0.00  0.00     0.055 A 
HETATM   16 Cl   UNK N   1      27.579  21.713   6.284  0.00  0.00    -0.084 Cl
ENDBRANCH   8   9
BRANCH   1  17
HETATM   17  C   UNK N   1      21.084  20.492   1.456  0.00  0.00     0.213 C 
HETATM   18  O   UNK N   1      20.804  21.678   1.463  0.00  0.00    -0.644 OA
BRANCH  17  19
HETATM   19  O   UNK N   1      20.634  19.704   0.460  0.00  0.00    -0.771 OA
HETATM   20  H   UNK N   1      19.971  20.018  -0.124  0.00  0.00     0.168 HD
ENDBRANCH  17  19
ENDBRANCH   1  17
TORSDOF 3
ENDMDL
MODEL 6
REMARK VINA RESULT:      -5.9     16.032     17.477
REMARK  3 active torsions:
REMARK  status: ('A' for Active; 'I' for Inactive)
REMARK    1  A    between atoms: C_2  and  C_3 
REMARK    2  A    between atoms: C_2  and  O_19 
REMARK    3  A    between atoms: N_10  and  C_11 
ROOT
HETATM    1  C   UNK N   1      22.016  19.562   3.384  0.00  0.00     0.197 A 
HETATM    2  N   UNK N   1      23.316  19.893   3.399  0.00  0.00    -0.271 N 
ATOM      3  HN  UNK N   1      23.741  20.708   2.957  1.00  0.00     0.189 HD
HETATM    4  N   UNK N   1      21.785  18.418   4.066  0.00  0.00    -0.324 N 
ATOM      5  HN  UNK N   1      20.898  17.938   4.217  1.00  0.00     0.169 HD
HETATM    6  C   UNK N   1      23.015  18.065   4.501  0.00  0.00     0.101 A 
HETATM    7  C   UNK N   1      23.278  16.846   5.316  0.00  0.00     0.091 C 
HETATM    8  N   UNK N   1      23.941  18.964   4.093  0.00  0.00    -0.243 N 
ENDROOT
BRANCH   8   9
HETATM    9  C   UNK N   1      25.362  19.008   4.309  0.00  0.00     0.061 A 
HETATM   10  C   UNK N   1      25.888  20.053   5.082  0.00  0.00     0.055 A 
HETATM   11  C   UNK N   1      27.254  20.144   5.322  0.00  0.00     0.037 A 
HETATM   12  C   UNK N   1      28.119  19.187   4.790  0.00  0.00     0.048 A 
HETATM   13 Cl   UNK N   1      27.872  21.463   6.292  0.00  0.00    -0.084 Cl
HETATM   14  C   UNK N   1      27.610  18.138   4.016  0.00  0.00     0.037 A 
HETATM   15  C   UNK N   1      26.233  18.046   3.774  0.00  0.00     0.055 A 
HETATM   16 Cl   UNK N   1      28.700  16.942   3.352  0.00  0.00    -0.084 Cl
ENDBRANCH   8   9
BRANCH   1  17
HETATM   17  C   UNK N   1      20.999  20.366   2.701  0.00  0.00     0.213 C 
HETATM   18  O   UNK N   1      19.966  19.853   2.308  0.00  0.00    -0.644 OA
BRANCH  17  19
HETATM   19  O   UNK N   1      21.210  21.683   2.507  0.00  0.00    -0.771 OA
HETATM   20  H   UNK N   1      22.033  21.981   2.171  0.00  0.00     0.168 HD
ENDBRANCH  17  19
ENDBRANCH   1  17
TORSDOF 3
ENDMDL
MODEL 7
REMARK VINA RESULT:      -5.7     10.133     12.299
REMARK  3 active torsions:
REMARK  status: ('A' for Active; 'I' for Inactive)
REMARK    1  A    between atoms: C_2  and  C_3 
REMARK    2  A    between atoms: C_2  and  O_19 
REMARK    3  A    between atoms: N_10  and  C_11 
ROOT
HETATM    1  C   UNK N   1      32.438  17.679   8.027  0.00  0.00     0.197 A 
HETATM    2  N   UNK N   1      31.802  17.412   6.877  0.00  0.00    -0.271 N 
ATOM      3  HN  UNK N   1      32.234  17.269   5.963  1.00  0.00     0.189 HD
HETATM    4  N   UNK N   1      31.570  17.812   9.056  0.00  0.00    -0.324 N 
ATOM      5  HN  UNK N   1      31.774  18.015  10.035  1.00  0.00     0.169 HD
HETATM    6  C   UNK N   1      30.368  17.612   8.474  0.00  0.00     0.101 A 
HETATM    7  C   UNK N   1      29.078  17.659   9.217  0.00  0.00     0.091 C 
HETATM    8  N   UNK N   1      30.514  17.369   7.150  0.00  0.00    -0.243 N 
ENDROOT
BRANCH   8   9
HETATM    9  C   UNK N   1      29.534  17.102   6.133  0.00  0.00     0.061 A 
HETATM   10  C   UNK N   1      28.890  18.187   5.523  0.00  0.00     0.055 A 
HETATM   11  C   UNK N   1      27.934  17.986   4.533  0.00  0.00     0.037 A 
HETATM   12  C   UNK N   1      27.606  16.689   4.137  0.00  0.00     0.048 A 
HETATM   13 Cl   UNK N   1      27.153  19.367   3.796  0.00  0.00    -0.084 Cl
HETATM   14  C   UNK N   1      28.240  15.594   4.736  0.00  0.00     0.037 A 
HETATM   15  C   UNK N   1      29.203  15.798   5.734  0.00  0.00     0.055 A 
HETATM   16 Cl   UNK N   1      27.824  13.971   4.235  0.00  0.00    -0.084 Cl
ENDBRANCH   8   9
BRANCH   1  17
HETATM   17  C   UNK N   1      33.895  17.805   8.121  0.00  0.00     0.213 C 
HETATM   18  O   UNK N   1      34.557  18.075   7.134  0.00  0.00    -0.644 OA
BRANCH  17  19
HETATM   19  O   UNK N   1      34.505  17.621   9.308  0.00  0.00    -0.771 OA
HETATM   20  H   UNK N   1      34.974  16.826   9.475  0.00  0.00     0.168 HD
ENDBRANCH  17  19
ENDBRANCH   1  17
TORSDOF 3
ENDMDL
MODEL 8
REMARK VINA RESULT:      -5.7      1.645      3.283
REMARK  3 active torsions:
REMARK  status: ('A' for Active; 'I' for Inactive)
REMARK    1  A    between atoms: C_2  and  C_3 
REMARK    2  A    between atoms: C_2  and  O_19 
REMARK    3  A    between atoms: N_10  and  C_11 
ROOT
HETATM    1  C   UNK N   1      35.669  14.520  12.004  0.00  0.00     0.197 A 
HETATM    2  N   UNK N   1      35.910  14.302  13.306  0.00  0.00    -0.271 N 
ATOM      3  HN  UNK N   1      36.320  14.962  13.967  1.00  0.00     0.189 HD
HETATM    4  N   UNK N   1      35.117  13.438  11.411  0.00  0.00    -0.324 N 
ATOM      5  HN  UNK N   1      34.834  13.323  10.438  1.00  0.00     0.169 HD
HETATM    6  C   UNK N   1      35.033  12.543  12.420  0.00  0.00     0.101 A 
HETATM    7  C   UNK N   1      34.479  11.170  12.256  0.00  0.00     0.091 C 
HETATM    8  N   UNK N   1      35.515  13.073  13.569  0.00  0.00    -0.243 N 
ENDROOT
BRANCH   8   9
HETATM    9  C   UNK N   1      35.630  12.508  14.886  0.00  0.00     0.061 A 
HETATM   10  C   UNK N   1      36.103  11.194  15.011  0.00  0.00     0.055 A 
HETATM   11  C   UNK N   1      36.234  10.598  16.260  0.00  0.00     0.037 A 
HETATM   12  C   UNK N   1      35.892  11.312  17.410  0.00  0.00     0.048 A 
HETATM   13 Cl   UNK N   1      36.827   8.956  16.374  0.00  0.00    -0.084 Cl
HETATM   14  C   UNK N   1      35.419  12.624  17.302  0.00  0.00     0.037 A 
HETATM   15  C   UNK N   1      35.287  13.225  16.042  0.00  0.00     0.055 A 
HETATM   16 Cl   UNK N   1      34.992  13.513  18.747  0.00  0.00    -0.084 Cl
ENDBRANCH   8   9
BRANCH   1  17
HETATM   17  C   UNK N   1      35.979  15.789  11.340  0.00  0.00     0.213 C 
HETATM   18  O   UNK N   1      35.147  16.679  11.286  0.00  0.00    -0.644 OA
BRANCH  17  19
HETATM   19  O   UNK N   1      37.193  15.972  10.785  0.00  0.00    -0.771 OA
HETATM   20  H   UNK N   1      37.361  15.667   9.914  0.00  0.00     0.168 HD
ENDBRANCH  17  19
ENDBRANCH   1  17
TORSDOF 3
ENDMDL
MODEL 9
REMARK VINA RESULT:      -5.7      2.344      3.128
REMARK  3 active torsions:
REMARK  status: ('A' for Active; 'I' for Inactive)
REMARK    1  A    between atoms: C_2  and  C_3 
REMARK    2  A    between atoms: C_2  and  O_19 
REMARK    3  A    between atoms: N_10  and  C_11 
ROOT
HETATM    1  C   UNK N   1      35.839  15.420  10.905  0.00  0.00     0.197 A 
HETATM    2  N   UNK N   1      35.614  14.899  12.120  0.00  0.00    -0.271 N 
ATOM      3  HN  UNK N   1      34.935  15.228  12.806  1.00  0.00     0.189 HD
HETATM    4  N   UNK N   1      36.809  14.747  10.245  0.00  0.00    -0.324 N 
ATOM      5  HN  UNK N   1      37.181  14.923   9.312  1.00  0.00     0.169 HD
HETATM    6  C   UNK N   1      37.166  13.783  11.123  0.00  0.00     0.101 A 
HETATM    7  C   UNK N   1      38.222  12.769  10.844  0.00  0.00     0.091 C 
HETATM    8  N   UNK N   1      36.438  13.880  12.259  0.00  0.00    -0.243 N 
ENDROOT
BRANCH   8   9
HETATM    9  C   UNK N   1      36.462  13.087  13.458  0.00  0.00     0.061 A 
HETATM   10  C   UNK N   1      35.716  13.520  14.563  0.00  0.00     0.055 A 
HETATM   11  C   UNK N   1      35.704  12.791  15.747  0.00  0.00     0.037 A 
HETATM   12  C   UNK N   1      36.443  11.612  15.844  0.00  0.00     0.048 A 
HETATM   13 Cl   UNK N   1      34.759  13.366  17.102  0.00  0.00    -0.084 Cl
HETATM   14  C   UNK N   1      37.193  11.165  14.751  0.00  0.00     0.037 A 
HETATM   15  C   UNK N   1      37.205  11.900  13.558  0.00  0.00     0.055 A 
HETATM   16 Cl   UNK N   1      38.117   9.685  14.880  0.00  0.00    -0.084 Cl
ENDBRANCH   8   9
BRANCH   1  17
HETATM   17  C   UNK N   1      35.106  16.579  10.388  0.00  0.00     0.213 C 
HETATM   18  O   UNK N   1      35.652  17.663  10.289  0.00  0.00    -0.644 OA
BRANCH  17  19
HETATM   19  O   UNK N   1      33.817  16.441  10.020  0.00  0.00    -0.771 OA
HETATM   20  H   UNK N   1      33.499  15.609   9.727  0.00  0.00     0.168 HD
ENDBRANCH  17  19
ENDBRANCH   1  17
TORSDOF 3
ENDMDL
