MODEL 1
REMARK VINA RESULT:      -7.1      0.000      0.000
REMARK  3 active torsions:
REMARK  status: ('A' for Active; 'I' for Inactive)
REMARK    1  A    between atoms: N_1  and  C_8 
REMARK    2  A    between atoms: C_8  and  C_9 
REMARK    3  A    between atoms: C_8  and  C_10 
ROOT
HETATM    1  N   UNK N   1      24.425  20.946   2.287  0.00  0.00    -0.191 NA
HETATM    2  C   UNK N   1      27.960  18.146   5.038  0.00  0.00    -0.029 A 
HETATM    3  C   UNK N   1      26.827  17.421   4.647  0.00  0.00     0.011 A 
HETATM    4  C   UNK N   1      28.046  19.485   4.702  0.00  0.00     0.011 A 
HETATM    5  C   UNK N   1      25.821  18.075   3.926  0.00  0.00     0.023 A 
HETATM    6  C   UNK N   1      27.079  20.133   4.036  0.00  0.00     0.023 A 
HETATM    7  C   UNK N   1      25.975  19.445   3.639  0.00  0.00     0.044 A 
HETATM    8  C   UNK N   1      25.076  20.210   2.887  0.00  0.00     0.099 C 
ENDROOT
BRANCH   2   9
HETATM    9  C   UNK N   1      29.082  17.577   5.846  0.00  0.00     0.175 C 
BRANCH   9  10
HETATM   10  N   UNK N   1      29.218  17.946   7.258  0.00  0.00    -0.273 N 
HETATM   11  N   UNK N   1      30.340  17.879   7.948  0.00  0.00    -0.292 N 
HETATM   12  C   UNK N   1      30.055  18.282   9.196  0.00  0.00     0.198 A 
ATOM     13  HN  UNK N   1      31.250  17.580   7.600  1.00  0.00     0.188 HD
HETATM   14  N   UNK N   1      28.748  18.598   9.303  0.00  0.00    -0.346 N 
HETATM   15  C   UNK N   1      28.247  18.374   8.077  0.00  0.00     0.202 A 
ATOM     16  HN  UNK N   1      28.253  18.932  10.130  1.00  0.00     0.167 HD
ENDBRANCH   9  10
BRANCH   9  17
HETATM   17  C   UNK N   1      30.261  16.961   5.123  0.00  0.00    -0.029 A 
HETATM   18  C   UNK N   1      31.221  17.766   4.476  0.00  0.00     0.011 A 
HETATM   19  C   UNK N   1      32.260  17.234   3.765  0.00  0.00     0.023 A 
HETATM   20  C   UNK N   1      32.355  15.861   3.693  0.00  0.00     0.044 A 
HETATM   21  C   UNK N   1      31.449  15.035   4.350  0.00  0.00     0.023 A 
HETATM   22  C   UNK N   1      33.345  15.273   2.891  0.00  0.00     0.099 C 
HETATM   23  C   UNK N   1      30.406  15.587   5.065  0.00  0.00     0.011 A 
HETATM   24  N   UNK N   1      34.146  14.759   2.244  0.00  0.00    -0.191 NA
ENDBRANCH   9  17
ENDBRANCH   2   9
TORSDOF 3
ENDMDL
MODEL 2
REMARK VINA RESULT:      -7.0      0.530      6.012
REMARK  3 active torsions:
REMARK  status: ('A' for Active; 'I' for Inactive)
REMARK    1  A    between atoms: N_1  and  C_8 
REMARK    2  A    between atoms: C_8  and  C_9 
REMARK    3  A    between atoms: C_8  and  C_10 
ROOT
HETATM    1  N   UNK N   1      33.894  14.605   2.205  0.00  0.00    -0.191 NA
HETATM    2  C   UNK N   1      30.168  16.873   5.183  0.00  0.00    -0.029 A 
HETATM    3  C   UNK N   1      30.109  15.474   5.151  0.00  0.00     0.011 A 
HETATM    4  C   UNK N   1      31.144  17.518   4.447  0.00  0.00     0.011 A 
HETATM    5  C   UNK N   1      31.043  14.775   4.377  0.00  0.00     0.023 A 
HETATM    6  C   UNK N   1      32.029  16.866   3.679  0.00  0.00     0.023 A 
HETATM    7  C   UNK N   1      31.995  15.506   3.641  0.00  0.00     0.044 A 
HETATM    8  C   UNK N   1      33.014  14.940   2.868  0.00  0.00     0.099 C 
ENDROOT
BRANCH   2   9
HETATM    9  C   UNK N   1      29.205  17.735   5.935  0.00  0.00     0.175 C 
BRANCH   9  10
HETATM   10  N   UNK N   1      29.114  17.619   7.393  0.00  0.00    -0.273 N 
HETATM   11  N   UNK N   1      30.145  17.636   8.215  0.00  0.00    -0.292 N 
HETATM   12  C   UNK N   1      29.657  17.489   9.456  0.00  0.00     0.198 A 
ATOM     13  HN  UNK N   1      31.125  17.741   7.957  1.00  0.00     0.188 HD
HETATM   14  N   UNK N   1      28.314  17.371   9.425  0.00  0.00    -0.346 N 
HETATM   15  C   UNK N   1      28.001  17.451   8.121  0.00  0.00     0.202 A 
ATOM     16  HN  UNK N   1      27.679  17.249  10.214  1.00  0.00     0.167 HD
ENDBRANCH   9  10
BRANCH   9  17
HETATM   17  C   UNK N   1      28.086  18.414   5.173  0.00  0.00    -0.029 A 
HETATM   18  C   UNK N   1      27.146  17.665   4.438  0.00  0.00     0.011 A 
HETATM   19  C   UNK N   1      26.163  18.255   3.692  0.00  0.00     0.023 A 
HETATM   20  C   UNK N   1      26.108  19.632   3.675  0.00  0.00     0.044 A 
HETATM   21  C   UNK N   1      26.995  20.404   4.419  0.00  0.00     0.023 A 
HETATM   22  C   UNK N   1      25.182  20.281   2.845  0.00  0.00     0.099 C 
HETATM   23  C   UNK N   1      27.980  19.793   5.167  0.00  0.00     0.011 A 
HETATM   24  N   UNK N   1      24.434  20.843   2.176  0.00  0.00    -0.191 NA
ENDBRANCH   9  17
ENDBRANCH   2   9
TORSDOF 3
ENDMDL
MODEL 3
REMARK VINA RESULT:      -6.9      3.268      7.596
REMARK  3 active torsions:
REMARK  status: ('A' for Active; 'I' for Inactive)
REMARK    1  A    between atoms: N_1  and  C_8 
REMARK    2  A    between atoms: C_8  and  C_9 
REMARK    3  A    between atoms: C_8  and  C_10 
ROOT
HETATM    1  N   UNK N   1      36.025  16.654  10.806  0.00  0.00    -0.191 NA
HETATM    2  C   UNK N   1      32.020  16.487   7.365  0.00  0.00    -0.029 A 
HETATM    3  C   UNK N   1      32.925  17.533   7.147  0.00  0.00     0.011 A 
HETATM    4  C   UNK N   1      32.231  15.631   8.431  0.00  0.00     0.011 A 
HETATM    5  C   UNK N   1      34.016  17.677   8.014  0.00  0.00     0.023 A 
HETATM    6  C   UNK N   1      33.254  15.771   9.286  0.00  0.00     0.023 A 
HETATM    7  C   UNK N   1      34.150  16.775   9.087  0.00  0.00     0.044 A 
HETATM    8  C   UNK N   1      35.212  16.770   9.998  0.00  0.00     0.099 C 
ENDROOT
BRANCH   2   9
HETATM    9  C   UNK N   1      30.796  16.251   6.540  0.00  0.00     0.175 C 
BRANCH   9  10
HETATM   10  N   UNK N   1      30.795  15.185   5.534  0.00  0.00    -0.273 N 
HETATM   11  N   UNK N   1      29.961  14.163   5.523  0.00  0.00    -0.292 N 
HETATM   12  C   UNK N   1      30.286  13.405   4.464  0.00  0.00     0.198 A 
ATOM     13  HN  UNK N   1      29.212  13.983   6.190  1.00  0.00     0.188 HD
HETATM   14  N   UNK N   1      31.334  13.941   3.804  0.00  0.00    -0.346 N 
HETATM   15  C   UNK N   1      31.635  15.051   4.498  0.00  0.00     0.202 A 
ATOM     16  HN  UNK N   1      31.793  13.583   2.967  1.00  0.00     0.167 HD
ENDBRANCH   9  10
BRANCH   9  17
HETATM   17  C   UNK N   1      29.743  17.336   6.472  0.00  0.00    -0.029 A 
HETATM   18  C   UNK N   1      29.250  17.797   5.234  0.00  0.00     0.011 A 
HETATM   19  C   UNK N   1      28.344  18.818   5.143  0.00  0.00     0.023 A 
HETATM   20  C   UNK N   1      27.910  19.400   6.314  0.00  0.00     0.044 A 
HETATM   21  C   UNK N   1      28.345  18.946   7.555  0.00  0.00     0.023 A 
HETATM   22  C   UNK N   1      27.060  20.515   6.264  0.00  0.00     0.099 C 
HETATM   23  C   UNK N   1      29.258  17.914   7.631  0.00  0.00     0.011 A 
HETATM   24  N   UNK N   1      26.363  21.430   6.257  0.00  0.00    -0.191 NA
ENDBRANCH   9  17
ENDBRANCH   2   9
TORSDOF 3
ENDMDL
MODEL 4
REMARK VINA RESULT:      -6.7      8.809     12.482
REMARK  3 active torsions:
REMARK  status: ('A' for Active; 'I' for Inactive)
REMARK    1  A    between atoms: N_1  and  C_8 
REMARK    2  A    between atoms: C_8  and  C_9 
REMARK    3  A    between atoms: C_8  and  C_10 
ROOT
HETATM    1  N   UNK N   1      34.974  13.544  19.260  0.00  0.00    -0.191 NA
HETATM    2  C   UNK N   1      35.803  13.311  14.049  0.00  0.00    -0.029 A 
HETATM    3  C   UNK N   1      36.765  14.046  14.754  0.00  0.00     0.011 A 
HETATM    4  C   UNK N   1      34.750  12.747  14.745  0.00  0.00     0.011 A 
HETATM    5  C   UNK N   1      36.629  14.183  16.141  0.00  0.00     0.023 A 
HETATM    6  C   UNK N   1      34.590  12.891  16.068  0.00  0.00     0.023 A 
HETATM    7  C   UNK N   1      35.517  13.594  16.773  0.00  0.00     0.044 A 
HETATM    8  C   UNK N   1      35.282  13.608  18.153  0.00  0.00     0.099 C 
ENDROOT
BRANCH   2   9
HETATM    9  C   UNK N   1      35.811  13.127  12.565  0.00  0.00     0.175 C 
BRANCH   9  10
HETATM   10  N   UNK N   1      36.566  12.017  11.977  0.00  0.00    -0.273 N 
HETATM   11  N   UNK N   1      37.441  12.139  10.998  0.00  0.00    -0.292 N 
HETATM   12  C   UNK N   1      37.902  10.907  10.731  0.00  0.00     0.198 A 
ATOM     13  HN  UNK N   1      37.717  13.003  10.533  1.00  0.00     0.188 HD
HETATM   14  N   UNK N   1      37.313   9.998  11.535  0.00  0.00    -0.346 N 
HETATM   15  C   UNK N   1      36.478  10.720  12.302  0.00  0.00     0.202 A 
ATOM     16  HN  UNK N   1      37.468   8.991  11.556  1.00  0.00     0.167 HD
ENDBRANCH   9  10
BRANCH   9  17
HETATM   17  C   UNK N   1      35.383  14.282  11.685  0.00  0.00    -0.029 A 
HETATM   18  C   UNK N   1      34.389  14.118  10.699  0.00  0.00     0.011 A 
HETATM   19  C   UNK N   1      34.028  15.128   9.850  0.00  0.00     0.023 A 
HETATM   20  C   UNK N   1      34.670  16.340   9.982  0.00  0.00     0.044 A 
HETATM   21  C   UNK N   1      35.628  16.551  10.969  0.00  0.00     0.023 A 
HETATM   22  C   UNK N   1      34.404  17.371   9.069  0.00  0.00     0.099 C 
HETATM   23  C   UNK N   1      35.981  15.523  11.818  0.00  0.00     0.011 A 
HETATM   24  N   UNK N   1      34.208  18.237   8.337  0.00  0.00    -0.191 NA
ENDBRANCH   9  17
ENDBRANCH   2   9
TORSDOF 3
ENDMDL
MODEL 5
REMARK VINA RESULT:      -6.7      2.920      5.148
REMARK  3 active torsions:
REMARK  status: ('A' for Active; 'I' for Inactive)
REMARK    1  A    between atoms: N_1  and  C_8 
REMARK    2  A    between atoms: C_8  and  C_9 
REMARK    3  A    between atoms: C_8  and  C_10 
ROOT
HETATM    1  N   UNK N   1      29.155  11.919   0.807  0.00  0.00    -0.191 NA
HETATM    2  C   UNK N   1      29.484  15.589   4.591  0.00  0.00    -0.029 A 
HETATM    3  C   UNK N   1      29.649  14.275   5.046  0.00  0.00     0.011 A 
HETATM    4  C   UNK N   1      29.239  15.806   3.247  0.00  0.00     0.011 A 
HETATM    5  C   UNK N   1      29.564  13.224   4.124  0.00  0.00     0.023 A 
HETATM    6  C   UNK N   1      29.128  14.811   2.357  0.00  0.00     0.023 A 
HETATM    7  C   UNK N   1      29.293  13.527   2.776  0.00  0.00     0.044 A 
HETATM    8  C   UNK N   1      29.230  12.585   1.743  0.00  0.00     0.099 C 
ENDROOT
BRANCH   2   9
HETATM    9  C   UNK N   1      29.510  16.793   5.478  0.00  0.00     0.175 C 
BRANCH   9  10
HETATM   10  N   UNK N   1      28.454  17.802   5.361  0.00  0.00    -0.273 N 
HETATM   11  N   UNK N   1      28.561  18.928   4.684  0.00  0.00    -0.292 N 
HETATM   12  C   UNK N   1      27.400  19.584   4.830  0.00  0.00     0.198 A 
ATOM     13  HN  UNK N   1      29.372  19.242   4.151  1.00  0.00     0.188 HD
HETATM   14  N   UNK N   1      26.553  18.878   5.607  0.00  0.00    -0.346 N 
HETATM   15  C   UNK N   1      27.240  17.769   5.930  0.00  0.00     0.202 A 
ATOM     16  HN  UNK N   1      25.606  19.130   5.887  1.00  0.00     0.167 HD
ENDBRANCH   9  10
BRANCH   9  17
HETATM   17  C   UNK N   1      30.799  17.147   6.188  0.00  0.00    -0.029 A 
HETATM   18  C   UNK N   1      30.818  17.424   7.570  0.00  0.00     0.011 A 
HETATM   19  C   UNK N   1      31.957  17.806   8.223  0.00  0.00     0.023 A 
HETATM   20  C   UNK N   1      33.116  17.917   7.486  0.00  0.00     0.044 A 
HETATM   21  C   UNK N   1      33.144  17.615   6.128  0.00  0.00     0.023 A 
HETATM   22  C   UNK N   1      34.283  18.404   8.093  0.00  0.00     0.099 C 
HETATM   23  C   UNK N   1      31.987  17.230   5.483  0.00  0.00     0.011 A 
HETATM   24  N   UNK N   1      35.257  18.798   8.561  0.00  0.00    -0.191 NA
ENDBRANCH   9  17
ENDBRANCH   2   9
TORSDOF 3
ENDMDL
MODEL 6
REMARK VINA RESULT:      -6.6      9.294     12.440
REMARK  3 active torsions:
REMARK  status: ('A' for Active; 'I' for Inactive)
REMARK    1  A    between atoms: N_1  and  C_8 
REMARK    2  A    between atoms: C_8  and  C_9 
REMARK    3  A    between atoms: C_8  and  C_10 
ROOT
HETATM    1  N   UNK N   1      35.291  13.449  19.045  0.00  0.00    -0.191 NA
HETATM    2  C   UNK N   1      35.949  13.591  13.807  0.00  0.00    -0.029 A 
HETATM    3  C   UNK N   1      34.889  12.780  14.234  0.00  0.00     0.011 A 
HETATM    4  C   UNK N   1      36.715  14.244  14.755  0.00  0.00     0.011 A 
HETATM    5  C   UNK N   1      34.639  12.661  15.606  0.00  0.00     0.023 A 
HETATM    6  C   UNK N   1      36.507  14.119  16.073  0.00  0.00     0.023 A 
HETATM    7  C   UNK N   1      35.477  13.344  16.509  0.00  0.00     0.044 A 
HETATM    8  C   UNK N   1      35.314  13.355  17.899  0.00  0.00     0.099 C 
ENDROOT
BRANCH   2   9
HETATM    9  C   UNK N   1      36.345  13.768  12.376  0.00  0.00     0.175 C 
BRANCH   9  10
HETATM   10  N   UNK N   1      35.727  14.831  11.579  0.00  0.00    -0.273 N 
HETATM   11  N   UNK N   1      36.322  15.957  11.236  0.00  0.00    -0.292 N 
HETATM   12  C   UNK N   1      35.431  16.670  10.530  0.00  0.00     0.198 A 
ATOM     13  HN  UNK N   1      37.277  16.233  11.463  1.00  0.00     0.188 HD
HETATM   14  N   UNK N   1      34.264  16.001  10.430  0.00  0.00    -0.346 N 
HETATM   15  C   UNK N   1      34.475  14.856  11.099  0.00  0.00     0.202 A 
ATOM     16  HN  UNK N   1      33.413  16.299   9.953  1.00  0.00     0.167 HD
ENDBRANCH   9  10
BRANCH   9  17
HETATM   17  C   UNK N   1      37.062  12.635  11.672  0.00  0.00    -0.029 A 
HETATM   18  C   UNK N   1      37.981  12.887  10.634  0.00  0.00     0.011 A 
HETATM   19  C   UNK N   1      38.595  11.880   9.941  0.00  0.00     0.023 A 
HETATM   20  C   UNK N   1      38.291  10.581  10.288  0.00  0.00     0.044 A 
HETATM   21  C   UNK N   1      37.418  10.294  11.333  0.00  0.00     0.023 A 
HETATM   22  C   UNK N   1      38.819   9.519   9.539  0.00  0.00     0.099 C 
HETATM   23  C   UNK N   1      36.807  11.321  12.023  0.00  0.00     0.011 A 
HETATM   24  N   UNK N   1      39.235   8.626   8.945  0.00  0.00    -0.191 NA
ENDBRANCH   9  17
ENDBRANCH   2   9
TORSDOF 3
ENDMDL
MODEL 7
REMARK VINA RESULT:      -6.5      9.045     12.228
REMARK  3 active torsions:
REMARK  status: ('A' for Active; 'I' for Inactive)
REMARK    1  A    between atoms: N_1  and  C_8 
REMARK    2  A    between atoms: C_8  and  C_9 
REMARK    3  A    between atoms: C_8  and  C_10 
ROOT
HETATM    1  N   UNK N   1      34.039  18.028   8.639  0.00  0.00    -0.191 NA
HETATM    2  C   UNK N   1      35.693  14.086  11.742  0.00  0.00    -0.029 A 
HETATM    3  C   UNK N   1      34.653  13.738  10.871  0.00  0.00     0.011 A 
HETATM    4  C   UNK N   1      36.167  15.385  11.731  0.00  0.00     0.011 A 
HETATM    5  C   UNK N   1      34.130  14.716  10.015  0.00  0.00     0.023 A 
HETATM    6  C   UNK N   1      35.660  16.340  10.938  0.00  0.00     0.023 A 
HETATM    7  C   UNK N   1      34.655  16.020  10.078  0.00  0.00     0.044 A 
HETATM    8  C   UNK N   1      34.264  17.080   9.252  0.00  0.00     0.099 C 
ENDROOT
BRANCH   2   9
HETATM    9  C   UNK N   1      36.307  13.149  12.731  0.00  0.00     0.175 C 
BRANCH   9  10
HETATM   10  N   UNK N   1      36.903  11.893  12.266  0.00  0.00    -0.273 N 
HETATM   11  N   UNK N   1      36.803  11.422  11.039  0.00  0.00    -0.292 N 
HETATM   12  C   UNK N   1      37.463  10.254  11.013  0.00  0.00     0.198 A 
ATOM     13  HN  UNK N   1      36.317  11.861  10.257  1.00  0.00     0.188 HD
HETATM   14  N   UNK N   1      37.978   9.976  12.228  0.00  0.00    -0.346 N 
HETATM   15  C   UNK N   1      37.608  11.016  12.995  0.00  0.00     0.202 A 
ATOM     16  HN  UNK N   1      38.524   9.161  12.503  1.00  0.00     0.167 HD
ENDBRANCH   9  10
BRANCH   9  17
HETATM   17  C   UNK N   1      35.965  13.309  14.197  0.00  0.00    -0.029 A 
HETATM   18  C   UNK N   1      36.760  14.104  15.048  0.00  0.00     0.011 A 
HETATM   19  C   UNK N   1      36.509  14.216  16.388  0.00  0.00     0.023 A 
HETATM   20  C   UNK N   1      35.436  13.521  16.902  0.00  0.00     0.044 A 
HETATM   21  C   UNK N   1      34.607  12.758  16.087  0.00  0.00     0.023 A 
HETATM   22  C   UNK N   1      35.202  13.526  18.286  0.00  0.00     0.099 C 
HETATM   23  C   UNK N   1      34.872  12.656  14.737  0.00  0.00     0.011 A 
HETATM   24  N   UNK N   1      34.983  13.510  19.415  0.00  0.00    -0.191 NA
ENDBRANCH   9  17
ENDBRANCH   2   9
TORSDOF 3
ENDMDL
MODEL 8
REMARK VINA RESULT:      -6.5      3.848      7.467
REMARK  3 active torsions:
REMARK  status: ('A' for Active; 'I' for Inactive)
REMARK    1  A    between atoms: N_1  and  C_8 
REMARK    2  A    between atoms: C_8  and  C_9 
REMARK    3  A    between atoms: C_8  and  C_10 
ROOT
HETATM    1  N   UNK N   1      36.252  14.370  13.060  0.00  0.00    -0.191 NA
HETATM    2  C   UNK N   1      33.502  16.381   9.023  0.00  0.00    -0.029 A 
HETATM    3  C   UNK N   1      34.622  17.136   9.392  0.00  0.00     0.011 A 
HETATM    4  C   UNK N   1      33.210  15.229   9.731  0.00  0.00     0.011 A 
HETATM    5  C   UNK N   1      35.412  16.698  10.463  0.00  0.00     0.023 A 
HETATM    6  C   UNK N   1      33.939  14.810  10.775  0.00  0.00     0.023 A 
HETATM    7  C   UNK N   1      35.037  15.525  11.144  0.00  0.00     0.044 A 
HETATM    8  C   UNK N   1      35.757  14.946  12.196  0.00  0.00     0.099 C 
ENDROOT
BRANCH   2   9
HETATM    9  C   UNK N   1      32.558  16.761   7.929  0.00  0.00     0.175 C 
BRANCH   9  10
HETATM   10  N   UNK N   1      31.225  17.269   8.266  0.00  0.00    -0.273 N 
HETATM   11  N   UNK N   1      30.952  18.036   9.303  0.00  0.00    -0.292 N 
HETATM   12  C   UNK N   1      29.631  18.272   9.277  0.00  0.00     0.198 A 
ATOM     13  HN  UNK N   1      31.617  18.384   9.993  1.00  0.00     0.188 HD
HETATM   14  N   UNK N   1      29.060  17.648   8.227  0.00  0.00    -0.346 N 
HETATM   15  C   UNK N   1      30.079  17.024   7.613  0.00  0.00     0.202 A 
ATOM     16  HN  UNK N   1      28.077  17.651   7.959  1.00  0.00     0.167 HD
ENDBRANCH   9  10
BRANCH   9  17
HETATM   17  C   UNK N   1      32.828  16.260   6.525  0.00  0.00    -0.029 A 
HETATM   18  C   UNK N   1      32.822  14.882   6.229  0.00  0.00     0.011 A 
HETATM   19  C   UNK N   1      33.123  14.401   4.986  0.00  0.00     0.023 A 
HETATM   20  C   UNK N   1      33.438  15.313   4.001  0.00  0.00     0.044 A 
HETATM   21  C   UNK N   1      33.417  16.682   4.246  0.00  0.00     0.023 A 
HETATM   22  C   UNK N   1      33.852  14.860   2.740  0.00  0.00     0.099 C 
HETATM   23  C   UNK N   1      33.110  17.152   5.506  0.00  0.00     0.011 A 
HETATM   24  N   UNK N   1      34.194  14.521   1.695  0.00  0.00    -0.191 NA
ENDBRANCH   9  17
ENDBRANCH   2   9
TORSDOF 3
ENDMDL
MODEL 9
REMARK VINA RESULT:      -6.5      9.268     13.200
REMARK  3 active torsions:
REMARK  status: ('A' for Active; 'I' for Inactive)
REMARK    1  A    between atoms: N_1  and  C_8 
REMARK    2  A    between atoms: C_8  and  C_9 
REMARK    3  A    between atoms: C_8  and  C_10 
ROOT
HETATM    1  N   UNK N   1      39.671   8.628   9.376  0.00  0.00    -0.191 NA
HETATM    2  C   UNK N   1      36.839  12.574  11.451  0.00  0.00    -0.029 A 
HETATM    3  C   UNK N   1      37.870  12.990  10.599  0.00  0.00     0.011 A 
HETATM    4  C   UNK N   1      36.668  11.222  11.684  0.00  0.00     0.011 A 
HETATM    5  C   UNK N   1      38.691  12.021  10.008  0.00  0.00     0.023 A 
HETATM    6  C   UNK N   1      37.462  10.284  11.149  0.00  0.00     0.023 A 
HETATM    7  C   UNK N   1      38.464  10.665  10.311  0.00  0.00     0.044 A 
HETATM    8  C   UNK N   1      39.172   9.593   9.757  0.00  0.00     0.099 C 
ENDROOT
BRANCH   2   9
HETATM    9  C   UNK N   1      35.922  13.508  12.174  0.00  0.00     0.175 C 
BRANCH   9  10
HETATM   10  N   UNK N   1      35.457  14.728  11.509  0.00  0.00    -0.273 N 
HETATM   11  N   UNK N   1      36.165  15.832  11.383  0.00  0.00    -0.292 N 
HETATM   12  C   UNK N   1      35.394  16.719  10.735  0.00  0.00     0.198 A 
ATOM     13  HN  UNK N   1      37.117  15.985  11.713  1.00  0.00     0.188 HD
HETATM   14  N   UNK N   1      34.189  16.181  10.454  0.00  0.00    -0.346 N 
HETATM   15  C   UNK N   1      34.254  14.936  10.954  0.00  0.00     0.202 A 
ATOM     16  HN  UNK N   1      33.407  16.621   9.972  1.00  0.00     0.167 HD
ENDBRANCH   9  10
BRANCH   9  17
HETATM   17  C   UNK N   1      35.805  13.394  13.680  0.00  0.00    -0.029 A 
HETATM   18  C   UNK N   1      34.758  12.662  14.276  0.00  0.00     0.011 A 
HETATM   19  C   UNK N   1      34.594  12.594  15.632  0.00  0.00     0.023 A 
HETATM   20  C   UNK N   1      35.496  13.271  16.424  0.00  0.00     0.044 A 
HETATM   21  C   UNK N   1      36.564  13.972  15.873  0.00  0.00     0.023 A 
HETATM   22  C   UNK N   1      35.307  13.313  17.814  0.00  0.00     0.099 C 
HETATM   23  C   UNK N   1      36.717  14.030  14.503  0.00  0.00     0.011 A 
HETATM   24  N   UNK N   1      35.182  13.366  18.956  0.00  0.00    -0.191 NA
ENDBRANCH   9  17
ENDBRANCH   2   9
TORSDOF 3
ENDMDL
