MODEL 1
REMARK VINA RESULT:      -4.4      0.000      0.000
REMARK  7 active torsions:
REMARK  status: ('A' for Active; 'I' for Inactive)
REMARK    1  A    between atoms: S_1  and  O_3 
REMARK    2  A    between atoms: S_2  and  O_4 
REMARK    3  A    between atoms: O_3  and  C_11 
REMARK    4  A    between atoms: O_4  and  C_12 
REMARK    5  A    between atoms: C_9  and  C_10 
REMARK    6  A    between atoms: C_9  and  C_11 
REMARK    7  A    between atoms: C_10  and  C_12 
ROOT
HETATM    1  C   UNK N   1      21.871  17.909   5.865  0.00  0.00     0.030 C 
ENDROOT
BRANCH   1   2
HETATM    2  C   UNK N   1      20.791  16.963   6.354  0.00  0.00     0.030 C 
BRANCH   2   3
HETATM    3  C   UNK N   1      21.293  16.142   7.526  0.00  0.00     0.190 C 
BRANCH   3   4
HETATM    4  O   UNK N   1      20.720  16.628   8.708  0.00  0.00    -0.276 OA
BRANCH   4   5
HETATM    5  S   UNK N   1      19.089  17.015   8.307  0.00  0.00     0.261 S 
HETATM    6  O   UNK N   1      19.351  18.078   9.387  0.00  0.00    -0.199 OA
HETATM    7  O   UNK N   1      18.939  15.774   9.205  0.00  0.00    -0.199 OA
HETATM    8  C   UNK N   1      17.579  17.066   9.310  0.00  0.00     0.194 C 
ENDBRANCH   4   5
ENDBRANCH   3   4
ENDBRANCH   2   3
ENDBRANCH   1   2
BRANCH   1   9
HETATM    9  C   UNK N   1      21.535  18.426   4.479  0.00  0.00     0.190 C 
BRANCH   9  10
HETATM   10  O   UNK N   1      20.969  19.703   4.592  0.00  0.00    -0.276 OA
BRANCH  10  11
HETATM   11  S   UNK N   1      20.285  20.048   3.047  0.00  0.00     0.261 S 
HETATM   12  O   UNK N   1      21.048  18.754   2.719  0.00  0.00    -0.199 OA
HETATM   13  O   UNK N   1      21.469  21.030   3.116  0.00  0.00    -0.199 OA
HETATM   14  C   UNK N   1      21.044  20.318   1.421  0.00  0.00     0.194 C 
ENDBRANCH  10  11
ENDBRANCH   9  10
ENDBRANCH   1   9
TORSDOF 7
ENDMDL
MODEL 2
REMARK VINA RESULT:      -4.4     13.832     15.143
REMARK  7 active torsions:
REMARK  status: ('A' for Active; 'I' for Inactive)
REMARK    1  A    between atoms: S_1  and  O_3 
REMARK    2  A    between atoms: S_2  and  O_4 
REMARK    3  A    between atoms: O_3  and  C_11 
REMARK    4  A    between atoms: O_4  and  C_12 
REMARK    5  A    between atoms: C_9  and  C_10 
REMARK    6  A    between atoms: C_9  and  C_11 
REMARK    7  A    between atoms: C_10  and  C_12 
ROOT
HETATM    1  C   UNK N   1      26.950  24.491  -3.372  0.00  0.00     0.030 C 
ENDROOT
BRANCH   1   2
HETATM    2  C   UNK N   1      26.105  24.696  -4.615  0.00  0.00     0.030 C 
BRANCH   2   3
HETATM    3  C   UNK N   1      26.364  23.592  -5.623  0.00  0.00     0.190 C 
BRANCH   3   4
HETATM    4  O   UNK N   1      25.361  23.614  -6.600  0.00  0.00    -0.276 OA
BRANCH   4   5
HETATM    5  S   UNK N   1      25.330  22.025  -7.267  0.00  0.00     0.261 S 
HETATM    6  O   UNK N   1      26.739  22.462  -7.702  0.00  0.00    -0.199 OA
HETATM    7  O   UNK N   1      24.491  22.838  -8.270  0.00  0.00    -0.199 OA
HETATM    8  C   UNK N   1      25.517  21.427  -8.969  0.00  0.00     0.194 C 
ENDBRANCH   4   5
ENDBRANCH   3   4
ENDBRANCH   2   3
ENDBRANCH   1   2
BRANCH   1   9
HETATM    9  C   UNK N   1      28.307  23.925  -3.741  0.00  0.00     0.190 C 
BRANCH   9  10
HETATM   10  O   UNK N   1      29.056  23.732  -2.573  0.00  0.00    -0.276 OA
BRANCH  10  11
HETATM   11  S   UNK N   1      30.669  23.421  -3.098  0.00  0.00     0.261 S 
HETATM   12  O   UNK N   1      29.939  22.243  -3.764  0.00  0.00    -0.199 OA
HETATM   13  O   UNK N   1      30.688  22.918  -1.643  0.00  0.00    -0.199 OA
HETATM   14  C   UNK N   1      31.753  21.982  -2.887  0.00  0.00     0.194 C 
ENDBRANCH  10  11
ENDBRANCH   9  10
ENDBRANCH   1   9
TORSDOF 7
ENDMDL
MODEL 3
REMARK VINA RESULT:      -4.3      2.327      6.954
REMARK  7 active torsions:
REMARK  status: ('A' for Active; 'I' for Inactive)
REMARK    1  A    between atoms: S_1  and  O_3 
REMARK    2  A    between atoms: S_2  and  O_4 
REMARK    3  A    between atoms: O_3  and  C_11 
REMARK    4  A    between atoms: O_4  and  C_12 
REMARK    5  A    between atoms: C_9  and  C_10 
REMARK    6  A    between atoms: C_9  and  C_11 
REMARK    7  A    between atoms: C_10  and  C_12 
ROOT
HETATM    1  C   UNK N   1      21.861  15.517   6.929  0.00  0.00     0.030 C 
ENDROOT
BRANCH   1   2
HETATM    2  C   UNK N   1      21.069  16.810   6.886  0.00  0.00     0.030 C 
BRANCH   2   3
HETATM    3  C   UNK N   1      20.843  17.250   5.452  0.00  0.00     0.190 C 
BRANCH   3   4
HETATM    4  O   UNK N   1      21.277  18.573   5.302  0.00  0.00    -0.276 OA
BRANCH   4   5
HETATM    5  S   UNK N   1      21.302  18.861   3.603  0.00  0.00     0.261 S 
HETATM    6  O   UNK N   1      22.771  19.167   3.940  0.00  0.00    -0.199 OA
HETATM    7  O   UNK N   1      20.644  20.135   4.159  0.00  0.00    -0.199 OA
HETATM    8  C   UNK N   1      21.723  20.336   2.634  0.00  0.00     0.194 C 
ENDBRANCH   4   5
ENDBRANCH   3   4
ENDBRANCH   2   3
ENDBRANCH   1   2
BRANCH   1   9
HETATM    9  C   UNK N   1      20.927  14.323   6.879  0.00  0.00     0.190 C 
BRANCH   9  10
HETATM   10  O   UNK N   1      20.044  14.386   7.966  0.00  0.00    -0.276 OA
BRANCH  10  11
HETATM   11  S   UNK N   1      20.981  13.972   9.353  0.00  0.00     0.261 S 
HETATM   12  O   UNK N   1      20.920  12.604   8.653  0.00  0.00    -0.199 OA
HETATM   13  O   UNK N   1      19.552  14.031   9.919  0.00  0.00    -0.199 OA
HETATM   14  C   UNK N   1      20.718  12.752  10.670  0.00  0.00     0.194 C 
ENDBRANCH  10  11
ENDBRANCH   9  10
ENDBRANCH   1   9
TORSDOF 7
ENDMDL
MODEL 4
REMARK VINA RESULT:      -4.3     11.268     12.249
REMARK  7 active torsions:
REMARK  status: ('A' for Active; 'I' for Inactive)
REMARK    1  A    between atoms: S_1  and  O_3 
REMARK    2  A    between atoms: S_2  and  O_4 
REMARK    3  A    between atoms: O_3  and  C_11 
REMARK    4  A    between atoms: O_4  and  C_12 
REMARK    5  A    between atoms: C_9  and  C_10 
REMARK    6  A    between atoms: C_9  and  C_11 
REMARK    7  A    between atoms: C_10  and  C_12 
ROOT
HETATM    1  C   UNK N   1      32.915  17.529   4.177  0.00  0.00     0.030 C 
ENDROOT
BRANCH   1   2
HETATM    2  C   UNK N   1      31.464  17.102   4.071  0.00  0.00     0.030 C 
BRANCH   2   3
HETATM    3  C   UNK N   1      30.754  17.290   5.399  0.00  0.00     0.190 C 
BRANCH   3   4
HETATM    4  O   UNK N   1      29.389  17.027   5.234  0.00  0.00    -0.276 OA
BRANCH   4   5
HETATM    5  S   UNK N   1      28.684  17.244   6.792  0.00  0.00     0.261 S 
HETATM    6  O   UNK N   1      28.353  18.608   6.165  0.00  0.00    -0.199 OA
HETATM    7  O   UNK N   1      30.186  17.446   7.061  0.00  0.00    -0.199 OA
HETATM    8  C   UNK N   1      28.995  18.463   8.098  0.00  0.00     0.194 C 
ENDBRANCH   4   5
ENDBRANCH   3   4
ENDBRANCH   2   3
ENDBRANCH   1   2
BRANCH   1   9
HETATM    9  C   UNK N   1      33.529  17.003   5.460  0.00  0.00     0.190 C 
BRANCH   9  10
HETATM   10  O   UNK N   1      34.167  18.056   6.129  0.00  0.00    -0.276 OA
BRANCH  10  11
HETATM   11  S   UNK N   1      33.750  17.874   7.792  0.00  0.00     0.261 S 
HETATM   12  O   UNK N   1      34.971  18.799   7.922  0.00  0.00    -0.199 OA
HETATM   13  O   UNK N   1      34.468  16.549   7.479  0.00  0.00    -0.199 OA
HETATM   14  C   UNK N   1      34.691  17.255   9.214  0.00  0.00     0.194 C 
ENDBRANCH  10  11
ENDBRANCH   9  10
ENDBRANCH   1   9
TORSDOF 7
ENDMDL
MODEL 5
REMARK VINA RESULT:      -4.2     14.919     15.762
REMARK  7 active torsions:
REMARK  status: ('A' for Active; 'I' for Inactive)
REMARK    1  A    between atoms: S_1  and  O_3 
REMARK    2  A    between atoms: S_2  and  O_4 
REMARK    3  A    between atoms: O_3  and  C_11 
REMARK    4  A    between atoms: O_4  and  C_12 
REMARK    5  A    between atoms: C_9  and  C_10 
REMARK    6  A    between atoms: C_9  and  C_11 
REMARK    7  A    between atoms: C_10  and  C_12 
ROOT
HETATM    1  C   UNK N   1      35.418  15.959  10.879  0.00  0.00     0.030 C 
ENDROOT
BRANCH   1   2
HETATM    2  C   UNK N   1      34.918  14.553  11.150  0.00  0.00     0.030 C 
BRANCH   2   3
HETATM    3  C   UNK N   1      35.594  13.974  12.379  0.00  0.00     0.190 C 
BRANCH   3   4
HETATM    4  O   UNK N   1      34.618  13.476  13.250  0.00  0.00    -0.276 OA
BRANCH   4   5
HETATM    5  S   UNK N   1      35.485  12.686  14.513  0.00  0.00     0.261 S 
HETATM    6  O   UNK N   1      34.203  13.062  15.274  0.00  0.00    -0.199 OA
HETATM    7  O   UNK N   1      36.156  14.069  14.446  0.00  0.00    -0.199 OA
HETATM    8  C   UNK N   1      36.042  13.263  16.140  0.00  0.00     0.194 C 
ENDBRANCH   4   5
ENDBRANCH   3   4
ENDBRANCH   2   3
ENDBRANCH   1   2
BRANCH   1   9
HETATM    9  C   UNK N   1      34.645  16.584   9.734  0.00  0.00     0.190 C 
BRANCH   9  10
HETATM   10  O   UNK N   1      35.221  17.821   9.413  0.00  0.00    -0.276 OA
BRANCH  10  11
HETATM   11  S   UNK N   1      34.363  18.392   8.031  0.00  0.00     0.261 S 
HETATM   12  O   UNK N   1      33.185  17.942   8.911  0.00  0.00    -0.199 OA
HETATM   13  O   UNK N   1      34.872  17.016   7.565  0.00  0.00    -0.199 OA
HETATM   14  C   UNK N   1      33.192  17.575   6.912  0.00  0.00     0.194 C 
ENDBRANCH  10  11
ENDBRANCH   9  10
ENDBRANCH   1   9
TORSDOF 7
ENDMDL
MODEL 6
REMARK VINA RESULT:      -4.2      4.977      6.689
REMARK  7 active torsions:
REMARK  status: ('A' for Active; 'I' for Inactive)
REMARK    1  A    between atoms: S_1  and  O_3 
REMARK    2  A    between atoms: S_2  and  O_4 
REMARK    3  A    between atoms: O_3  and  C_11 
REMARK    4  A    between atoms: O_4  and  C_12 
REMARK    5  A    between atoms: C_9  and  C_10 
REMARK    6  A    between atoms: C_9  and  C_11 
REMARK    7  A    between atoms: C_10  and  C_12 
ROOT
HETATM    1  C   UNK N   1      24.473  20.683   3.088  0.00  0.00     0.030 C 
ENDROOT
BRANCH   1   2
HETATM    2  C   UNK N   1      25.400  19.669   3.730  0.00  0.00     0.030 C 
BRANCH   2   3
HETATM    3  C   UNK N   1      26.261  20.330   4.789  0.00  0.00     0.190 C 
BRANCH   3   4
HETATM    4  O   UNK N   1      27.552  19.789   4.738  0.00  0.00    -0.276 OA
BRANCH   4   5
HETATM    5  S   UNK N   1      27.573  18.530   5.914  0.00  0.00     0.261 S 
HETATM    6  O   UNK N   1      27.824  19.742   6.826  0.00  0.00    -0.199 OA
HETATM    7  O   UNK N   1      28.961  18.414   5.259  0.00  0.00    -0.199 OA
HETATM    8  C   UNK N   1      28.850  17.995   7.088  0.00  0.00     0.194 C 
ENDBRANCH   4   5
ENDBRANCH   3   4
ENDBRANCH   2   3
ENDBRANCH   1   2
BRANCH   1   9
HETATM    9  C   UNK N   1      23.055  20.147   3.036  0.00  0.00     0.190 C 
BRANCH   9  10
HETATM   10  O   UNK N   1      22.168  21.215   2.853  0.00  0.00    -0.276 OA
BRANCH  10  11
HETATM   11  S   UNK N   1      20.695  20.509   2.302  0.00  0.00     0.261 S 
HETATM   12  O   UNK N   1      20.312  20.824   3.757  0.00  0.00    -0.199 OA
HETATM   13  O   UNK N   1      21.590  19.279   2.535  0.00  0.00    -0.199 OA
HETATM   14  C   UNK N   1      19.747  19.076   2.887  0.00  0.00     0.194 C 
ENDBRANCH  10  11
ENDBRANCH   9  10
ENDBRANCH   1   9
TORSDOF 7
ENDMDL
MODEL 7
REMARK VINA RESULT:      -4.2     14.694     15.876
REMARK  7 active torsions:
REMARK  status: ('A' for Active; 'I' for Inactive)
REMARK    1  A    between atoms: S_1  and  O_3 
REMARK    2  A    between atoms: S_2  and  O_4 
REMARK    3  A    between atoms: O_3  and  C_11 
REMARK    4  A    between atoms: O_4  and  C_12 
REMARK    5  A    between atoms: C_9  and  C_10 
REMARK    6  A    between atoms: C_9  and  C_11 
REMARK    7  A    between atoms: C_10  and  C_12 
ROOT
HETATM    1  C   UNK N   1      25.675  28.168  -3.896  0.00  0.00     0.030 C 
ENDROOT
BRANCH   1   2
HETATM    2  C   UNK N   1      25.993  27.714  -5.309  0.00  0.00     0.030 C 
BRANCH   2   3
HETATM    3  C   UNK N   1      24.799  27.010  -5.924  0.00  0.00     0.190 C 
BRANCH   3   4
HETATM    4  O   UNK N   1      24.796  25.669  -5.520  0.00  0.00    -0.276 OA
BRANCH   4   5
HETATM    5  S   UNK N   1      26.296  25.019  -6.066  0.00  0.00     0.261 S 
HETATM    6  O   UNK N   1      25.361  24.460  -7.150  0.00  0.00    -0.199 OA
HETATM    7  O   UNK N   1      25.920  24.087  -4.901  0.00  0.00    -0.199 OA
HETATM    8  C   UNK N   1      26.844  23.311  -6.341  0.00  0.00     0.194 C 
ENDBRANCH   4   5
ENDBRANCH   3   4
ENDBRANCH   2   3
ENDBRANCH   1   2
BRANCH   1   9
HETATM    9  C   UNK N   1      26.666  29.223  -3.444  0.00  0.00     0.190 C 
BRANCH   9  10
HETATM   10  O   UNK N   1      27.106  28.912  -2.150  0.00  0.00    -0.276 OA
BRANCH  10  11
HETATM   11  S   UNK N   1      28.155  30.202  -1.692  0.00  0.00     0.261 S 
HETATM   12  O   UNK N   1      29.177  29.233  -2.310  0.00  0.00    -0.199 OA
HETATM   13  O   UNK N   1      27.902  29.484  -0.354  0.00  0.00    -0.199 OA
HETATM   14  C   UNK N   1      29.607  30.252  -0.605  0.00  0.00     0.194 C 
ENDBRANCH  10  11
ENDBRANCH   9  10
ENDBRANCH   1   9
TORSDOF 7
ENDMDL
MODEL 8
REMARK VINA RESULT:      -4.2     14.754     16.812
REMARK  7 active torsions:
REMARK  status: ('A' for Active; 'I' for Inactive)
REMARK    1  A    between atoms: S_1  and  O_3 
REMARK    2  A    between atoms: S_2  and  O_4 
REMARK    3  A    between atoms: O_3  and  C_11 
REMARK    4  A    between atoms: O_4  and  C_12 
REMARK    5  A    between atoms: C_9  and  C_10 
REMARK    6  A    between atoms: C_9  and  C_11 
REMARK    7  A    between atoms: C_10  and  C_12 
ROOT
HETATM    1  C   UNK N   1      34.553  14.772  11.044  0.00  0.00     0.030 C 
ENDROOT
BRANCH   1   2
HETATM    2  C   UNK N   1      35.291  16.001  10.550  0.00  0.00     0.030 C 
BRANCH   2   3
HETATM    3  C   UNK N   1      34.770  16.424   9.189  0.00  0.00     0.190 C 
BRANCH   3   4
HETATM    4  O   UNK N   1      34.336  17.754   9.255  0.00  0.00    -0.276 OA
BRANCH   4   5
HETATM    5  S   UNK N   1      33.315  17.976   7.884  0.00  0.00     0.261 S 
HETATM    6  O   UNK N   1      33.385  16.440   7.911  0.00  0.00    -0.199 OA
HETATM    7  O   UNK N   1      34.715  18.284   7.325  0.00  0.00    -0.199 OA
HETATM    8  C   UNK N   1      33.494  17.471   6.151  0.00  0.00     0.194 C 
ENDBRANCH   4   5
ENDBRANCH   3   4
ENDBRANCH   2   3
ENDBRANCH   1   2
BRANCH   1   9
HETATM    9  C   UNK N   1      35.418  13.988  12.012  0.00  0.00     0.190 C 
BRANCH   9  10
HETATM   10  O   UNK N   1      34.718  13.811  13.213  0.00  0.00    -0.276 OA
BRANCH  10  11
HETATM   11  S   UNK N   1      35.184  12.258  13.800  0.00  0.00     0.261 S 
HETATM   12  O   UNK N   1      34.476  12.814  15.047  0.00  0.00    -0.199 OA
HETATM   13  O   UNK N   1      36.499  13.055  13.878  0.00  0.00    -0.199 OA
HETATM   14  C   UNK N   1      36.204  11.756  15.215  0.00  0.00     0.194 C 
ENDBRANCH  10  11
ENDBRANCH   9  10
ENDBRANCH   1   9
TORSDOF 7
ENDMDL
MODEL 9
REMARK VINA RESULT:      -4.1     21.826     23.353
REMARK  7 active torsions:
REMARK  status: ('A' for Active; 'I' for Inactive)
REMARK    1  A    between atoms: S_1  and  O_3 
REMARK    2  A    between atoms: S_2  and  O_4 
REMARK    3  A    between atoms: O_3  and  C_11 
REMARK    4  A    between atoms: O_4  and  C_12 
REMARK    5  A    between atoms: C_9  and  C_10 
REMARK    6  A    between atoms: C_9  and  C_11 
REMARK    7  A    between atoms: C_10  and  C_12 
ROOT
HETATM    1  C   UNK N   1      43.996  21.916   3.906  0.00  0.00     0.030 C 
ENDROOT
BRANCH   1   2
HETATM    2  C   UNK N   1      43.077  20.729   3.689  0.00  0.00     0.030 C 
BRANCH   2   3
HETATM    3  C   UNK N   1      42.026  21.052   2.645  0.00  0.00     0.190 C 
BRANCH   3   4
HETATM    4  O   UNK N   1      40.806  20.480   3.027  0.00  0.00    -0.276 OA
BRANCH   4   5
HETATM    5  S   UNK N   1      39.729  20.767   1.712  0.00  0.00     0.261 S 
HETATM    6  O   UNK N   1      40.857  20.031   0.969  0.00  0.00    -0.199 OA
HETATM    7  O   UNK N   1      40.405  22.135   1.909  0.00  0.00    -0.199 OA
HETATM    8  C   UNK N   1      39.943  21.664   0.149  0.00  0.00     0.194 C 
ENDBRANCH   4   5
ENDBRANCH   3   4
ENDBRANCH   2   3
ENDBRANCH   1   2
BRANCH   1   9
HETATM    9  C   UNK N   1      43.560  23.087   3.045  0.00  0.00     0.190 C 
BRANCH   9  10
HETATM   10  O   UNK N   1      44.316  24.215   3.390  0.00  0.00    -0.276 OA
BRANCH  10  11
HETATM   11  S   UNK N   1      45.320  24.539   2.027  0.00  0.00     0.261 S 
HETATM   12  O   UNK N   1      45.366  25.908   2.723  0.00  0.00    -0.199 OA
HETATM   13  O   UNK N   1      43.905  24.607   1.425  0.00  0.00    -0.199 OA
HETATM   14  C   UNK N   1      45.201  25.773   0.702  0.00  0.00     0.194 C 
ENDBRANCH  10  11
ENDBRANCH   9  10
ENDBRANCH   1   9
TORSDOF 7
ENDMDL
