REMARK  7 active torsions:
REMARK  status: ('A' for Active; 'I' for Inactive)
REMARK    1  A    between atoms: S_1  and  O_3 
REMARK    2  A    between atoms: S_2  and  O_4 
REMARK    3  A    between atoms: O_3  and  C_11 
REMARK    4  A    between atoms: O_4  and  C_12 
REMARK    5  A    between atoms: C_9  and  C_10 
REMARK    6  A    between atoms: C_9  and  C_11 
REMARK    7  A    between atoms: C_10  and  C_12 
ROOT
HETATM    1  C   UNK N   1       5.353  -0.540   0.396  0.00  0.00     0.030 C 
ENDROOT
BRANCH   1   2
HETATM    2  C   UNK N   1       4.404   0.638   0.286  0.00  0.00     0.030 C 
BRANCH   2   3
HETATM    3  C   UNK N   1       3.181   0.263  -0.529  0.00  0.00     0.190 C 
BRANCH   3   4
HETATM    4  O   UNK N   1       2.028   0.529   0.220  0.00  0.00    -0.276 OA
BRANCH   4   5
HETATM    5  S   UNK N   1       0.737  -0.230  -0.633  0.00  0.00     0.261 S 
HETATM    6  O   UNK N   1      -0.061   0.800   0.184  0.00  0.00    -0.199 OA
HETATM    7  O   UNK N   1       1.058  -1.243   0.480  0.00  0.00    -0.199 OA
HETATM    8  C   UNK N   1      -0.739  -1.112  -0.054  0.00  0.00     0.194 C 
ENDBRANCH   4   5
ENDBRANCH   3   4
ENDBRANCH   2   3
ENDBRANCH   1   2
BRANCH   1   9
HETATM    9  C   UNK N   1       6.563  -0.330  -0.494  0.00  0.00     0.190 C 
BRANCH   9  10
HETATM   10  O   UNK N   1       7.725  -0.595   0.243  0.00  0.00    -0.276 OA
BRANCH  10  11
HETATM   11  S   UNK N   1       8.995   0.238  -0.573  0.00  0.00     0.261 S 
HETATM   12  O   UNK N   1       9.818  -0.780   0.233  0.00  0.00    -0.199 OA
HETATM   13  O   UNK N   1       8.624   1.216   0.556  0.00  0.00    -0.199 OA
HETATM   14  C   UNK N   1      10.439   1.146   0.045  0.00  0.00     0.194 C 
ENDBRANCH  10  11
ENDBRANCH   9  10
ENDBRANCH   1   9
TORSDOF 7
