REMARK  6 active torsions:
REMARK  status: ('A' for Active; 'I' for Inactive)
REMARK    1  A    between atoms: O_3  and  C_14 
REMARK    2  A    between atoms: O_3  and  C_23 
REMARK    3  A    between atoms: O_4  and  C_17 
REMARK    4  A    between atoms: C_8  and  C_11 
REMARK    5  A    between atoms: C_9  and  C_14 
REMARK    6  A    between atoms: C_10  and  C_17 
ROOT
HETATM    1  N   UNK N   1       5.340  -3.324  -0.029  0.00  0.00    -0.362 N 
HETATM    2  C   UNK N   1       5.360  -0.513   0.002  0.00  0.00     0.102 A 
HETATM    3  C   UNK N   1       4.053  -1.294  -0.246  0.00  0.00     0.052 A 
HETATM    4  C   UNK N   1       6.659  -1.317   0.221  0.00  0.00     0.052 A 
HETATM    5  C   UNK N   1       4.111  -2.651  -0.232  0.00  0.00     0.018 A 
HETATM    6  C   UNK N   1       6.581  -2.672   0.177  0.00  0.00     0.018 A 
HETATM    7  C   UNK N   1       2.909  -3.518  -0.453  0.00  0.00     0.069 C 
HETATM    8  C   UNK N   1       7.769  -3.559   0.394  0.00  0.00     0.069 C 
HETATM    9  H   UNK N   1       5.332  -4.308  -0.031  0.00  0.00     0.165 HD
ENDROOT
BRANCH   2  10
HETATM   10  C   UNK N   1       5.304   0.985   0.243  0.00  0.00    -0.021 A 
HETATM   11  C   UNK N   1       5.998   1.923  -0.563  0.00  0.00     0.063 A 
HETATM   12 Cl   UNK N   1       6.984   1.390  -1.929  0.00  0.00    -0.082 Cl
HETATM   13  C   UNK N   1       5.915   3.297  -0.256  0.00  0.00     0.056 A 
HETATM   14 Cl   UNK N   1       6.806   4.499  -1.177  0.00  0.00    -0.083 Cl
HETATM   15  C   UNK N   1       5.126   3.731   0.811  0.00  0.00     0.026 A 
HETATM   16  C   UNK N   1       4.428   2.811   1.589  0.00  0.00     0.002 A 
HETATM   17  C   UNK N   1       4.530   1.448   1.317  0.00  0.00     0.010 A 
ENDBRANCH   2  10
BRANCH   3  18
HETATM   18  C   UNK N   1       2.751  -0.565  -0.504  0.00  0.00     0.292 C 
HETATM   19  O   UNK N   1       2.752   0.631  -0.731  0.00  0.00    -0.259 OA
BRANCH  18  20
HETATM   20  O   UNK N   1       1.571  -1.243  -0.499  0.00  0.00    -0.318 OA
BRANCH  20  21
HETATM   21  C   UNK N   1       0.357  -0.627  -0.706  0.00  0.00     0.174 C 
HETATM   22  C   UNK N   1      -0.531  -0.839   0.504  0.00  0.00     0.034 C 
ENDBRANCH  20  21
ENDBRANCH  18  20
ENDBRANCH   3  18
BRANCH   4  23
HETATM   23  C   UNK N   1       7.977  -0.622   0.480  0.00  0.00     0.291 C 
HETATM   24  O   UNK N   1       8.005   0.549   0.804  0.00  0.00    -0.260 OA
BRANCH  23  25
HETATM   25  O   UNK N   1       9.147  -1.303   0.331  0.00  0.00    -0.323 OA
HETATM   26  C   UNK N   1      10.377  -0.698   0.452  0.00  0.00     0.213 C 
ENDBRANCH  23  25
ENDBRANCH   4  23
TORSDOF 6
