MODEL 1
REMARK VINA RESULT:      -5.9      0.000      0.000
REMARK  6 active torsions:
REMARK  status: ('A' for Active; 'I' for Inactive)
REMARK    1  A    between atoms: O_3  and  C_14 
REMARK    2  A    between atoms: O_3  and  C_23 
REMARK    3  A    between atoms: O_4  and  C_17 
REMARK    4  A    between atoms: C_8  and  C_11 
REMARK    5  A    between atoms: C_9  and  C_14 
REMARK    6  A    between atoms: C_10  and  C_17 
ROOT
HETATM    1  N   UNK N   1      30.635  20.746  -5.491  0.00  0.00    -0.362 N 
HETATM    2  C   UNK N   1      29.003  23.034  -5.561  0.00  0.00     0.102 A 
HETATM    3  C   UNK N   1      28.877  21.937  -6.638  0.00  0.00     0.052 A 
HETATM    4  C   UNK N   1      30.057  22.846  -4.450  0.00  0.00     0.052 A 
HETATM    5  C   UNK N   1      29.685  20.850  -6.536  0.00  0.00     0.018 A 
HETATM    6  C   UNK N   1      30.823  21.725  -4.485  0.00  0.00     0.018 A 
HETATM    7  C   UNK N   1      29.651  19.718  -7.517  0.00  0.00     0.069 C 
HETATM    8  C   UNK N   1      31.865  21.423  -3.452  0.00  0.00     0.069 C 
HETATM    9  H   UNK N   1      31.200  19.941  -5.462  0.00  0.00     0.165 HD
ENDROOT
BRANCH   2  10
HETATM   10  C   UNK N   1      27.962  24.137  -5.488  0.00  0.00    -0.021 A 
HETATM   11  C   UNK N   1      28.147  25.412  -6.081  0.00  0.00     0.063 A 
HETATM   12 Cl   UNK N   1      29.629  25.796  -6.962  0.00  0.00    -0.082 Cl
HETATM   13  C   UNK N   1      27.141  26.392  -5.945  0.00  0.00     0.056 A 
HETATM   14 Cl   UNK N   1      27.342  28.010  -6.599  0.00  0.00    -0.083 Cl
HETATM   15  C   UNK N   1      25.959  26.094  -5.264  0.00  0.00     0.026 A 
HETATM   16  C   UNK N   1      25.770  24.835  -4.701  0.00  0.00     0.002 A 
HETATM   17  C   UNK N   1      26.771  23.870  -4.798  0.00  0.00     0.010 A 
ENDBRANCH   2  10
BRANCH   3  18
HETATM   18  C   UNK N   1      27.888  22.078  -7.776  0.00  0.00     0.292 C 
HETATM   19  O   UNK N   1      28.164  22.756  -8.749  0.00  0.00    -0.259 OA
BRANCH  18  20
HETATM   20  O   UNK N   1      26.689  21.436  -7.727  0.00  0.00    -0.318 OA
BRANCH  20  21
HETATM   21  C   UNK N   1      25.485  22.103  -7.761  0.00  0.00     0.174 C 
HETATM   22  C   UNK N   1      24.478  21.374  -6.894  0.00  0.00     0.034 C 
ENDBRANCH  20  21
ENDBRANCH  18  20
ENDBRANCH   3  18
BRANCH   4  23
HETATM   23  C   UNK N   1      30.232  23.873  -3.353  0.00  0.00     0.291 C 
HETATM   24  O   UNK N   1      30.698  24.968  -3.600  0.00  0.00    -0.260 OA
BRANCH  23  25
HETATM   25  O   UNK N   1      29.886  23.567  -2.072  0.00  0.00    -0.323 OA
HETATM   26  C   UNK N   1      28.669  23.015  -1.745  0.00  0.00     0.213 C 
ENDBRANCH  23  25
ENDBRANCH   4  23
TORSDOF 6
ENDMDL
MODEL 2
REMARK VINA RESULT:      -5.9     11.902     14.228
REMARK  6 active torsions:
REMARK  status: ('A' for Active; 'I' for Inactive)
REMARK    1  A    between atoms: O_3  and  C_14 
REMARK    2  A    between atoms: O_3  and  C_23 
REMARK    3  A    between atoms: O_4  and  C_17 
REMARK    4  A    between atoms: C_8  and  C_11 
REMARK    5  A    between atoms: C_9  and  C_14 
REMARK    6  A    between atoms: C_10  and  C_17 
ROOT
HETATM    1  N   UNK N   1      19.948  17.987   0.588  0.00  0.00    -0.362 N 
HETATM    2  C   UNK N   1      20.845  16.931   3.034  0.00  0.00     0.102 A 
HETATM    3  C   UNK N   1      21.009  18.430   2.709  0.00  0.00     0.052 A 
HETATM    4  C   UNK N   1      20.186  16.024   1.974  0.00  0.00     0.052 A 
HETATM    5  C   UNK N   1      20.539  18.878   1.516  0.00  0.00     0.018 A 
HETATM    6  C   UNK N   1      19.790  16.596   0.807  0.00  0.00     0.018 A 
HETATM    7  C   UNK N   1      20.634  20.311   1.091  0.00  0.00     0.069 C 
HETATM    8  C   UNK N   1      19.121  15.823  -0.288  0.00  0.00     0.069 C 
HETATM    9  H   UNK N   1      19.626  18.358  -0.265  0.00  0.00     0.165 HD
ENDROOT
BRANCH   2  10
HETATM   10  C   UNK N   1      21.124  16.434   4.441  0.00  0.00    -0.021 A 
HETATM   11  C   UNK N   1      22.405  15.999   4.866  0.00  0.00     0.063 A 
HETATM   12 Cl   UNK N   1      23.783  16.019   3.760  0.00  0.00    -0.082 Cl
HETATM   13  C   UNK N   1      22.575  15.526   6.184  0.00  0.00     0.056 A 
HETATM   14 Cl   UNK N   1      24.122  14.913   6.747  0.00  0.00    -0.083 Cl
HETATM   15  C   UNK N   1      21.497  15.521   7.072  0.00  0.00     0.026 A 
HETATM   16  C   UNK N   1      20.244  15.968   6.659  0.00  0.00     0.002 A 
HETATM   17  C   UNK N   1      20.056  16.405   5.350  0.00  0.00     0.010 A 
ENDBRANCH   2  10
BRANCH   3  18
HETATM   18  C   UNK N   1      21.681  19.367   3.691  0.00  0.00     0.292 C 
HETATM   19  O   UNK N   1      21.016  19.989   4.499  0.00  0.00    -0.259 OA
BRANCH  18  20
HETATM   20  O   UNK N   1      23.034  19.511   3.688  0.00  0.00    -0.318 OA
BRANCH  20  21
HETATM   21  C   UNK N   1      23.676  20.506   2.986  0.00  0.00     0.174 C 
HETATM   22  C   UNK N   1      25.169  20.240   2.980  0.00  0.00     0.034 C 
ENDBRANCH  20  21
ENDBRANCH  18  20
ENDBRANCH   3  18
BRANCH   4  23
HETATM   23  C   UNK N   1      19.981  14.547   2.223  0.00  0.00     0.291 C 
HETATM   24  O   UNK N   1      18.906  14.127   2.603  0.00  0.00    -0.260 OA
BRANCH  23  25
HETATM   25  O   UNK N   1      21.013  13.676   2.044  0.00  0.00    -0.323 OA
HETATM   26  C   UNK N   1      22.026  13.904   1.140  0.00  0.00     0.213 C 
ENDBRANCH  23  25
ENDBRANCH   4  23
TORSDOF 6
ENDMDL
MODEL 3
REMARK VINA RESULT:      -5.8     12.306     14.177
REMARK  6 active torsions:
REMARK  status: ('A' for Active; 'I' for Inactive)
REMARK    1  A    between atoms: O_3  and  C_14 
REMARK    2  A    between atoms: O_3  and  C_23 
REMARK    3  A    between atoms: O_4  and  C_17 
REMARK    4  A    between atoms: C_8  and  C_11 
REMARK    5  A    between atoms: C_9  and  C_14 
REMARK    6  A    between atoms: C_10  and  C_17 
ROOT
HETATM    1  N   UNK N   1      19.956  17.970   0.649  0.00  0.00    -0.362 N 
HETATM    2  C   UNK N   1      20.822  16.732   3.020  0.00  0.00     0.102 A 
HETATM    3  C   UNK N   1      20.141  15.916   1.902  0.00  0.00     0.052 A 
HETATM    4  C   UNK N   1      21.004  18.249   2.806  0.00  0.00     0.052 A 
HETATM    5  C   UNK N   1      19.761  16.573   0.776  0.00  0.00     0.018 A 
HETATM    6  C   UNK N   1      20.549  18.785   1.644  0.00  0.00     0.018 A 
HETATM    7  C   UNK N   1      19.098  15.889  -0.380  0.00  0.00     0.069 C 
HETATM    8  C   UNK N   1      20.687  20.241   1.315  0.00  0.00     0.069 C 
HETATM    9  H   UNK N   1      19.662  18.402  -0.185  0.00  0.00     0.165 HD
ENDROOT
BRANCH   2  10
HETATM   10  C   UNK N   1      21.483  16.009   4.180  0.00  0.00    -0.021 A 
HETATM   11  C   UNK N   1      20.786  15.645   5.360  0.00  0.00     0.063 A 
HETATM   12 Cl   UNK N   1      19.069  16.013   5.549  0.00  0.00    -0.082 Cl
HETATM   13  C   UNK N   1      21.481  14.998   6.404  0.00  0.00     0.056 A 
HETATM   14 Cl   UNK N   1      20.687  14.583   7.915  0.00  0.00    -0.083 Cl
HETATM   15  C   UNK N   1      22.834  14.687   6.259  0.00  0.00     0.026 A 
HETATM   16  C   UNK N   1      23.512  15.026   5.091  0.00  0.00     0.002 A 
HETATM   17  C   UNK N   1      22.845  15.697   4.067  0.00  0.00     0.010 A 
ENDBRANCH   2  10
BRANCH   3  18
HETATM   18  C   UNK N   1      19.898  14.430   2.065  0.00  0.00     0.292 C 
HETATM   19  O   UNK N   1      18.788  14.016   2.343  0.00  0.00    -0.259 OA
BRANCH  18  20
HETATM   20  O   UNK N   1      20.916  13.544   1.886  0.00  0.00    -0.318 OA
BRANCH  20  21
HETATM   21  C   UNK N   1      21.539  13.360   0.672  0.00  0.00     0.174 C 
HETATM   22  C   UNK N   1      22.942  13.931   0.732  0.00  0.00     0.034 C 
ENDBRANCH  20  21
ENDBRANCH  18  20
ENDBRANCH   3  18
BRANCH   4  23
HETATM   23  C   UNK N   1      21.672  19.114   3.852  0.00  0.00     0.291 C 
HETATM   24  O   UNK N   1      21.006  19.743   4.650  0.00  0.00    -0.260 OA
BRANCH  23  25
HETATM   25  O   UNK N   1      23.030  19.208   3.892  0.00  0.00    -0.323 OA
HETATM   26  C   UNK N   1      23.724  20.197   3.232  0.00  0.00     0.213 C 
ENDBRANCH  23  25
ENDBRANCH   4  23
TORSDOF 6
ENDMDL
MODEL 4
REMARK VINA RESULT:      -5.7      1.869      5.033
REMARK  6 active torsions:
REMARK  status: ('A' for Active; 'I' for Inactive)
REMARK    1  A    between atoms: O_3  and  C_14 
REMARK    2  A    between atoms: O_3  and  C_23 
REMARK    3  A    between atoms: O_4  and  C_17 
REMARK    4  A    between atoms: C_8  and  C_11 
REMARK    5  A    between atoms: C_9  and  C_14 
REMARK    6  A    between atoms: C_10  and  C_17 
ROOT
HETATM    1  N   UNK N   1      28.467  21.384  -7.490  0.00  0.00    -0.362 N 
HETATM    2  C   UNK N   1      27.275  23.789  -6.654  0.00  0.00     0.102 A 
HETATM    3  C   UNK N   1      28.439  23.163  -5.859  0.00  0.00     0.052 A 
HETATM    4  C   UNK N   1      26.775  23.054  -7.915  0.00  0.00     0.052 A 
HETATM    5  C   UNK N   1      28.980  22.008  -6.327  0.00  0.00     0.018 A 
HETATM    6  C   UNK N   1      27.385  21.888  -8.253  0.00  0.00     0.018 A 
HETATM    7  C   UNK N   1      30.117  21.309  -5.646  0.00  0.00     0.069 C 
HETATM    8  C   UNK N   1      27.001  21.094  -9.464  0.00  0.00     0.069 C 
HETATM    9  H   UNK N   1      28.890  20.547  -7.788  0.00  0.00     0.165 HD
ENDROOT
BRANCH   2  10
HETATM   10  C   UNK N   1      26.808  25.194  -6.317  0.00  0.00    -0.021 A 
HETATM   11  C   UNK N   1      27.525  26.358  -6.693  0.00  0.00     0.063 A 
HETATM   12 Cl   UNK N   1      29.036  26.237  -7.602  0.00  0.00    -0.082 Cl
HETATM   13  C   UNK N   1      27.036  27.626  -6.318  0.00  0.00     0.056 A 
HETATM   14 Cl   UNK N   1      27.916  29.099  -6.697  0.00  0.00    -0.083 Cl
HETATM   15  C   UNK N   1      25.835  27.735  -5.614  0.00  0.00     0.026 A 
HETATM   16  C   UNK N   1      25.120  26.592  -5.264  0.00  0.00     0.002 A 
HETATM   17  C   UNK N   1      25.611  25.332  -5.598  0.00  0.00     0.010 A 
ENDBRANCH   2  10
BRANCH   3  18
HETATM   18  C   UNK N   1      28.953  23.815  -4.592  0.00  0.00     0.292 C 
HETATM   19  O   UNK N   1      28.441  23.558  -3.518  0.00  0.00    -0.259 OA
BRANCH  18  20
HETATM   20  O   UNK N   1      30.000  24.683  -4.642  0.00  0.00    -0.318 OA
BRANCH  20  21
HETATM   21  C   UNK N   1      30.744  25.018  -3.533  0.00  0.00     0.174 C 
HETATM   22  C   UNK N   1      30.899  26.524  -3.464  0.00  0.00     0.034 C 
ENDBRANCH  20  21
ENDBRANCH  18  20
ENDBRANCH   3  18
BRANCH   4  23
HETATM   23  C   UNK N   1      25.646  23.611  -8.752  0.00  0.00     0.291 C 
HETATM   24  O   UNK N   1      24.495  23.287  -8.532  0.00  0.00    -0.260 OA
BRANCH  23  25
HETATM   25  O   UNK N   1      25.915  24.469  -9.775  0.00  0.00    -0.323 OA
HETATM   26  C   UNK N   1      25.524  25.788  -9.758  0.00  0.00     0.213 C 
ENDBRANCH  23  25
ENDBRANCH   4  23
TORSDOF 6
ENDMDL
MODEL 5
REMARK VINA RESULT:      -5.7      1.609      4.663
REMARK  6 active torsions:
REMARK  status: ('A' for Active; 'I' for Inactive)
REMARK    1  A    between atoms: O_3  and  C_14 
REMARK    2  A    between atoms: O_3  and  C_23 
REMARK    3  A    between atoms: O_4  and  C_17 
REMARK    4  A    between atoms: C_8  and  C_11 
REMARK    5  A    between atoms: C_9  and  C_14 
REMARK    6  A    between atoms: C_10  and  C_17 
ROOT
HETATM    1  N   UNK N   1      29.847  21.640  -6.200  0.00  0.00    -0.362 N 
HETATM    2  C   UNK N   1      28.417  23.852  -5.219  0.00  0.00     0.102 A 
HETATM    3  C   UNK N   1      29.798  23.481  -4.641  0.00  0.00     0.052 A 
HETATM    4  C   UNK N   1      27.836  22.968  -6.342  0.00  0.00     0.052 A 
HETATM    5  C   UNK N   1      30.442  22.410  -5.171  0.00  0.00     0.018 A 
HETATM    6  C   UNK N   1      28.572  21.906  -6.758  0.00  0.00     0.018 A 
HETATM    7  C   UNK N   1      31.790  21.956  -4.699  0.00  0.00     0.069 C 
HETATM    8  C   UNK N   1      28.123  20.988  -7.853  0.00  0.00     0.069 C 
HETATM    9  H   UNK N   1      30.351  20.870  -6.550  0.00  0.00     0.165 HD
ENDROOT
BRANCH   2  10
HETATM   10  C   UNK N   1      27.775  25.174  -4.837  0.00  0.00    -0.021 A 
HETATM   11  C   UNK N   1      27.987  26.373  -5.564  0.00  0.00     0.063 A 
HETATM   12 Cl   UNK N   1      29.028  26.396  -6.991  0.00  0.00    -0.082 Cl
HETATM   13  C   UNK N   1      27.374  27.566  -5.128  0.00  0.00     0.056 A 
HETATM   14 Cl   UNK N   1      27.653  29.095  -5.948  0.00  0.00    -0.083 Cl
HETATM   15  C   UNK N   1      26.537  27.557  -4.010  0.00  0.00     0.026 A 
HETATM   16  C   UNK N   1      26.312  26.375  -3.310  0.00  0.00     0.002 A 
HETATM   17  C   UNK N   1      26.940  25.197  -3.710  0.00  0.00     0.010 A 
ENDBRANCH   2  10
BRANCH   3  18
HETATM   18  C   UNK N   1      30.408  24.286  -3.512  0.00  0.00     0.292 C 
HETATM   19  O   UNK N   1      30.252  23.938  -2.356  0.00  0.00    -0.259 OA
BRANCH  18  20
HETATM   20  O   UNK N   1      31.148  25.396  -3.781  0.00  0.00    -0.318 OA
BRANCH  20  21
HETATM   21  C   UNK N   1      30.813  26.646  -3.313  0.00  0.00     0.174 C 
HETATM   22  C   UNK N   1      31.224  27.694  -4.328  0.00  0.00     0.034 C 
ENDBRANCH  20  21
ENDBRANCH  18  20
ENDBRANCH   3  18
BRANCH   4  23
HETATM   23  C   UNK N   1      26.492  23.275  -6.965  0.00  0.00     0.291 C 
HETATM   24  O   UNK N   1      26.409  24.033  -7.912  0.00  0.00    -0.260 OA
BRANCH  23  25
HETATM   25  O   UNK N   1      25.361  22.716  -6.454  0.00  0.00    -0.323 OA
HETATM   26  C   UNK N   1      24.694  21.688  -7.080  0.00  0.00     0.213 C 
ENDBRANCH  23  25
ENDBRANCH   4  23
TORSDOF 6
ENDMDL
MODEL 6
REMARK VINA RESULT:      -5.7      1.822      4.233
REMARK  6 active torsions:
REMARK  status: ('A' for Active; 'I' for Inactive)
REMARK    1  A    between atoms: O_3  and  C_14 
REMARK    2  A    between atoms: O_3  and  C_23 
REMARK    3  A    between atoms: O_4  and  C_17 
REMARK    4  A    between atoms: C_8  and  C_11 
REMARK    5  A    between atoms: C_9  and  C_14 
REMARK    6  A    between atoms: C_10  and  C_17 
ROOT
HETATM    1  N   UNK N   1      30.507  21.789  -3.768  0.00  0.00    -0.362 N 
HETATM    2  C   UNK N   1      28.584  22.816  -5.543  0.00  0.00     0.102 A 
HETATM    3  C   UNK N   1      28.642  23.289  -4.076  0.00  0.00     0.052 A 
HETATM    4  C   UNK N   1      29.604  21.755  -6.007  0.00  0.00     0.052 A 
HETATM    5  C   UNK N   1      29.607  22.764  -3.276  0.00  0.00     0.018 A 
HETATM    6  C   UNK N   1      30.494  21.289  -5.094  0.00  0.00     0.018 A 
HETATM    7  C   UNK N   1      29.768  23.149  -1.837  0.00  0.00     0.069 C 
HETATM    8  C   UNK N   1      31.543  20.273  -5.431  0.00  0.00     0.069 C 
HETATM    9  H   UNK N   1      31.186  21.435  -3.150  0.00  0.00     0.165 HD
ENDROOT
BRANCH   2  10
HETATM   10  C   UNK N   1      27.696  23.549  -6.532  0.00  0.00    -0.021 A 
HETATM   11  C   UNK N   1      28.103  24.727  -7.210  0.00  0.00     0.063 A 
HETATM   12 Cl   UNK N   1      29.706  25.420  -6.941  0.00  0.00    -0.082 Cl
HETATM   13  C   UNK N   1      27.207  25.363  -8.094  0.00  0.00     0.056 A 
HETATM   14 Cl   UNK N   1      27.630  26.860  -8.910  0.00  0.00    -0.083 Cl
HETATM   15  C   UNK N   1      25.944  24.815  -8.327  0.00  0.00     0.026 A 
HETATM   16  C   UNK N   1      25.553  23.648  -7.678  0.00  0.00     0.002 A 
HETATM   17  C   UNK N   1      26.416  23.029  -6.775  0.00  0.00     0.010 A 
ENDBRANCH   2  10
BRANCH   3  18
HETATM   18  C   UNK N   1      27.648  24.302  -3.547  0.00  0.00     0.292 C 
HETATM   19  O   UNK N   1      26.699  23.938  -2.878  0.00  0.00    -0.259 OA
BRANCH  18  20
HETATM   20  O   UNK N   1      27.815  25.628  -3.804  0.00  0.00    -0.318 OA
BRANCH  20  21
HETATM   21  C   UNK N   1      26.820  26.557  -3.600  0.00  0.00     0.174 C 
HETATM   22  C   UNK N   1      26.038  26.752  -4.884  0.00  0.00     0.034 C 
ENDBRANCH  20  21
ENDBRANCH  18  20
ENDBRANCH   3  18
BRANCH   4  23
HETATM   23  C   UNK N   1      29.615  21.249  -7.433  0.00  0.00     0.291 C 
HETATM   24  O   UNK N   1      30.322  21.776  -8.269  0.00  0.00    -0.260 OA
BRANCH  23  25
HETATM   25  O   UNK N   1      28.814  20.209  -7.793  0.00  0.00    -0.323 OA
HETATM   26  C   UNK N   1      29.264  18.910  -7.845  0.00  0.00     0.213 C 
ENDBRANCH  23  25
ENDBRANCH   4  23
TORSDOF 6
ENDMDL
MODEL 7
REMARK VINA RESULT:      -5.6      3.273      6.221
REMARK  6 active torsions:
REMARK  status: ('A' for Active; 'I' for Inactive)
REMARK    1  A    between atoms: O_3  and  C_14 
REMARK    2  A    between atoms: O_3  and  C_23 
REMARK    3  A    between atoms: O_4  and  C_17 
REMARK    4  A    between atoms: C_8  and  C_11 
REMARK    5  A    between atoms: C_9  and  C_14 
REMARK    6  A    between atoms: C_10  and  C_17 
ROOT
HETATM    1  N   UNK N   1      28.335  27.923  -3.763  0.00  0.00    -0.362 N 
HETATM    2  C   UNK N   1      28.807  25.363  -4.825  0.00  0.00     0.102 A 
HETATM    3  C   UNK N   1      29.911  26.440  -4.831  0.00  0.00     0.052 A 
HETATM    4  C   UNK N   1      27.432  25.733  -4.231  0.00  0.00     0.052 A 
HETATM    5  C   UNK N   1      29.622  27.651  -4.288  0.00  0.00     0.018 A 
HETATM    6  C   UNK N   1      27.267  26.992  -3.749  0.00  0.00     0.018 A 
HETATM    7  C   UNK N   1      30.612  28.773  -4.229  0.00  0.00     0.069 C 
HETATM    8  C   UNK N   1      25.985  27.461  -3.131  0.00  0.00     0.069 C 
HETATM    9  H   UNK N   1      28.172  28.816  -3.383  0.00  0.00     0.165 HD
ENDROOT
BRANCH   2  10
HETATM   10  C   UNK N   1      29.155  23.931  -5.189  0.00  0.00    -0.021 A 
HETATM   11  C   UNK N   1      29.789  23.038  -4.288  0.00  0.00     0.063 A 
HETATM   12 Cl   UNK N   1      30.213  23.550  -2.651  0.00  0.00    -0.082 Cl
HETATM   13  C   UNK N   1      30.102  21.730  -4.713  0.00  0.00     0.056 A 
HETATM   14 Cl   UNK N   1      30.947  20.601  -3.664  0.00  0.00    -0.083 Cl
HETATM   15  C   UNK N   1      29.757  21.308  -5.999  0.00  0.00     0.026 A 
HETATM   16  C   UNK N   1      29.116  22.179  -6.876  0.00  0.00     0.002 A 
HETATM   17  C   UNK N   1      28.832  23.485  -6.479  0.00  0.00     0.010 A 
ENDBRANCH   2  10
BRANCH   3  18
HETATM   18  C   UNK N   1      31.271  26.153  -5.433  0.00  0.00     0.292 C 
HETATM   19  O   UNK N   1      31.468  26.339  -6.620  0.00  0.00    -0.259 OA
BRANCH  18  20
HETATM   20  O   UNK N   1      32.288  25.700  -4.649  0.00  0.00    -0.318 OA
BRANCH  20  21
HETATM   21  C   UNK N   1      33.429  25.130  -5.166  0.00  0.00     0.174 C 
HETATM   22  C   UNK N   1      33.287  23.621  -5.163  0.00  0.00     0.034 C 
ENDBRANCH  20  21
ENDBRANCH  18  20
ENDBRANCH   3  18
BRANCH   4  23
HETATM   23  C   UNK N   1      26.303  24.727  -4.180  0.00  0.00     0.291 C 
HETATM   24  O   UNK N   1      26.208  23.951  -3.250  0.00  0.00    -0.260 OA
BRANCH  23  25
HETATM   25  O   UNK N   1      25.394  24.673  -5.193  0.00  0.00    -0.323 OA
HETATM   26  C   UNK N   1      25.608  25.271  -6.413  0.00  0.00     0.213 C 
ENDBRANCH  23  25
ENDBRANCH   4  23
TORSDOF 6
ENDMDL
MODEL 8
REMARK VINA RESULT:      -5.6     14.605     17.102
REMARK  6 active torsions:
REMARK  status: ('A' for Active; 'I' for Inactive)
REMARK    1  A    between atoms: O_3  and  C_14 
REMARK    2  A    between atoms: O_3  and  C_23 
REMARK    3  A    between atoms: O_4  and  C_17 
REMARK    4  A    between atoms: C_8  and  C_11 
REMARK    5  A    between atoms: C_9  and  C_14 
REMARK    6  A    between atoms: C_10  and  C_17 
ROOT
HETATM    1  N   UNK N   1      20.353  14.983   9.351  0.00  0.00    -0.362 N 
HETATM    2  C   UNK N   1      22.178  15.102   7.216  0.00  0.00     0.102 A 
HETATM    3  C   UNK N   1      22.193  13.920   8.207  0.00  0.00     0.052 A 
HETATM    4  C   UNK N   1      21.141  16.224   7.436  0.00  0.00     0.052 A 
HETATM    5  C   UNK N   1      21.274  13.917   9.207  0.00  0.00     0.018 A 
HETATM    6  C   UNK N   1      20.300  16.111   8.497  0.00  0.00     0.018 A 
HETATM    7  C   UNK N   1      21.185  12.821  10.225  0.00  0.00     0.069 C 
HETATM    8  C   UNK N   1      19.240  17.126   8.801  0.00  0.00     0.069 C 
HETATM    9  H   UNK N   1      19.709  14.937  10.093  0.00  0.00     0.165 HD
ENDROOT
BRANCH   2  10
HETATM   10  C   UNK N   1      23.011  15.030   5.949  0.00  0.00    -0.021 A 
HETATM   11  C   UNK N   1      22.573  14.368   4.774  0.00  0.00     0.063 A 
HETATM   12 Cl   UNK N   1      20.993  13.579   4.714  0.00  0.00    -0.082 Cl
HETATM   13  C   UNK N   1      23.419  14.323   3.646  0.00  0.00     0.056 A 
HETATM   14 Cl   UNK N   1      22.958  13.460   2.187  0.00  0.00    -0.083 Cl
HETATM   15  C   UNK N   1      24.662  14.957   3.677  0.00  0.00     0.026 A 
HETATM   16  C   UNK N   1      25.083  15.624   4.824  0.00  0.00     0.002 A 
HETATM   17  C   UNK N   1      24.271  15.646   5.956  0.00  0.00     0.010 A 
ENDBRANCH   2  10
BRANCH   3  18
HETATM   18  C   UNK N   1      23.209  12.805   8.068  0.00  0.00     0.292 C 
HETATM   19  O   UNK N   1      22.869  11.715   7.648  0.00  0.00    -0.259 OA
BRANCH  18  20
HETATM   20  O   UNK N   1      24.512  13.018   8.398  0.00  0.00    -0.318 OA
BRANCH  20  21
HETATM   21  C   UNK N   1      24.912  13.361   9.671  0.00  0.00     0.174 C 
HETATM   22  C   UNK N   1      24.688  12.189  10.605  0.00  0.00     0.034 C 
ENDBRANCH  20  21
ENDBRANCH  18  20
ENDBRANCH   3  18
BRANCH   4  23
HETATM   23  C   UNK N   1      21.058  17.410   6.501  0.00  0.00     0.291 C 
HETATM   24  O   UNK N   1      21.522  18.486   6.825  0.00  0.00    -0.260 OA
BRANCH  23  25
HETATM   25  O   UNK N   1      20.443  17.283   5.293  0.00  0.00    -0.323 OA
HETATM   26  C   UNK N   1      21.044  17.657   4.112  0.00  0.00     0.213 C 
ENDBRANCH  23  25
ENDBRANCH   4  23
TORSDOF 6
ENDMDL
MODEL 9
REMARK VINA RESULT:      -5.5     12.725     15.748
REMARK  6 active torsions:
REMARK  status: ('A' for Active; 'I' for Inactive)
REMARK    1  A    between atoms: O_3  and  C_14 
REMARK    2  A    between atoms: O_3  and  C_23 
REMARK    3  A    between atoms: O_4  and  C_17 
REMARK    4  A    between atoms: C_8  and  C_11 
REMARK    5  A    between atoms: C_9  and  C_14 
REMARK    6  A    between atoms: C_10  and  C_17 
ROOT
HETATM    1  N   UNK N   1      30.974  17.482   4.214  0.00  0.00    -0.362 N 
HETATM    2  C   UNK N   1      31.989  16.245   6.525  0.00  0.00     0.102 A 
HETATM    3  C   UNK N   1      32.690  16.075   5.162  0.00  0.00     0.052 A 
HETATM    4  C   UNK N   1      30.708  17.103   6.584  0.00  0.00     0.052 A 
HETATM    5  C   UNK N   1      32.156  16.713   4.088  0.00  0.00     0.018 A 
HETATM    6  C   UNK N   1      30.263  17.658   5.427  0.00  0.00     0.018 A 
HETATM    7  C   UNK N   1      32.750  16.630   2.715  0.00  0.00     0.069 C 
HETATM    8  C   UNK N   1      29.043  18.526   5.361  0.00  0.00     0.069 C 
HETATM    9  H   UNK N   1      30.623  17.922   3.407  0.00  0.00     0.165 HD
ENDROOT
BRANCH   2  10
HETATM   10  C   UNK N   1      32.679  15.763   7.789  0.00  0.00    -0.021 A 
HETATM   11  C   UNK N   1      33.576  16.570   8.534  0.00  0.00     0.063 A 
HETATM   12 Cl   UNK N   1      33.944  18.223   8.027  0.00  0.00    -0.082 Cl
HETATM   13  C   UNK N   1      34.197  16.038   9.683  0.00  0.00     0.056 A 
HETATM   14 Cl   UNK N   1      35.368  16.967  10.608  0.00  0.00    -0.083 Cl
HETATM   15  C   UNK N   1      33.902  14.740  10.102  0.00  0.00     0.026 A 
HETATM   16  C   UNK N   1      33.005  13.955   9.382  0.00  0.00     0.002 A 
HETATM   17  C   UNK N   1      32.412  14.458   8.225  0.00  0.00     0.010 A 
ENDBRANCH   2  10
BRANCH   3  18
HETATM   18  C   UNK N   1      33.931  15.217   5.030  0.00  0.00     0.292 C 
HETATM   19  O   UNK N   1      33.871  14.134   4.477  0.00  0.00    -0.259 OA
BRANCH  18  20
HETATM   20  O   UNK N   1      35.125  15.655   5.513  0.00  0.00    -0.318 OA
BRANCH  20  21
HETATM   21  C   UNK N   1      36.201  14.819   5.712  0.00  0.00     0.174 C 
HETATM   22  C   UNK N   1      36.150  14.253   7.117  0.00  0.00     0.034 C 
ENDBRANCH  20  21
ENDBRANCH  18  20
ENDBRANCH   3  18
BRANCH   4  23
HETATM   23  C   UNK N   1      29.970  17.324   7.886  0.00  0.00     0.291 C 
HETATM   24  O   UNK N   1      28.928  16.741   8.112  0.00  0.00    -0.260 OA
BRANCH  23  25
HETATM   25  O   UNK N   1      30.463  18.197   8.808  0.00  0.00    -0.323 OA
HETATM   26  C   UNK N   1      29.690  18.720   9.819  0.00  0.00     0.213 C 
ENDBRANCH  23  25
ENDBRANCH   4  23
TORSDOF 6
ENDMDL
