MODEL 1
REMARK VINA RESULT:      -7.6      0.000      0.000
REMARK  4 active torsions:
REMARK  status: ('A' for Active; 'I' for Inactive)
REMARK    1  A    between atoms: O_3  and  C_23 
REMARK    2  A    between atoms: N_7  and  C_22 
REMARK    3  A    between atoms: C_8  and  C_9 
REMARK    4  A    between atoms: C_21  and  C_23 
ROOT
HETATM    1  O   UNK N   1      20.284  15.367   4.242  0.00  0.00    -0.292 OA
HETATM    2  O   UNK N   1      21.520  18.307   6.636  0.00  0.00    -0.286 OA
HETATM    3  N   UNK N   1      20.187  16.814   2.418  0.00  0.00    -0.322 N 
ATOM      4  HN  UNK N   1      19.847  16.045   1.840  1.00  0.00     0.169 HD
HETATM    5  C   UNK N   1      21.193  14.474   8.189  0.00  0.00    -0.054 A 
HETATM    6  C   UNK N   1      20.990  16.105   6.395  0.00  0.00     0.049 A 
HETATM    7  C   UNK N   1      21.294  15.793   7.724  0.00  0.00     0.026 A 
HETATM    8  C   UNK N   1      20.557  15.088   5.514  0.00  0.00     0.092 A 
HETATM    9  C   UNK N   1      20.771  13.468   7.306  0.00  0.00     0.010 A 
HETATM   10  C   UNK N   1      20.874  17.649   4.553  0.00  0.00     0.067 A 
HETATM   11  C   UNK N   1      21.138  17.406   5.902  0.00  0.00     0.199 A 
HETATM   12  C   UNK N   1      20.444  13.774   5.980  0.00  0.00     0.039 A 
HETATM   13  C   UNK N   1      20.432  16.592   3.735  0.00  0.00     0.164 A 
HETATM   14  C   UNK N   1      21.074  18.908   3.988  0.00  0.00     0.042 A 
HETATM   15  C   UNK N   1      20.851  19.119   2.627  0.00  0.00     0.082 A 
HETATM   16  C   UNK N   1      20.382  18.036   1.843  0.00  0.00     0.117 A 
ENDROOT
BRANCH  15  17
HETATM   17  C   UNK N   1      21.147  20.461   2.066  0.00  0.00     0.179 C 
HETATM   18  O   UNK N   1      21.495  20.596   0.904  0.00  0.00    -0.646 OA
BRANCH  17  19
HETATM   19  O   UNK N   1      21.067  21.550   2.858  0.00  0.00    -0.773 OA
HETATM   20  H   UNK N   1      20.319  21.676   3.409  0.00  0.00     0.167 HD
ENDBRANCH  17  19
ENDBRANCH  15  17
BRANCH  16  21
HETATM   21  N   UNK N   1      20.134  18.190   0.463  0.00  0.00    -0.385 N 
HETATM   22  H   UNK N   1      20.831  18.559  -0.125  0.00  0.00     0.157 HD
HETATM   23  H   UNK N   1      19.261  17.928   0.089  0.00  0.00     0.157 HD
ENDBRANCH  16  21
BRANCH   5  24
HETATM   24  C   UNK N   1      21.571  14.113   9.606  0.00  0.00     0.010 C 
HETATM   25  C   UNK N   1      22.889  13.364   9.646  0.00  0.00     0.015 C 
HETATM   26  C   UNK N   1      20.514  13.285  10.327  0.00  0.00     0.015 C 
ENDBRANCH   5  24
TORSDOF 4
ENDMDL
MODEL 2
REMARK VINA RESULT:      -7.2     15.830     17.867
REMARK  4 active torsions:
REMARK  status: ('A' for Active; 'I' for Inactive)
REMARK    1  A    between atoms: O_3  and  C_23 
REMARK    2  A    between atoms: N_7  and  C_22 
REMARK    3  A    between atoms: C_8  and  C_9 
REMARK    4  A    between atoms: C_21  and  C_23 
ROOT
HETATM    1  O   UNK N   1      34.496  11.320  14.050  0.00  0.00    -0.292 OA
HETATM    2  O   UNK N   1      36.450  14.296  15.846  0.00  0.00    -0.286 OA
HETATM    3  N   UNK N   1      34.533  12.449  12.012  0.00  0.00    -0.322 N 
ATOM      4  HN  UNK N   1      34.010  11.681  11.590  1.00  0.00     0.169 HD
HETATM    5  C   UNK N   1      35.524  10.904  18.048  0.00  0.00    -0.054 A 
HETATM    6  C   UNK N   1      35.495  12.235  16.011  0.00  0.00     0.049 A 
HETATM    7  C   UNK N   1      35.837  12.085  17.359  0.00  0.00     0.026 A 
HETATM    8  C   UNK N   1      34.809  11.199  15.339  0.00  0.00     0.092 A 
HETATM    9  C   UNK N   1      34.851   9.875  17.370  0.00  0.00     0.010 A 
HETATM   10  C   UNK N   1      35.531  13.458  13.939  0.00  0.00     0.067 A 
HETATM   11  C   UNK N   1      35.848  13.385  15.297  0.00  0.00     0.199 A 
HETATM   12  C   UNK N   1      34.486  10.026  16.027  0.00  0.00     0.039 A 
HETATM   13  C   UNK N   1      34.833  12.394  13.335  0.00  0.00     0.164 A 
HETATM   14  C   UNK N   1      35.921  14.545  13.158  0.00  0.00     0.042 A 
HETATM   15  C   UNK N   1      35.636  14.577  11.792  0.00  0.00     0.082 A 
HETATM   16  C   UNK N   1      34.911  13.499  11.227  0.00  0.00     0.117 A 
ENDROOT
BRANCH  15  17
HETATM   17  C   UNK N   1      36.138  15.726  10.997  0.00  0.00     0.179 C 
HETATM   18  O   UNK N   1      35.403  16.652  10.696  0.00  0.00    -0.646 OA
BRANCH  17  19
HETATM   19  O   UNK N   1      37.416  15.734  10.565  0.00  0.00    -0.773 OA
HETATM   20  H   UNK N   1      38.113  15.918  11.165  0.00  0.00     0.167 HD
ENDBRANCH  17  19
ENDBRANCH  15  17
BRANCH  16  21
HETATM   21  N   UNK N   1      34.589  13.478   9.854  0.00  0.00    -0.385 N 
HETATM   22  H   UNK N   1      35.303  13.551   9.180  0.00  0.00     0.157 HD
HETATM   23  H   UNK N   1      33.650  13.390   9.571  0.00  0.00     0.157 HD
ENDBRANCH  16  21
BRANCH   5  24
HETATM   24  C   UNK N   1      35.936  10.705  19.487  0.00  0.00     0.010 C 
HETATM   25  C   UNK N   1      36.960   9.594  19.613  0.00  0.00     0.015 C 
HETATM   26  C   UNK N   1      34.769  10.404  20.419  0.00  0.00     0.015 C 
ENDBRANCH   5  24
TORSDOF 4
ENDMDL
MODEL 3
REMARK VINA RESULT:      -6.9      4.624      5.951
REMARK  4 active torsions:
REMARK  status: ('A' for Active; 'I' for Inactive)
REMARK    1  A    between atoms: O_3  and  C_23 
REMARK    2  A    between atoms: N_7  and  C_22 
REMARK    3  A    between atoms: C_8  and  C_9 
REMARK    4  A    between atoms: C_21  and  C_23 
ROOT
HETATM    1  O   UNK N   1      24.637  20.444   3.498  0.00  0.00    -0.292 OA
HETATM    2  O   UNK N   1      24.057  16.868   5.163  0.00  0.00    -0.286 OA
HETATM    3  N   UNK N   1      22.484  20.443   2.605  0.00  0.00    -0.322 N 
ATOM      4  HN  UNK N   1      22.675  21.346   2.172  1.00  0.00     0.169 HD
HETATM    5  C   UNK N   1      27.658  18.818   5.830  0.00  0.00    -0.054 A 
HETATM    6  C   UNK N   1      25.446  18.642   4.830  0.00  0.00     0.049 A 
HETATM    7  C   UNK N   1      26.471  18.102   5.615  0.00  0.00     0.026 A 
HETATM    8  C   UNK N   1      25.612  19.910   4.230  0.00  0.00     0.092 A 
HETATM    9  C   UNK N   1      27.811  20.082   5.239  0.00  0.00     0.010 A 
HETATM   10  C   UNK N   1      23.227  18.573   3.903  0.00  0.00     0.067 A 
HETATM   11  C   UNK N   1      24.236  17.963   4.650  0.00  0.00     0.199 A 
HETATM   12  C   UNK N   1      26.799  20.620   4.434  0.00  0.00     0.039 A 
HETATM   13  C   UNK N   1      23.465  19.834   3.321  0.00  0.00     0.164 A 
HETATM   14  C   UNK N   1      21.974  17.980   3.751  0.00  0.00     0.042 A 
HETATM   15  C   UNK N   1      20.963  18.629   3.041  0.00  0.00     0.082 A 
HETATM   16  C   UNK N   1      21.250  19.883   2.449  0.00  0.00     0.117 A 
ENDROOT
BRANCH  15  17
HETATM   17  C   UNK N   1      19.628  17.982   2.971  0.00  0.00     0.179 C 
HETATM   18  O   UNK N   1      19.222  17.276   3.878  0.00  0.00    -0.646 OA
BRANCH  17  19
HETATM   19  O   UNK N   1      18.863  18.145   1.872  0.00  0.00    -0.773 OA
HETATM   20  H   UNK N   1      19.048  17.656   1.094  0.00  0.00     0.167 HD
ENDBRANCH  17  19
ENDBRANCH  15  17
BRANCH  16  21
HETATM   21  N   UNK N   1      20.269  20.584   1.716  0.00  0.00    -0.385 N 
HETATM   22  H   UNK N   1      19.656  20.095   1.121  0.00  0.00     0.157 HD
HETATM   23  H   UNK N   1      20.200  21.562   1.799  0.00  0.00     0.157 HD
ENDBRANCH  16  21
BRANCH   5  24
HETATM   24  C   UNK N   1      28.749  18.273   6.720  0.00  0.00     0.010 C 
HETATM   25  C   UNK N   1      28.898  16.774   6.547  0.00  0.00     0.015 C 
HETATM   26  C   UNK N   1      28.540  18.579   8.198  0.00  0.00     0.015 C 
ENDBRANCH   5  24
TORSDOF 4
ENDMDL
MODEL 4
REMARK VINA RESULT:      -6.9     13.313     15.333
REMARK  4 active torsions:
REMARK  status: ('A' for Active; 'I' for Inactive)
REMARK    1  A    between atoms: O_3  and  C_23 
REMARK    2  A    between atoms: N_7  and  C_22 
REMARK    3  A    between atoms: C_8  and  C_9 
REMARK    4  A    between atoms: C_21  and  C_23 
ROOT
HETATM    1  O   UNK N   1      35.679  15.657  11.885  0.00  0.00    -0.292 OA
HETATM    2  O   UNK N   1      34.123  12.716   9.687  0.00  0.00    -0.286 OA
HETATM    3  N   UNK N   1      35.288  17.209  10.192  0.00  0.00    -0.322 N 
ATOM      4  HN  UNK N   1      35.715  17.932  10.770  1.00  0.00     0.169 HD
HETATM    5  C   UNK N   1      35.390  11.866  13.545  0.00  0.00    -0.054 A 
HETATM    6  C   UNK N   1      35.066  13.366  11.656  0.00  0.00     0.049 A 
HETATM    7  C   UNK N   1      34.972  12.091  12.225  0.00  0.00     0.026 A 
HETATM    8  C   UNK N   1      35.604  14.434  12.407  0.00  0.00     0.092 A 
HETATM    9  C   UNK N   1      35.915  12.935  14.288  0.00  0.00     0.010 A 
HETATM   10  C   UNK N   1      34.670  14.920   9.862  0.00  0.00     0.067 A 
HETATM   11  C   UNK N   1      34.604  13.617  10.360  0.00  0.00     0.199 A 
HETATM   12  C   UNK N   1      36.032  14.209  13.719  0.00  0.00     0.039 A 
HETATM   13  C   UNK N   1      35.232  15.935  10.660  0.00  0.00     0.164 A 
HETATM   14  C   UNK N   1      34.158  15.247   8.607  0.00  0.00     0.042 A 
HETATM   15  C   UNK N   1      34.191  16.564   8.148  0.00  0.00     0.082 A 
HETATM   16  C   UNK N   1      34.787  17.552   8.969  0.00  0.00     0.117 A 
ENDROOT
BRANCH  15  17
HETATM   17  C   UNK N   1      33.568  16.866   6.834  0.00  0.00     0.179 C 
HETATM   18  O   UNK N   1      32.518  16.342   6.500  0.00  0.00    -0.646 OA
BRANCH  17  19
HETATM   19  O   UNK N   1      34.187  17.703   5.977  0.00  0.00    -0.773 OA
HETATM   20  H   UNK N   1      34.638  17.362   5.230  0.00  0.00     0.167 HD
ENDBRANCH  17  19
ENDBRANCH  15  17
BRANCH  16  21
HETATM   21  N   UNK N   1      34.854  18.899   8.557  0.00  0.00    -0.385 N 
HETATM   22  H   UNK N   1      34.692  19.621   9.206  0.00  0.00     0.157 HD
HETATM   23  H   UNK N   1      35.061  19.116   7.619  0.00  0.00     0.157 HD
ENDBRANCH  16  21
BRANCH   5  24
HETATM   24  C   UNK N   1      35.243  10.509  14.191  0.00  0.00     0.010 C 
HETATM   25  C   UNK N   1      34.953   9.439  13.157  0.00  0.00     0.015 C 
HETATM   26  C   UNK N   1      34.164  10.459  15.265  0.00  0.00     0.015 C 
ENDBRANCH   5  24
TORSDOF 4
ENDMDL
MODEL 5
REMARK VINA RESULT:      -6.8     14.268     14.812
REMARK  4 active torsions:
REMARK  status: ('A' for Active; 'I' for Inactive)
REMARK    1  A    between atoms: O_3  and  C_23 
REMARK    2  A    between atoms: N_7  and  C_22 
REMARK    3  A    between atoms: C_8  and  C_9 
REMARK    4  A    between atoms: C_21  and  C_23 
ROOT
HETATM    1  O   UNK N   1      28.923  22.214  -5.799  0.00  0.00    -0.292 OA
HETATM    2  O   UNK N   1      30.309  23.861  -2.442  0.00  0.00    -0.286 OA
HETATM    3  N   UNK N   1      27.157  23.732  -5.884  0.00  0.00    -0.322 N 
ATOM      4  HN  UNK N   1      26.816  23.271  -6.727  1.00  0.00     0.169 HD
HETATM    5  C   UNK N   1      32.438  20.742  -4.160  0.00  0.00    -0.054 A 
HETATM    6  C   UNK N   1      30.557  22.283  -4.066  0.00  0.00     0.049 A 
HETATM    7  C   UNK N   1      31.743  21.780  -3.521  0.00  0.00     0.026 A 
HETATM    8  C   UNK N   1      30.039  21.731  -5.259  0.00  0.00     0.092 A 
HETATM    9  C   UNK N   1      31.922  20.204  -5.350  0.00  0.00     0.010 A 
HETATM   10  C   UNK N   1      28.733  23.853  -4.087  0.00  0.00     0.067 A 
HETATM   11  C   UNK N   1      29.882  23.354  -3.470  0.00  0.00     0.199 A 
HETATM   12  C   UNK N   1      30.725  20.688  -5.890  0.00  0.00     0.039 A 
HETATM   13  C   UNK N   1      28.264  23.245  -5.267  0.00  0.00     0.164 A 
HETATM   14  C   UNK N   1      28.060  24.965  -3.581  0.00  0.00     0.042 A 
HETATM   15  C   UNK N   1      26.942  25.477  -4.240  0.00  0.00     0.082 A 
HETATM   16  C   UNK N   1      26.487  24.822  -5.410  0.00  0.00     0.117 A 
ENDROOT
BRANCH  15  17
HETATM   17  C   UNK N   1      26.307  26.704  -3.695  0.00  0.00     0.179 C 
HETATM   18  O   UNK N   1      26.086  26.822  -2.501  0.00  0.00    -0.646 OA
BRANCH  17  19
HETATM   19  O   UNK N   1      25.934  27.693  -4.533  0.00  0.00    -0.773 OA
HETATM   20  H   UNK N   1      25.268  28.301  -4.275  0.00  0.00     0.167 HD
ENDBRANCH  17  19
ENDBRANCH  15  17
BRANCH  16  21
HETATM   21  N   UNK N   1      25.359  25.292  -6.116  0.00  0.00    -0.385 N 
HETATM   22  H   UNK N   1      25.046  24.814  -6.917  0.00  0.00     0.157 HD
HETATM   23  H   UNK N   1      24.886  26.098  -5.806  0.00  0.00     0.157 HD
ENDBRANCH  16  21
BRANCH   5  24
HETATM   24  C   UNK N   1      33.748  20.226  -3.614  0.00  0.00     0.010 C 
HETATM   25  C   UNK N   1      34.890  21.161  -3.961  0.00  0.00     0.015 C 
HETATM   26  C   UNK N   1      34.098  18.823  -4.096  0.00  0.00     0.015 C 
ENDBRANCH   5  24
TORSDOF 4
ENDMDL
MODEL 6
REMARK VINA RESULT:      -6.8     17.838     19.045
REMARK  4 active torsions:
REMARK  status: ('A' for Active; 'I' for Inactive)
REMARK    1  A    between atoms: O_3  and  C_23 
REMARK    2  A    between atoms: N_7  and  C_22 
REMARK    3  A    between atoms: C_8  and  C_9 
REMARK    4  A    between atoms: C_21  and  C_23 
ROOT
HETATM    1  O   UNK N   1      36.052  14.022  15.199  0.00  0.00    -0.292 OA
HETATM    2  O   UNK N   1      36.825  10.117  14.959  0.00  0.00    -0.286 OA
HETATM    3  N   UNK N   1      36.621  14.332  12.961  0.00  0.00    -0.322 N 
ATOM      4  HN  UNK N   1      36.440  15.330  13.065  1.00  0.00     0.169 HD
HETATM    5  C   UNK N   1      35.367  11.646  18.530  0.00  0.00    -0.054 A 
HETATM    6  C   UNK N   1      36.123  11.874  16.228  0.00  0.00     0.049 A 
HETATM    7  C   UNK N   1      35.887  11.081  17.356  0.00  0.00     0.026 A 
HETATM    8  C   UNK N   1      35.853  13.260  16.273  0.00  0.00     0.092 A 
HETATM    9  C   UNK N   1      35.093  13.022  18.563  0.00  0.00     0.010 A 
HETATM   10  C   UNK N   1      36.754  12.144  13.921  0.00  0.00     0.067 A 
HETATM   11  C   UNK N   1      36.591  11.315  15.034  0.00  0.00     0.199 A 
HETATM   12  C   UNK N   1      35.345  13.826  17.446  0.00  0.00     0.039 A 
HETATM   13  C   UNK N   1      36.480  13.520  14.040  0.00  0.00     0.164 A 
HETATM   14  C   UNK N   1      37.147  11.633  12.685  0.00  0.00     0.042 A 
HETATM   15  C   UNK N   1      37.257  12.470  11.574  0.00  0.00     0.082 A 
HETATM   16  C   UNK N   1      36.998  13.853  11.740  0.00  0.00     0.117 A 
ENDROOT
BRANCH  15  17
HETATM   17  C   UNK N   1      37.611  11.860  10.267  0.00  0.00     0.179 C 
HETATM   18  O   UNK N   1      38.630  11.204  10.134  0.00  0.00    -0.646 OA
BRANCH  17  19
HETATM   19  O   UNK N   1      36.814  12.061   9.198  0.00  0.00    -0.773 OA
HETATM   20  H   UNK N   1      36.364  11.338   8.804  0.00  0.00     0.167 HD
ENDBRANCH  17  19
ENDBRANCH  15  17
BRANCH  16  21
HETATM   21  N   UNK N   1      37.098  14.748  10.655  0.00  0.00    -0.385 N 
HETATM   22  H   UNK N   1      37.849  15.384  10.609  0.00  0.00     0.157 HD
HETATM   23  H   UNK N   1      36.416  14.737   9.945  0.00  0.00     0.157 HD
ENDBRANCH  16  21
BRANCH   5  24
HETATM   24  C   UNK N   1      35.056  10.793  19.737  0.00  0.00     0.010 C 
HETATM   25  C   UNK N   1      36.319  10.447  20.501  0.00  0.00     0.015 C 
HETATM   26  C   UNK N   1      34.318   9.504  19.398  0.00  0.00     0.015 C 
ENDBRANCH   5  24
TORSDOF 4
ENDMDL
MODEL 7
REMARK VINA RESULT:      -6.7     14.247     15.894
REMARK  4 active torsions:
REMARK  status: ('A' for Active; 'I' for Inactive)
REMARK    1  A    between atoms: O_3  and  C_23 
REMARK    2  A    between atoms: N_7  and  C_22 
REMARK    3  A    between atoms: C_8  and  C_9 
REMARK    4  A    between atoms: C_21  and  C_23 
ROOT
HETATM    1  O   UNK N   1      29.393  23.622  -3.076  0.00  0.00    -0.292 OA
HETATM    2  O   UNK N   1      28.834  22.124  -6.729  0.00  0.00    -0.286 OA
HETATM    3  N   UNK N   1      31.213  22.213  -2.713  0.00  0.00    -0.322 N 
ATOM      4  HN  UNK N   1      31.311  22.600  -1.775  1.00  0.00     0.169 HD
HETATM    5  C   UNK N   1      26.394  25.226  -5.451  0.00  0.00    -0.054 A 
HETATM    6  C   UNK N   1      28.185  23.610  -5.130  0.00  0.00     0.049 A 
HETATM    7  C   UNK N   1      27.171  24.159  -5.923  0.00  0.00     0.026 A 
HETATM    8  C   UNK N   1      28.418  24.120  -3.833  0.00  0.00     0.092 A 
HETATM    9  C   UNK N   1      26.638  25.734  -4.164  0.00  0.00     0.010 A 
HETATM   10  C   UNK N   1      30.036  22.110  -4.795  0.00  0.00     0.067 A 
HETATM   11  C   UNK N   1      29.003  22.581  -5.608  0.00  0.00     0.199 A 
HETATM   12  C   UNK N   1      27.636  25.177  -3.356  0.00  0.00     0.039 A 
HETATM   13  C   UNK N   1      30.203  22.654  -3.506  0.00  0.00     0.164 A 
HETATM   14  C   UNK N   1      30.930  21.138  -5.243  0.00  0.00     0.042 A 
HETATM   15  C   UNK N   1      31.984  20.716  -4.433  0.00  0.00     0.082 A 
HETATM   16  C   UNK N   1      32.103  21.268  -3.135  0.00  0.00     0.117 A 
ENDROOT
BRANCH  15  17
HETATM   17  C   UNK N   1      32.946  19.731  -4.989  0.00  0.00     0.179 C 
HETATM   18  O   UNK N   1      33.234  19.732  -6.174  0.00  0.00    -0.646 OA
BRANCH  17  19
HETATM   19  O   UNK N   1      33.486  18.794  -4.183  0.00  0.00    -0.773 OA
HETATM   20  H   UNK N   1      33.250  18.762  -3.276  0.00  0.00     0.167 HD
ENDBRANCH  17  19
ENDBRANCH  15  17
BRANCH  16  21
HETATM   21  N   UNK N   1      33.145  20.876  -2.269  0.00  0.00    -0.385 N 
HETATM   22  H   UNK N   1      32.969  20.757  -1.308  0.00  0.00     0.157 HD
HETATM   23  H   UNK N   1      34.049  20.723  -2.627  0.00  0.00     0.157 HD
ENDBRANCH  16  21
BRANCH   5  24
HETATM   24  C   UNK N   1      25.333  25.865  -6.316  0.00  0.00     0.010 C 
HETATM   25  C   UNK N   1      25.883  26.212  -7.686  0.00  0.00     0.015 C 
HETATM   26  C   UNK N   1      24.718  27.116  -5.702  0.00  0.00     0.015 C 
ENDBRANCH   5  24
TORSDOF 4
ENDMDL
MODEL 8
REMARK VINA RESULT:      -6.6     18.354     20.514
REMARK  4 active torsions:
REMARK  status: ('A' for Active; 'I' for Inactive)
REMARK    1  A    between atoms: O_3  and  C_23 
REMARK    2  A    between atoms: N_7  and  C_22 
REMARK    3  A    between atoms: C_8  and  C_9 
REMARK    4  A    between atoms: C_21  and  C_23 
ROOT
HETATM    1  O   UNK N   1      35.563  13.788  15.882  0.00  0.00    -0.292 OA
HETATM    2  O   UNK N   1      36.595   9.956  15.496  0.00  0.00    -0.286 OA
HETATM    3  N   UNK N   1      35.115  13.500  18.150  0.00  0.00    -0.322 N 
ATOM      4  HN  UNK N   1      34.833  14.478  18.207  1.00  0.00     0.169 HD
HETATM    5  C   UNK N   1      36.920  12.450  12.197  0.00  0.00    -0.054 A 
HETATM    6  C   UNK N   1      36.346  11.998  14.518  0.00  0.00     0.049 A 
HETATM    7  C   UNK N   1      36.803  11.556  13.272  0.00  0.00     0.026 A 
HETATM    8  C   UNK N   1      35.979  13.351  14.695  0.00  0.00     0.092 A 
HETATM    9  C   UNK N   1      36.562  13.795  12.384  0.00  0.00     0.010 A 
HETATM   10  C   UNK N   1      35.866  11.637  16.848  0.00  0.00     0.067 A 
HETATM   11  C   UNK N   1      36.275  11.130  15.613  0.00  0.00     0.199 A 
HETATM   12  C   UNK N   1      36.084  14.240  13.621  0.00  0.00     0.039 A 
HETATM   13  C   UNK N   1      35.500  12.993  16.951  0.00  0.00     0.164 A 
HETATM   14  C   UNK N   1      35.845  10.839  17.992  0.00  0.00     0.042 A 
HETATM   15  C   UNK N   1      35.479  11.378  19.226  0.00  0.00     0.082 A 
HETATM   16  C   UNK N   1      35.094  12.739  19.283  0.00  0.00     0.117 A 
ENDROOT
BRANCH  15  17
HETATM   17  C   UNK N   1      35.544  10.500  20.422  0.00  0.00     0.179 C 
HETATM   18  O   UNK N   1      34.800   9.540  20.539  0.00  0.00    -0.646 OA
BRANCH  17  19
HETATM   19  O   UNK N   1      36.412  10.783  21.414  0.00  0.00    -0.773 OA
HETATM   20  H   UNK N   1      36.893  11.588  21.402  0.00  0.00     0.167 HD
ENDBRANCH  17  19
ENDBRANCH  15  17
BRANCH  16  21
HETATM   21  N   UNK N   1      34.709  13.337  20.501  0.00  0.00    -0.385 N 
HETATM   22  H   UNK N   1      33.932  13.941  20.530  0.00  0.00     0.157 HD
HETATM   23  H   UNK N   1      35.219  13.151  21.322  0.00  0.00     0.157 HD
ENDBRANCH  16  21
BRANCH   5  24
HETATM   24  C   UNK N   1      37.464  12.001  10.861  0.00  0.00     0.010 C 
HETATM   25  C   UNK N   1      37.944  10.564  10.923  0.00  0.00     0.015 C 
HETATM   26  C   UNK N   1      38.597  12.876  10.340  0.00  0.00     0.015 C 
ENDBRANCH   5  24
TORSDOF 4
ENDMDL
MODEL 9
REMARK VINA RESULT:      -6.6      9.500     11.619
REMARK  4 active torsions:
REMARK  status: ('A' for Active; 'I' for Inactive)
REMARK    1  A    between atoms: O_3  and  C_23 
REMARK    2  A    between atoms: N_7  and  C_22 
REMARK    3  A    between atoms: C_8  and  C_9 
REMARK    4  A    between atoms: C_21  and  C_23 
ROOT
HETATM    1  O   UNK N   1      30.096  15.568   5.676  0.00  0.00    -0.292 OA
HETATM    2  O   UNK N   1      30.335  18.346   8.527  0.00  0.00    -0.286 OA
HETATM    3  N   UNK N   1      31.778  14.308   6.681  0.00  0.00    -0.322 N 
ATOM      4  HN  UNK N   1      31.709  13.630   5.922  1.00  0.00     0.169 HD
HETATM    5  C   UNK N   1      27.466  18.774   5.561  0.00  0.00    -0.054 A 
HETATM    6  C   UNK N   1      29.327  17.617   6.619  0.00  0.00     0.049 A 
HETATM    7  C   UNK N   1      28.435  18.694   6.571  0.00  0.00     0.026 A 
HETATM    8  C   UNK N   1      29.267  16.609   5.630  0.00  0.00     0.092 A 
HETATM    9  C   UNK N   1      27.407  17.763   4.588  0.00  0.00     0.010 A 
HETATM   10  C   UNK N   1      31.092  16.372   7.680  0.00  0.00     0.067 A 
HETATM   11  C   UNK N   1      30.264  17.496   7.650  0.00  0.00     0.199 A 
HETATM   12  C   UNK N   1      28.309  16.694   4.616  0.00  0.00     0.039 A 
HETATM   13  C   UNK N   1      30.989  15.412   6.654  0.00  0.00     0.164 A 
HETATM   14  C   UNK N   1      31.993  16.159   8.722  0.00  0.00     0.042 A 
HETATM   15  C   UNK N   1      32.777  15.005   8.758  0.00  0.00     0.082 A 
HETATM   16  C   UNK N   1      32.662  14.076   7.695  0.00  0.00     0.117 A 
ENDROOT
BRANCH  15  17
HETATM   17  C   UNK N   1      33.668  14.797   9.927  0.00  0.00     0.179 C 
HETATM   18  O   UNK N   1      34.828  14.449   9.781  0.00  0.00    -0.646 OA
BRANCH  17  19
HETATM   19  O   UNK N   1      33.183  14.959  11.175  0.00  0.00    -0.773 OA
HETATM   20  H   UNK N   1      32.599  14.322  11.539  0.00  0.00     0.167 HD
ENDBRANCH  17  19
ENDBRANCH  15  17
BRANCH  16  21
HETATM   21  N   UNK N   1      33.432  12.894   7.673  0.00  0.00    -0.385 N 
HETATM   22  H   UNK N   1      34.023  12.705   6.909  0.00  0.00     0.157 HD
HETATM   23  H   UNK N   1      33.377  12.259   8.424  0.00  0.00     0.157 HD
ENDBRANCH  16  21
BRANCH   5  24
HETATM   24  C   UNK N   1      26.460  19.901   5.529  0.00  0.00     0.010 C 
HETATM   25  C   UNK N   1      26.036  20.214   4.107  0.00  0.00     0.015 C 
HETATM   26  C   UNK N   1      26.960  21.181   6.186  0.00  0.00     0.015 C 
ENDBRANCH   5  24
TORSDOF 4
ENDMDL
