MODEL 1
REMARK VINA RESULT:      -7.8      0.000      0.000
REMARK  7 active torsions:
REMARK  status: ('A' for Active; 'I' for Inactive)
REMARK    1  A    between atoms: N_4  and  C_19 
REMARK    2  A    between atoms: C_17  and  C_18 
REMARK    3  A    between atoms: C_18  and  C_20 
REMARK    4  A    between atoms: C_19  and  C_21 
REMARK    5  A    between atoms: C_20  and  C_22 
REMARK    6  A    between atoms: C_28  and  C_29 
REMARK    7  A    between atoms: C_30  and  C_34 
ROOT
HETATM    1  C   UNK N   1      35.096  15.402  11.234  0.00  0.00    -0.040 A 
HETATM    2  C   UNK N   1      34.093  14.557  10.744  0.00  0.00     0.010 A 
HETATM    3  C   UNK N   1      35.377  16.598  10.572  0.00  0.00     0.010 A 
HETATM    4  C   UNK N   1      33.414  14.884   9.566  0.00  0.00     0.013 A 
HETATM    5  C   UNK N   1      34.667  16.946   9.421  0.00  0.00     0.013 A 
HETATM    6  C   UNK N   1      33.668  16.100   8.915  0.00  0.00    -0.025 A 
ENDROOT
BRANCH   1   7
HETATM    7  C   UNK N   1      35.796  15.103  12.522  0.00  0.00     0.172 C 
BRANCH   7   8
HETATM    8  N   UNK N   1      36.124  13.711  12.804  0.00  0.00    -0.301 N 
HETATM    9  C   UNK N   1      35.603  13.046  13.842  0.00  0.00     0.254 A 
HETATM   10  O   UNK N   1      34.834  13.545  14.652  0.00  0.00    -0.270 OA
HETATM   11  C   UNK N   1      36.078  11.621  13.855  0.00  0.00     0.113 A 
HETATM   12  N   UNK N   1      36.955  11.635  12.690  0.00  0.00    -0.362 N 
HETATM   13  C   UNK N   1      36.840  11.264  15.118  0.00  0.00     0.041 C 
HETATM   14  C   UNK N   1      34.943  10.625  13.696  0.00  0.00     0.041 C 
HETATM   15  C   UNK N   1      36.963  12.794  12.132  0.00  0.00     0.083 A 
ATOM     16  HN  UNK N   1      37.491  10.833  12.361  1.00  0.00     0.162 HD
HETATM   17  C   UNK N   1      36.263   9.939  15.574  0.00  0.00     0.003 C 
HETATM   18  C   UNK N   1      34.850   9.918  15.031  0.00  0.00     0.003 C 
BRANCH  15  19
HETATM   19  C   UNK N   1      37.851  13.104  10.968  0.00  0.00     0.076 C 
BRANCH  19  20
HETATM   20  C   UNK N   1      37.202  12.726   9.648  0.00  0.00     0.007 C 
BRANCH  20  21
HETATM   21  C   UNK N   1      37.340  13.893   8.690  0.00  0.00    -0.004 C 
HETATM   22  C   UNK N   1      36.329  13.767   7.570  0.00  0.00     0.005 C 
ENDBRANCH  20  21
ENDBRANCH  19  20
ENDBRANCH  15  19
ENDBRANCH   7   8
ENDBRANCH   1   7
BRANCH   6  23
HETATM   23  C   UNK N   1      32.963  16.431   7.651  0.00  0.00    -0.012 A 
HETATM   24  C   UNK N   1      31.736  17.165   7.584  0.00  0.00     0.021 A 
HETATM   25  C   UNK N   1      31.214  17.491   6.321  0.00  0.00     0.016 A 
HETATM   26  C   UNK N   1      31.858  17.101   5.149  0.00  0.00     0.001 A 
HETATM   27  C   UNK N   1      33.026  16.349   5.215  0.00  0.00     0.001 A 
HETATM   28  C   UNK N   1      33.571  16.017   6.454  0.00  0.00     0.013 A 
BRANCH  24  29
HETATM   29  C   UNK N   1      30.902  17.519   8.764  0.00  0.00     0.145 A 
HETATM   30  N   UNK N   1      30.366  16.655   9.644  0.00  0.00    -0.271 N 
HETATM   31  N   UNK N   1      29.631  17.387  10.465  0.00  0.00    -0.225 N 
ATOM     32  HN  UNK N   1      30.499  15.645   9.673  1.00  0.00     0.190 HD
HETATM   33  N   UNK N   1      29.696  18.656  10.098  0.00  0.00    -0.005 NA
HETATM   34  H   UNK N   1      29.116  17.040  11.229  0.00  0.00     0.205 HD
HETATM   35  N   UNK N   1      30.475  18.767   9.034  0.00  0.00    -0.266 N 
ATOM     36  HN  UNK N   1      30.704  19.620   8.524  1.00  0.00     0.186 HD
ENDBRANCH  24  29
ENDBRANCH   6  23
TORSDOF 7
ENDMDL
MODEL 2
REMARK VINA RESULT:      -7.4      3.300      5.566
REMARK  7 active torsions:
REMARK  status: ('A' for Active; 'I' for Inactive)
REMARK    1  A    between atoms: N_4  and  C_19 
REMARK    2  A    between atoms: C_17  and  C_18 
REMARK    3  A    between atoms: C_18  and  C_20 
REMARK    4  A    between atoms: C_19  and  C_21 
REMARK    5  A    between atoms: C_20  and  C_22 
REMARK    6  A    between atoms: C_28  and  C_29 
REMARK    7  A    between atoms: C_30  and  C_34 
ROOT
HETATM    1  C   UNK N   1      32.710  17.185   6.222  0.00  0.00    -0.040 A 
HETATM    2  C   UNK N   1      31.612  16.666   6.918  0.00  0.00     0.010 A 
HETATM    3  C   UNK N   1      32.553  17.612   4.902  0.00  0.00     0.010 A 
HETATM    4  C   UNK N   1      30.378  16.525   6.277  0.00  0.00     0.013 A 
HETATM    5  C   UNK N   1      31.309  17.513   4.276  0.00  0.00     0.013 A 
HETATM    6  C   UNK N   1      30.205  16.984   4.962  0.00  0.00    -0.025 A 
ENDROOT
BRANCH   1   7
HETATM    7  C   UNK N   1      34.025  17.400   6.903  0.00  0.00     0.172 C 
BRANCH   7   8
HETATM    8  N   UNK N   1      34.578  16.288   7.667  0.00  0.00    -0.301 N 
HETATM    9  C   UNK N   1      34.722  16.331   8.997  0.00  0.00     0.254 A 
HETATM   10  O   UNK N   1      34.432  17.302   9.681  0.00  0.00    -0.270 OA
HETATM   11  C   UNK N   1      35.267  15.032   9.516  0.00  0.00     0.113 A 
HETATM   12  N   UNK N   1      35.422  14.302   8.264  0.00  0.00    -0.362 N 
HETATM   13  C   UNK N   1      36.595  15.191  10.233  0.00  0.00     0.041 C 
HETATM   14  C   UNK N   1      34.306  14.332  10.463  0.00  0.00     0.041 C 
HETATM   15  C   UNK N   1      35.037  15.015   7.264  0.00  0.00     0.083 A 
ATOM     16  HN  UNK N   1      35.787  13.353   8.190  1.00  0.00     0.162 HD
HETATM   17  C   UNK N   1      36.456  14.402  11.519  0.00  0.00     0.003 C 
HETATM   18  C   UNK N   1      34.973  14.399  11.820  0.00  0.00     0.003 C 
BRANCH  15  19
HETATM   19  C   UNK N   1      35.176  14.534   5.853  0.00  0.00     0.076 C 
BRANCH  19  20
HETATM   20  C   UNK N   1      33.988  13.689   5.427  0.00  0.00     0.007 C 
BRANCH  20  21
HETATM   21  C   UNK N   1      33.485  14.200   4.092  0.00  0.00    -0.004 C 
HETATM   22  C   UNK N   1      32.018  13.863   3.927  0.00  0.00     0.005 C 
ENDBRANCH  20  21
ENDBRANCH  19  20
ENDBRANCH  15  19
ENDBRANCH   7   8
ENDBRANCH   1   7
BRANCH   6  23
HETATM   23  C   UNK N   1      28.901  16.808   4.276  0.00  0.00    -0.012 A 
HETATM   24  C   UNK N   1      27.782  17.685   4.441  0.00  0.00     0.021 A 
HETATM   25  C   UNK N   1      26.630  17.463   3.669  0.00  0.00     0.016 A 
HETATM   26  C   UNK N   1      26.558  16.403   2.767  0.00  0.00     0.001 A 
HETATM   27  C   UNK N   1      27.628  15.524   2.640  0.00  0.00     0.001 A 
HETATM   28  C   UNK N   1      28.786  15.725   3.389  0.00  0.00     0.013 A 
BRANCH  24  29
HETATM   29  C   UNK N   1      27.702  18.764   5.463  0.00  0.00     0.145 A 
HETATM   30  N   UNK N   1      27.342  18.614   6.749  0.00  0.00    -0.271 N 
HETATM   31  N   UNK N   1      27.319  19.833   7.262  0.00  0.00    -0.225 N 
ATOM     32  HN  UNK N   1      27.131  17.740   7.230  1.00  0.00     0.190 HD
HETATM   33  N   UNK N   1      27.638  20.709   6.324  0.00  0.00    -0.005 NA
HETATM   34  H   UNK N   1      27.098  20.053   8.196  0.00  0.00     0.205 HD
HETATM   35  N   UNK N   1      27.874  20.071   5.189  0.00  0.00    -0.266 N 
ATOM     36  HN  UNK N   1      28.132  20.484   4.292  1.00  0.00     0.186 HD
ENDBRANCH  24  29
ENDBRANCH   6  23
TORSDOF 7
ENDMDL
MODEL 3
REMARK VINA RESULT:      -7.3      3.474      6.450
REMARK  7 active torsions:
REMARK  status: ('A' for Active; 'I' for Inactive)
REMARK    1  A    between atoms: N_4  and  C_19 
REMARK    2  A    between atoms: C_17  and  C_18 
REMARK    3  A    between atoms: C_18  and  C_20 
REMARK    4  A    between atoms: C_19  and  C_21 
REMARK    5  A    between atoms: C_20  and  C_22 
REMARK    6  A    between atoms: C_28  and  C_29 
REMARK    7  A    between atoms: C_30  and  C_34 
ROOT
HETATM    1  C   UNK N   1      32.620  16.428   5.439  0.00  0.00    -0.040 A 
HETATM    2  C   UNK N   1      31.764  15.384   5.810  0.00  0.00     0.010 A 
HETATM    3  C   UNK N   1      32.200  17.361   4.488  0.00  0.00     0.010 A 
HETATM    4  C   UNK N   1      30.518  15.244   5.191  0.00  0.00     0.013 A 
HETATM    5  C   UNK N   1      30.938  17.246   3.902  0.00  0.00     0.013 A 
HETATM    6  C   UNK N   1      30.078  16.196   4.260  0.00  0.00    -0.025 A 
ENDROOT
BRANCH   1   7
HETATM    7  C   UNK N   1      33.932  16.634   6.127  0.00  0.00     0.172 C 
BRANCH   7   8
HETATM    8  N   UNK N   1      33.974  16.431   7.571  0.00  0.00    -0.301 N 
HETATM    9  C   UNK N   1      34.778  15.529   8.147  0.00  0.00     0.254 A 
HETATM   10  O   UNK N   1      35.520  14.785   7.523  0.00  0.00    -0.270 OA
HETATM   11  C   UNK N   1      34.646  15.576   9.642  0.00  0.00     0.113 A 
HETATM   12  N   UNK N   1      33.631  16.614   9.776  0.00  0.00    -0.362 N 
HETATM   13  C   UNK N   1      34.176  14.261  10.236  0.00  0.00     0.041 C 
HETATM   14  C   UNK N   1      35.944  15.963  10.330  0.00  0.00     0.041 C 
HETATM   15  C   UNK N   1      33.279  17.066   8.624  0.00  0.00     0.083 A 
ATOM     16  HN  UNK N   1      33.250  16.938  10.664  1.00  0.00     0.162 HD
HETATM   17  C   UNK N   1      35.100  13.996  11.408  0.00  0.00     0.003 C 
HETATM   18  C   UNK N   1      36.386  14.716  11.064  0.00  0.00     0.003 C 
BRANCH  15  19
HETATM   19  C   UNK N   1      32.184  18.077   8.474  0.00  0.00     0.076 C 
BRANCH  19  20
HETATM   20  C   UNK N   1      30.810  17.442   8.602  0.00  0.00     0.007 C 
BRANCH  20  21
HETATM   21  C   UNK N   1      29.783  18.544   8.765  0.00  0.00    -0.004 C 
HETATM   22  C   UNK N   1      28.534  17.995   9.422  0.00  0.00     0.005 C 
ENDBRANCH  20  21
ENDBRANCH  19  20
ENDBRANCH  15  19
ENDBRANCH   7   8
ENDBRANCH   1   7
BRANCH   6  23
HETATM   23  C   UNK N   1      28.766  16.029   3.586  0.00  0.00    -0.012 A 
HETATM   24  C   UNK N   1      27.671  16.940   3.723  0.00  0.00     0.021 A 
HETATM   25  C   UNK N   1      26.510  16.719   2.964  0.00  0.00     0.016 A 
HETATM   26  C   UNK N   1      26.407  15.629   2.101  0.00  0.00     0.001 A 
HETATM   27  C   UNK N   1      27.454  14.719   2.002  0.00  0.00     0.001 A 
HETATM   28  C   UNK N   1      28.620  14.918   2.739  0.00  0.00     0.013 A 
BRANCH  24  29
HETATM   29  C   UNK N   1      27.624  18.057   4.705  0.00  0.00     0.145 A 
HETATM   30  N   UNK N   1      27.005  18.039   5.899  0.00  0.00    -0.271 N 
HETATM   31  N   UNK N   1      27.136  19.259   6.391  0.00  0.00    -0.225 N 
ATOM     32  HN  UNK N   1      26.533  17.247   6.334  1.00  0.00     0.190 HD
HETATM   33  N   UNK N   1      27.798  20.012   5.528  0.00  0.00    -0.005 NA
HETATM   34  H   UNK N   1      26.794  19.560   7.264  0.00  0.00     0.205 HD
HETATM   35  N   UNK N   1      28.108  19.290   4.463  0.00  0.00    -0.266 N 
ATOM     36  HN  UNK N   1      28.608  19.603   3.631  1.00  0.00     0.186 HD
ENDBRANCH  24  29
ENDBRANCH   6  23
TORSDOF 7
ENDMDL
MODEL 4
REMARK VINA RESULT:      -7.1      2.747      8.997
REMARK  7 active torsions:
REMARK  status: ('A' for Active; 'I' for Inactive)
REMARK    1  A    between atoms: N_4  and  C_19 
REMARK    2  A    between atoms: C_17  and  C_18 
REMARK    3  A    between atoms: C_18  and  C_20 
REMARK    4  A    between atoms: C_19  and  C_21 
REMARK    5  A    between atoms: C_20  and  C_22 
REMARK    6  A    between atoms: C_28  and  C_29 
REMARK    7  A    between atoms: C_30  and  C_34 
ROOT
HETATM    1  C   UNK N   1      34.131  16.726   9.527  0.00  0.00    -0.040 A 
HETATM    2  C   UNK N   1      33.638  15.417   9.460  0.00  0.00     0.010 A 
HETATM    3  C   UNK N   1      35.225  17.011  10.347  0.00  0.00     0.010 A 
HETATM    4  C   UNK N   1      34.202  14.413  10.253  0.00  0.00     0.013 A 
HETATM    5  C   UNK N   1      35.817  15.999  11.104  0.00  0.00     0.013 A 
HETATM    6  C   UNK N   1      35.322  14.686  11.053  0.00  0.00    -0.025 A 
ENDROOT
BRANCH   1   7
HETATM    7  C   UNK N   1      33.583  17.804   8.647  0.00  0.00     0.172 C 
BRANCH   7   8
HETATM    8  N   UNK N   1      32.826  17.393   7.470  0.00  0.00    -0.301 N 
HETATM    9  C   UNK N   1      33.386  17.273   6.261  0.00  0.00     0.254 A 
HETATM   10  O   UNK N   1      34.562  17.518   6.029  0.00  0.00    -0.270 OA
HETATM   11  C   UNK N   1      32.383  16.788   5.254  0.00  0.00     0.113 A 
HETATM   12  N   UNK N   1      31.198  16.698   6.099  0.00  0.00    -0.362 N 
HETATM   13  C   UNK N   1      32.175  17.762   4.109  0.00  0.00     0.041 C 
HETATM   14  C   UNK N   1      32.757  15.441   4.660  0.00  0.00     0.041 C 
HETATM   15  C   UNK N   1      31.469  17.037   7.310  0.00  0.00     0.083 A 
ATOM     16  HN  UNK N   1      30.277  16.406   5.773  1.00  0.00     0.162 HD
HETATM   17  C   UNK N   1      32.232  16.921   2.850  0.00  0.00     0.003 C 
HETATM   18  C   UNK N   1      33.092  15.729   3.213  0.00  0.00     0.003 C 
BRANCH  15  19
HETATM   19  C   UNK N   1      30.406  17.119   8.362  0.00  0.00     0.076 C 
BRANCH  19  20
HETATM   20  C   UNK N   1      29.038  17.391   7.762  0.00  0.00     0.007 C 
BRANCH  20  21
HETATM   21  C   UNK N   1      28.568  18.754   8.228  0.00  0.00    -0.004 C 
HETATM   22  C   UNK N   1      27.821  19.454   7.112  0.00  0.00     0.005 C 
ENDBRANCH  20  21
ENDBRANCH  19  20
ENDBRANCH  15  19
ENDBRANCH   7   8
ENDBRANCH   1   7
BRANCH   6  23
HETATM   23  C   UNK N   1      35.902  13.624  11.912  0.00  0.00    -0.012 A 
HETATM   24  C   UNK N   1      37.113  12.923  11.615  0.00  0.00     0.021 A 
HETATM   25  C   UNK N   1      37.606  12.000  12.553  0.00  0.00     0.016 A 
HETATM   26  C   UNK N   1      36.930  11.750  13.745  0.00  0.00     0.001 A 
HETATM   27  C   UNK N   1      35.729  12.398  14.013  0.00  0.00     0.001 A 
HETATM   28  C   UNK N   1      35.220  13.324  13.104  0.00  0.00     0.013 A 
BRANCH  24  29
HETATM   29  C   UNK N   1      37.844  13.016  10.322  0.00  0.00     0.145 A 
HETATM   30  N   UNK N   1      38.688  13.997   9.957  0.00  0.00    -0.271 N 
HETATM   31  N   UNK N   1      39.031  13.730   8.708  0.00  0.00    -0.225 N 
ATOM     32  HN  UNK N   1      39.000  14.783  10.526  1.00  0.00     0.190 HD
HETATM   33  N   UNK N   1      38.410  12.633   8.307  0.00  0.00    -0.005 NA
HETATM   34  H   UNK N   1      39.651  14.265   8.162  0.00  0.00     0.205 HD
HETATM   35  N   UNK N   1      37.656  12.170   9.292  0.00  0.00    -0.266 N 
ATOM     36  HN  UNK N   1      37.057  11.345   9.273  1.00  0.00     0.186 HD
ENDBRANCH  24  29
ENDBRANCH   6  23
TORSDOF 7
ENDMDL
MODEL 5
REMARK VINA RESULT:      -7.1     15.864     18.599
REMARK  7 active torsions:
REMARK  status: ('A' for Active; 'I' for Inactive)
REMARK    1  A    between atoms: N_4  and  C_19 
REMARK    2  A    between atoms: C_17  and  C_18 
REMARK    3  A    between atoms: C_18  and  C_20 
REMARK    4  A    between atoms: C_19  and  C_21 
REMARK    5  A    between atoms: C_20  and  C_22 
REMARK    6  A    between atoms: C_28  and  C_29 
REMARK    7  A    between atoms: C_30  and  C_34 
ROOT
HETATM    1  C   UNK N   1      29.812  23.239  -2.930  0.00  0.00    -0.040 A 
HETATM    2  C   UNK N   1      30.186  24.286  -3.781  0.00  0.00     0.010 A 
HETATM    3  C   UNK N   1      28.476  23.100  -2.551  0.00  0.00     0.010 A 
HETATM    4  C   UNK N   1      29.234  25.220  -4.204  0.00  0.00     0.013 A 
HETATM    5  C   UNK N   1      27.518  24.005  -3.010  0.00  0.00     0.013 A 
HETATM    6  C   UNK N   1      27.884  25.065  -3.854  0.00  0.00    -0.025 A 
ENDROOT
BRANCH   1   7
HETATM    7  C   UNK N   1      30.799  22.195  -2.511  0.00  0.00     0.172 C 
BRANCH   7   8
HETATM    8  N   UNK N   1      31.532  21.501  -3.563  0.00  0.00    -0.301 N 
HETATM    9  C   UNK N   1      32.806  21.117  -3.417  0.00  0.00     0.254 A 
HETATM   10  O   UNK N   1      33.470  21.333  -2.414  0.00  0.00    -0.270 OA
HETATM   11  C   UNK N   1      33.284  20.384  -4.637  0.00  0.00     0.113 A 
HETATM   12  N   UNK N   1      32.087  20.462  -5.466  0.00  0.00    -0.362 N 
HETATM   13  C   UNK N   1      34.467  21.058  -5.307  0.00  0.00     0.041 C 
HETATM   14  C   UNK N   1      33.672  18.946  -4.340  0.00  0.00     0.041 C 
HETATM   15  C   UNK N   1      31.141  21.081  -4.853  0.00  0.00     0.083 A 
ATOM     16  HN  UNK N   1      32.011  20.077  -6.408  1.00  0.00     0.162 HD
HETATM   17  C   UNK N   1      35.463  19.948  -5.576  0.00  0.00     0.003 C 
HETATM   18  C   UNK N   1      35.173  18.897  -4.526  0.00  0.00     0.003 C 
BRANCH  15  19
HETATM   19  C   UNK N   1      29.832  21.377  -5.517  0.00  0.00     0.076 C 
BRANCH  19  20
HETATM   20  C   UNK N   1      29.957  21.384  -7.031  0.00  0.00     0.007 C 
BRANCH  20  21
HETATM   21  C   UNK N   1      28.843  20.536  -7.611  0.00  0.00    -0.004 C 
HETATM   22  C   UNK N   1      29.288  19.092  -7.707  0.00  0.00     0.005 C 
ENDBRANCH  20  21
ENDBRANCH  19  20
ENDBRANCH  15  19
ENDBRANCH   7   8
ENDBRANCH   1   7
BRANCH   6  23
HETATM   23  C   UNK N   1      26.882  26.072  -4.283  0.00  0.00    -0.012 A 
HETATM   24  C   UNK N   1      25.915  25.854  -5.316  0.00  0.00     0.021 A 
HETATM   25  C   UNK N   1      24.963  26.854  -5.570  0.00  0.00     0.016 A 
HETATM   26  C   UNK N   1      24.957  28.047  -4.851  0.00  0.00     0.001 A 
HETATM   27  C   UNK N   1      25.925  28.278  -3.880  0.00  0.00     0.001 A 
HETATM   28  C   UNK N   1      26.878  27.301  -3.601  0.00  0.00     0.013 A 
BRANCH  24  29
HETATM   29  C   UNK N   1      25.909  24.678  -6.228  0.00  0.00     0.145 A 
HETATM   30  N   UNK N   1      26.428  24.633  -7.467  0.00  0.00    -0.271 N 
HETATM   31  N   UNK N   1      26.119  23.438  -7.944  0.00  0.00    -0.225 N 
ATOM     32  HN  UNK N   1      26.951  25.368  -7.942  1.00  0.00     0.190 HD
HETATM   33  N   UNK N   1      25.421  22.772  -7.039  0.00  0.00    -0.005 NA
HETATM   34  H   UNK N   1      26.369  23.099  -8.834  0.00  0.00     0.205 HD
HETATM   35  N   UNK N   1      25.268  23.525  -5.961  0.00  0.00    -0.266 N 
ATOM     36  HN  UNK N   1      24.767  23.282  -5.106  1.00  0.00     0.186 HD
ENDBRANCH  24  29
ENDBRANCH   6  23
TORSDOF 7
ENDMDL
MODEL 6
REMARK VINA RESULT:      -7.1      6.167     11.084
REMARK  7 active torsions:
REMARK  status: ('A' for Active; 'I' for Inactive)
REMARK    1  A    between atoms: N_4  and  C_19 
REMARK    2  A    between atoms: C_17  and  C_18 
REMARK    3  A    between atoms: C_18  and  C_20 
REMARK    4  A    between atoms: C_19  and  C_21 
REMARK    5  A    between atoms: C_20  and  C_22 
REMARK    6  A    between atoms: C_28  and  C_29 
REMARK    7  A    between atoms: C_30  and  C_34 
ROOT
HETATM    1  C   UNK N   1      27.976  16.155   4.013  0.00  0.00    -0.040 A 
HETATM    2  C   UNK N   1      28.570  17.416   3.881  0.00  0.00     0.010 A 
HETATM    3  C   UNK N   1      28.470  15.253   4.957  0.00  0.00     0.010 A 
HETATM    4  C   UNK N   1      29.687  17.749   4.652  0.00  0.00     0.013 A 
HETATM    5  C   UNK N   1      29.557  15.603   5.759  0.00  0.00     0.013 A 
HETATM    6  C   UNK N   1      30.167  16.860   5.626  0.00  0.00    -0.025 A 
ENDROOT
BRANCH   1   7
HETATM    7  C   UNK N   1      26.745  15.797   3.241  0.00  0.00     0.172 C 
BRANCH   7   8
HETATM    8  N   UNK N   1      25.456  16.152   3.825  0.00  0.00    -0.301 N 
HETATM    9  C   UNK N   1      24.626  15.240   4.343  0.00  0.00     0.254 A 
HETATM   10  O   UNK N   1      24.855  14.038   4.350  0.00  0.00    -0.270 OA
HETATM   11  C   UNK N   1      23.403  15.896   4.915  0.00  0.00     0.113 A 
HETATM   12  N   UNK N   1      23.689  17.290   4.597  0.00  0.00    -0.362 N 
HETATM   13  C   UNK N   1      22.117  15.430   4.255  0.00  0.00     0.041 C 
HETATM   14  C   UNK N   1      23.266  15.674   6.411  0.00  0.00     0.041 C 
HETATM   15  C   UNK N   1      24.823  17.402   3.998  0.00  0.00     0.083 A 
ATOM     16  HN  UNK N   1      23.074  18.071   4.819  1.00  0.00     0.162 HD
HETATM   17  C   UNK N   1      21.166  15.129   5.395  0.00  0.00     0.003 C 
HETATM   18  C   UNK N   1      22.057  14.778   6.567  0.00  0.00     0.003 C 
BRANCH  15  19
HETATM   19  C   UNK N   1      25.315  18.719   3.481  0.00  0.00     0.076 C 
BRANCH  19  20
HETATM   20  C   UNK N   1      25.450  19.745   4.593  0.00  0.00     0.007 C 
BRANCH  20  21
HETATM   21  C   UNK N   1      26.728  20.529   4.373  0.00  0.00    -0.004 C 
HETATM   22  C   UNK N   1      27.509  20.620   5.668  0.00  0.00     0.005 C 
ENDBRANCH  20  21
ENDBRANCH  19  20
ENDBRANCH  15  19
ENDBRANCH   7   8
ENDBRANCH   1   7
BRANCH   6  23
HETATM   23  C   UNK N   1      31.369  17.207   6.424  0.00  0.00    -0.012 A 
HETATM   24  C   UNK N   1      31.343  17.526   7.819  0.00  0.00     0.021 A 
HETATM   25  C   UNK N   1      32.560  17.751   8.484  0.00  0.00     0.016 A 
HETATM   26  C   UNK N   1      33.776  17.685   7.807  0.00  0.00     0.001 A 
HETATM   27  C   UNK N   1      33.799  17.420   6.442  0.00  0.00     0.001 A 
HETATM   28  C   UNK N   1      32.607  17.186   5.759  0.00  0.00     0.013 A 
BRANCH  24  29
HETATM   29  C   UNK N   1      30.100  17.749   8.608  0.00  0.00     0.145 A 
HETATM   30  N   UNK N   1      29.127  18.631   8.322  0.00  0.00    -0.271 N 
HETATM   31  N   UNK N   1      28.270  18.561   9.327  0.00  0.00    -0.225 N 
ATOM     32  HN  UNK N   1      29.062  19.229   7.499  1.00  0.00     0.190 HD
HETATM   33  N   UNK N   1      28.705  17.679  10.213  0.00  0.00    -0.005 NA
HETATM   34  H   UNK N   1      27.440  19.084   9.404  0.00  0.00     0.205 HD
HETATM   35  N   UNK N   1      29.849  17.163   9.794  0.00  0.00    -0.266 N 
ATOM     36  HN  UNK N   1      30.422  16.467  10.271  1.00  0.00     0.186 HD
ENDBRANCH  24  29
ENDBRANCH   6  23
TORSDOF 7
ENDMDL
MODEL 7
REMARK VINA RESULT:      -7.0      6.826     11.899
REMARK  7 active torsions:
REMARK  status: ('A' for Active; 'I' for Inactive)
REMARK    1  A    between atoms: N_4  and  C_19 
REMARK    2  A    between atoms: C_17  and  C_18 
REMARK    3  A    between atoms: C_18  and  C_20 
REMARK    4  A    between atoms: C_19  and  C_21 
REMARK    5  A    between atoms: C_20  and  C_22 
REMARK    6  A    between atoms: C_28  and  C_29 
REMARK    7  A    between atoms: C_30  and  C_34 
ROOT
HETATM    1  C   UNK N   1      27.611  16.600   4.177  0.00  0.00    -0.040 A 
HETATM    2  C   UNK N   1      27.711  16.179   5.508  0.00  0.00     0.010 A 
HETATM    3  C   UNK N   1      28.723  17.156   3.542  0.00  0.00     0.010 A 
HETATM    4  C   UNK N   1      28.903  16.366   6.215  0.00  0.00     0.013 A 
HETATM    5  C   UNK N   1      29.926  17.301   4.234  0.00  0.00     0.013 A 
HETATM    6  C   UNK N   1      30.033  16.893   5.573  0.00  0.00    -0.025 A 
ENDROOT
BRANCH   1   7
HETATM    7  C   UNK N   1      26.367  16.358   3.382  0.00  0.00     0.172 C 
BRANCH   7   8
HETATM    8  N   UNK N   1      25.187  17.147   3.720  0.00  0.00    -0.301 N 
HETATM    9  C   UNK N   1      24.009  16.586   4.017  0.00  0.00     0.254 A 
HETATM   10  O   UNK N   1      23.809  15.380   4.007  0.00  0.00    -0.270 OA
HETATM   11  C   UNK N   1      22.994  17.635   4.371  0.00  0.00     0.113 A 
HETATM   12  N   UNK N   1      23.797  18.838   4.188  0.00  0.00    -0.362 N 
HETATM   13  C   UNK N   1      21.788  17.627   3.450  0.00  0.00     0.041 C 
HETATM   14  C   UNK N   1      22.492  17.503   5.799  0.00  0.00     0.041 C 
HETATM   15  C   UNK N   1      24.997  18.542   3.829  0.00  0.00     0.083 A 
ATOM     16  HN  UNK N   1      23.453  19.788   4.325  1.00  0.00     0.162 HD
HETATM   17  C   UNK N   1      20.582  17.694   4.364  0.00  0.00     0.003 C 
HETATM   18  C   UNK N   1      21.045  17.081   5.669  0.00  0.00     0.003 C 
BRANCH  15  19
HETATM   19  C   UNK N   1      26.001  19.598   3.487  0.00  0.00     0.076 C 
BRANCH  19  20
HETATM   20  C   UNK N   1      26.282  20.512   4.668  0.00  0.00     0.007 C 
BRANCH  20  21
HETATM   21  C   UNK N   1      27.682  20.232   5.174  0.00  0.00    -0.004 C 
HETATM   22  C   UNK N   1      27.636  19.835   6.635  0.00  0.00     0.005 C 
ENDBRANCH  20  21
ENDBRANCH  19  20
ENDBRANCH  15  19
ENDBRANCH   7   8
ENDBRANCH   1   7
BRANCH   6  23
HETATM   23  C   UNK N   1      31.289  17.114   6.334  0.00  0.00    -0.012 A 
HETATM   24  C   UNK N   1      32.599  16.879   5.808  0.00  0.00     0.021 A 
HETATM   25  C   UNK N   1      33.712  17.211   6.597  0.00  0.00     0.016 A 
HETATM   26  C   UNK N   1      33.559  17.744   7.876  0.00  0.00     0.001 A 
HETATM   27  C   UNK N   1      32.286  17.929   8.404  0.00  0.00     0.001 A 
HETATM   28  C   UNK N   1      31.164  17.615   7.640  0.00  0.00     0.013 A 
BRANCH  24  29
HETATM   29  C   UNK N   1      32.876  16.199   4.514  0.00  0.00     0.145 A 
HETATM   30  N   UNK N   1      32.952  14.871   4.316  0.00  0.00    -0.271 N 
HETATM   31  N   UNK N   1      33.307  14.715   3.051  0.00  0.00    -0.225 N 
ATOM     32  HN  UNK N   1      32.771  14.137   4.999  1.00  0.00     0.190 HD
HETATM   33  N   UNK N   1      33.462  15.902   2.489  0.00  0.00    -0.005 NA
HETATM   34  H   UNK N   1      33.436  13.850   2.600  0.00  0.00     0.205 HD
HETATM   35  N   UNK N   1      33.208  16.847   3.381  0.00  0.00    -0.266 N 
ATOM     36  HN  UNK N   1      33.254  17.856   3.240  1.00  0.00     0.186 HD
ENDBRANCH  24  29
ENDBRANCH   6  23
TORSDOF 7
ENDMDL
MODEL 8
REMARK VINA RESULT:      -7.0      2.796      8.409
REMARK  7 active torsions:
REMARK  status: ('A' for Active; 'I' for Inactive)
REMARK    1  A    between atoms: N_4  and  C_19 
REMARK    2  A    between atoms: C_17  and  C_18 
REMARK    3  A    between atoms: C_18  and  C_20 
REMARK    4  A    between atoms: C_19  and  C_21 
REMARK    5  A    between atoms: C_20  and  C_22 
REMARK    6  A    between atoms: C_28  and  C_29 
REMARK    7  A    between atoms: C_30  and  C_34 
ROOT
HETATM    1  C   UNK N   1      36.420  13.825  11.715  0.00  0.00    -0.040 A 
HETATM    2  C   UNK N   1      37.370  12.942  12.242  0.00  0.00     0.010 A 
HETATM    3  C   UNK N   1      35.233  14.060  12.412  0.00  0.00     0.010 A 
HETATM    4  C   UNK N   1      37.107  12.256  13.431  0.00  0.00     0.013 A 
HETATM    5  C   UNK N   1      34.990  13.409  13.623  0.00  0.00     0.013 A 
HETATM    6  C   UNK N   1      35.931  12.513  14.153  0.00  0.00    -0.025 A 
ENDROOT
BRANCH   1   7
HETATM    7  C   UNK N   1      36.702  14.615  10.476  0.00  0.00     0.172 C 
BRANCH   7   8
HETATM    8  N   UNK N   1      35.597  14.835   9.551  0.00  0.00    -0.301 N 
HETATM    9  C   UNK N   1      35.068  16.045   9.338  0.00  0.00     0.254 A 
HETATM   10  O   UNK N   1      35.439  17.060   9.912  0.00  0.00    -0.270 OA
HETATM   11  C   UNK N   1      33.983  15.979   8.302  0.00  0.00     0.113 A 
HETATM   12  N   UNK N   1      33.990  14.549   8.018  0.00  0.00    -0.362 N 
HETATM   13  C   UNK N   1      32.633  16.432   8.829  0.00  0.00     0.041 C 
HETATM   14  C   UNK N   1      34.303  16.802   7.067  0.00  0.00     0.041 C 
HETATM   15  C   UNK N   1      34.885  13.944   8.717  0.00  0.00     0.083 A 
ATOM     16  HN  UNK N   1      33.369  14.089   7.353  1.00  0.00     0.162 HD
HETATM   17  C   UNK N   1      32.088  17.377   7.777  0.00  0.00     0.003 C 
HETATM   18  C   UNK N   1      33.310  17.944   7.087  0.00  0.00     0.003 C 
BRANCH  15  19
HETATM   19  C   UNK N   1      35.041  12.455   8.682  0.00  0.00     0.076 C 
BRANCH  19  20
HETATM   20  C   UNK N   1      33.908  11.753   9.408  0.00  0.00     0.007 C 
BRANCH  20  21
HETATM   21  C   UNK N   1      34.494  10.924  10.533  0.00  0.00    -0.004 C 
HETATM   22  C   UNK N   1      35.836  10.359  10.115  0.00  0.00     0.005 C 
ENDBRANCH  20  21
ENDBRANCH  19  20
ENDBRANCH  15  19
ENDBRANCH   7   8
ENDBRANCH   1   7
BRANCH   6  23
HETATM   23  C   UNK N   1      35.644  11.763  15.401  0.00  0.00    -0.012 A 
HETATM   24  C   UNK N   1      35.583  12.360  16.701  0.00  0.00     0.021 A 
HETATM   25  C   UNK N   1      35.214  11.559  17.795  0.00  0.00     0.016 A 
HETATM   26  C   UNK N   1      34.927  10.205  17.635  0.00  0.00     0.001 A 
HETATM   27  C   UNK N   1      35.031   9.615  16.380  0.00  0.00     0.001 A 
HETATM   28  C   UNK N   1      35.388  10.387  15.276  0.00  0.00     0.013 A 
BRANCH  24  29
HETATM   29  C   UNK N   1      35.992  13.758  17.004  0.00  0.00     0.145 A 
HETATM   30  N   UNK N   1      36.863  14.501  16.299  0.00  0.00    -0.271 N 
HETATM   31  N   UNK N   1      36.999  15.632  16.972  0.00  0.00    -0.225 N 
ATOM     32  HN  UNK N   1      37.322  14.245  15.425  1.00  0.00     0.190 HD
HETATM   33  N   UNK N   1      36.253  15.586  18.062  0.00  0.00    -0.005 NA
HETATM   34  H   UNK N   1      37.568  16.388  16.702  0.00  0.00     0.205 HD
HETATM   35  N   UNK N   1      35.619  14.425  18.113  0.00  0.00    -0.266 N 
ATOM     36  HN  UNK N   1      34.982  14.102  18.842  1.00  0.00     0.186 HD
ENDBRANCH  24  29
ENDBRANCH   6  23
TORSDOF 7
ENDMDL
MODEL 9
REMARK VINA RESULT:      -6.8      3.325      9.119
REMARK  7 active torsions:
REMARK  status: ('A' for Active; 'I' for Inactive)
REMARK    1  A    between atoms: N_4  and  C_19 
REMARK    2  A    between atoms: C_17  and  C_18 
REMARK    3  A    between atoms: C_18  and  C_20 
REMARK    4  A    between atoms: C_19  and  C_21 
REMARK    5  A    between atoms: C_20  and  C_22 
REMARK    6  A    between atoms: C_28  and  C_29 
REMARK    7  A    between atoms: C_30  and  C_34 
ROOT
HETATM    1  C   UNK N   1      35.878  13.151  14.091  0.00  0.00    -0.040 A 
HETATM    2  C   UNK N   1      34.655  12.488  14.251  0.00  0.00     0.010 A 
HETATM    3  C   UNK N   1      36.999  12.713  14.798  0.00  0.00     0.010 A 
HETATM    4  C   UNK N   1      34.545  11.428  15.157  0.00  0.00     0.013 A 
HETATM    5  C   UNK N   1      36.899  11.626  15.668  0.00  0.00     0.013 A 
HETATM    6  C   UNK N   1      35.675  10.962  15.845  0.00  0.00    -0.025 A 
ENDROOT
BRANCH   1   7
HETATM    7  C   UNK N   1      36.035  14.248  13.086  0.00  0.00     0.172 C 
BRANCH   7   8
HETATM    8  N   UNK N   1      35.882  13.900  11.679  0.00  0.00    -0.301 N 
HETATM    9  C   UNK N   1      34.836  14.302  10.948  0.00  0.00     0.254 A 
HETATM   10  O   UNK N   1      33.912  14.968  11.395  0.00  0.00    -0.270 OA
HETATM   11  C   UNK N   1      34.969  13.839   9.526  0.00  0.00     0.113 A 
HETATM   12  N   UNK N   1      36.224  13.103   9.615  0.00  0.00    -0.362 N 
HETATM   13  C   UNK N   1      33.827  12.939   9.089  0.00  0.00     0.041 C 
HETATM   14  C   UNK N   1      35.058  14.992   8.542  0.00  0.00     0.041 C 
HETATM   15  C   UNK N   1      36.704  13.151  10.807  0.00  0.00     0.083 A 
ATOM     16  HN  UNK N   1      36.663  12.614   8.835  1.00  0.00     0.162 HD
HETATM   17  C   UNK N   1      33.392  13.469   7.738  0.00  0.00     0.003 C 
HETATM   18  C   UNK N   1      33.769  14.935   7.751  0.00  0.00     0.003 C 
BRANCH  15  19
HETATM   19  C   UNK N   1      37.942  12.401  11.190  0.00  0.00     0.076 C 
BRANCH  19  20
HETATM   20  C   UNK N   1      37.773  10.903  11.003  0.00  0.00     0.007 C 
BRANCH  20  21
HETATM   21  C   UNK N   1      36.681  10.419  11.935  0.00  0.00    -0.004 C 
HETATM   22  C   UNK N   1      37.199   9.284  12.794  0.00  0.00     0.005 C 
ENDBRANCH  20  21
ENDBRANCH  19  20
ENDBRANCH  15  19
ENDBRANCH   7   8
ENDBRANCH   1   7
BRANCH   6  23
HETATM   23  C   UNK N   1      35.549   9.855  16.825  0.00  0.00    -0.012 A 
HETATM   24  C   UNK N   1      35.349  10.044  18.229  0.00  0.00     0.021 A 
HETATM   25  C   UNK N   1      35.156   8.914  19.041  0.00  0.00     0.016 A 
HETATM   26  C   UNK N   1      35.172   7.627  18.506  0.00  0.00     0.001 A 
HETATM   27  C   UNK N   1      35.412   7.442  17.149  0.00  0.00     0.001 A 
HETATM   28  C   UNK N   1      35.600   8.545  16.318  0.00  0.00     0.013 A 
BRANCH  24  29
HETATM   29  C   UNK N   1      35.441  11.357  18.923  0.00  0.00     0.145 A 
HETATM   30  N   UNK N   1      35.854  11.559  20.186  0.00  0.00    -0.271 N 
HETATM   31  N   UNK N   1      35.687  12.851  20.417  0.00  0.00    -0.225 N 
ATOM     32  HN  UNK N   1      36.220  10.861  20.833  1.00  0.00     0.190 HD
HETATM   33  N   UNK N   1      35.175  13.426  19.342  0.00  0.00    -0.005 NA
HETATM   34  H   UNK N   1      35.909  13.311  21.259  0.00  0.00     0.205 HD
HETATM   35  N   UNK N   1      35.003  12.516  18.396  0.00  0.00    -0.266 N 
ATOM     36  HN  UNK N   1      34.618  12.662  17.463  1.00  0.00     0.186 HD
ENDBRANCH  24  29
ENDBRANCH   6  23
TORSDOF 7
ENDMDL
