REMARK  7 active torsions:
REMARK  status: ('A' for Active; 'I' for Inactive)
REMARK    1  A    between atoms: N_4  and  C_19 
REMARK    2  A    between atoms: C_17  and  C_18 
REMARK    3  A    between atoms: C_18  and  C_20 
REMARK    4  A    between atoms: C_19  and  C_21 
REMARK    5  A    between atoms: C_20  and  C_22 
REMARK    6  A    between atoms: C_28  and  C_29 
REMARK    7  A    between atoms: C_30  and  C_34 
ROOT
HETATM    1  C   UNK N   1       3.162  -0.015  -0.006  0.00  0.00    -0.040 A 
HETATM    2  C   UNK N   1       4.103   0.366  -0.970  0.00  0.00     0.010 A 
HETATM    3  C   UNK N   1       2.681   0.930   0.902  0.00  0.00     0.010 A 
HETATM    4  C   UNK N   1       4.600   1.673  -0.987  0.00  0.00     0.013 A 
HETATM    5  C   UNK N   1       3.144   2.246   0.856  0.00  0.00     0.013 A 
HETATM    6  C   UNK N   1       4.096   2.635  -0.099  0.00  0.00    -0.025 A 
ENDROOT
BRANCH   1   7
HETATM    7  C   UNK N   1       2.572  -1.390  -0.004  0.00  0.00     0.172 C 
BRANCH   7   8
HETATM    8  N   UNK N   1       3.490  -2.517   0.113  0.00  0.00    -0.301 N 
HETATM    9  C   UNK N   1       3.089  -3.787  -0.016  0.00  0.00     0.254 A 
HETATM   10  O   UNK N   1       1.928  -4.116  -0.215  0.00  0.00    -0.270 OA
HETATM   11  C   UNK N   1       4.253  -4.728   0.102  0.00  0.00     0.113 A 
HETATM   12  N   UNK N   1       5.328  -3.774   0.345  0.00  0.00    -0.362 N 
HETATM   13  C   UNK N   1       4.109  -5.706   1.254  0.00  0.00     0.041 C 
HETATM   14  C   UNK N   1       4.486  -5.531  -1.166  0.00  0.00     0.041 C 
HETATM   15  C   UNK N   1       4.882  -2.567   0.347  0.00  0.00     0.083 A 
ATOM     16  HN  UNK N   1       6.304  -4.029   0.494  1.00  0.00     0.162 HD
HETATM   17  C   UNK N   1       4.461  -7.062   0.677  0.00  0.00     0.003 C 
HETATM   18  C   UNK N   1       4.138  -6.957  -0.798  0.00  0.00     0.003 C 
BRANCH  15  19
HETATM   19  C   UNK N   1       5.765  -1.400   0.663  0.00  0.00     0.076 C 
BRANCH  19  20
HETATM   20  C   UNK N   1       6.939  -1.306  -0.296  0.00  0.00     0.007 C 
BRANCH  20  21
HETATM   21  C   UNK N   1       7.763  -0.087   0.067  0.00  0.00    -0.004 C 
HETATM   22  C   UNK N   1       9.157  -0.213  -0.511  0.00  0.00     0.005 C 
ENDBRANCH  20  21
ENDBRANCH  19  20
ENDBRANCH  15  19
ENDBRANCH   7   8
ENDBRANCH   1   7
BRANCH   6  23
HETATM   23  C   UNK N   1       4.645   4.014  -0.103  0.00  0.00    -0.012 A 
HETATM   24  C   UNK N   1       3.854   5.194   0.071  0.00  0.00     0.021 A 
HETATM   25  C   UNK N   1       4.503   6.438   0.136  0.00  0.00     0.016 A 
HETATM   26  C   UNK N   1       5.888   6.538   0.019  0.00  0.00     0.001 A 
HETATM   27  C   UNK N   1       6.652   5.396  -0.196  0.00  0.00     0.001 A 
HETATM   28  C   UNK N   1       6.035   4.148  -0.258  0.00  0.00     0.013 A 
BRANCH  24  29
HETATM   29  C   UNK N   1       2.366   5.216   0.078  0.00  0.00     0.145 A 
HETATM   30  N   UNK N   1       1.556   4.185  -0.219  0.00  0.00    -0.271 N 
HETATM   31  N   UNK N   1       0.326   4.670  -0.178  0.00  0.00    -0.225 N 
ATOM     32  HN  UNK N   1       1.833   3.227  -0.431  1.00  0.00     0.190 HD
HETATM   33  N   UNK N   1       0.372   5.958   0.118  0.00  0.00    -0.005 NA
HETATM   34  H   UNK N   1      -0.495   4.152  -0.343  0.00  0.00     0.205 HD
HETATM   35  N   UNK N   1       1.633   6.328   0.275  0.00  0.00    -0.266 N 
ATOM     36  HN  UNK N   1       1.978   7.262   0.498  1.00  0.00     0.186 HD
ENDBRANCH  24  29
ENDBRANCH   6  23
TORSDOF 7
