REMARK  5 active torsions:
REMARK  status: ('A' for Active; 'I' for Inactive)
REMARK    1  A    between atoms: C_10  and  O_2 
REMARK    2  A    between atoms: O_5  and  C_29 
REMARK    3  A    between atoms: N_9  and  C_27 
REMARK    4  A    between atoms: C_10  and  C_19 
REMARK    5  A    between atoms: C_25  and  C_27 
ROOT
HETATM    1  O   UNK N   1       6.007   6.228  -0.556  0.00  0.00    -0.314 OA
HETATM    2  O   UNK N   1       2.514   3.983  -0.273  0.00  0.00    -0.267 OA
HETATM    3  O   UNK N   1       8.220   6.287  -0.698  0.00  0.00    -0.261 OA
HETATM    4  N   UNK N   1       3.631   2.053   0.033  0.00  0.00    -0.307 N 
HETATM    5  N   UNK N   1       5.501  -0.966   0.407  0.00  0.00    -0.353 N 
ATOM      6  HN  UNK N   1       6.482  -0.739   0.568  1.00  0.00     0.166 HD
HETATM    7  C   UNK N   1       7.365   4.133  -0.278  0.00  0.00     0.173 A 
HETATM    8  C   UNK N   1       6.031   3.443  -0.096  0.00  0.00     0.002 A 
HETATM    9  C   UNK N   1       4.800   1.409   0.191  0.00  0.00     0.065 A 
HETATM   10  C   UNK N   1       2.501   1.099   0.005  0.00  0.00     0.173 A 
HETATM   11  C   UNK N   1       4.802   4.140  -0.205  0.00  0.00     0.044 A 
HETATM   12  C   UNK N   1       3.250  -0.217   0.114  0.00  0.00    -0.010 A 
HETATM   13  C   UNK N   1       4.582   0.017   0.285  0.00  0.00     0.068 A 
HETATM   14  C   UNK N   1       6.015   2.060   0.120  0.00  0.00     0.043 A 
HETATM   15  C   UNK N   1       3.587   3.415  -0.140  0.00  0.00     0.257 A 
HETATM   16  C   UNK N   1       4.770   5.623  -0.438  0.00  0.00     0.224 A 
HETATM   17  C   UNK N   1       7.216   5.615  -0.517  0.00  0.00     0.298 A 
HETATM   18  C   UNK N   1       2.789  -1.527  -0.030  0.00  0.00     0.025 A 
HETATM   19  C   UNK N   1       3.735  -2.579   0.047  0.00  0.00     0.002 A 
HETATM   20  C   UNK N   1       5.102  -2.262   0.314  0.00  0.00     0.043 A 
HETATM   21  C   UNK N   1       3.376  -3.926  -0.183  0.00  0.00     0.015 A 
HETATM   22  C   UNK N   1       6.053  -3.275   0.409  0.00  0.00     0.033 A 
HETATM   23  C   UNK N   1       4.361  -4.929  -0.100  0.00  0.00     0.074 A 
HETATM   24  C   UNK N   1       5.681  -4.602   0.216  0.00  0.00     0.039 A 
ENDROOT
BRANCH   7  25
HETATM   25  O   UNK N   1       7.994   3.586  -1.403  0.00  0.00    -0.375 OA
HETATM   26  H   UNK N   1       7.883   3.019  -2.182  0.00  0.00     0.211 HD
ENDBRANCH   7  25
BRANCH   7  27
HETATM   27  C   UNK N   1       8.268   3.940   0.952  0.00  0.00     0.049 C 
HETATM   28  C   UNK N   1       8.814   2.523   1.089  0.00  0.00     0.009 C 
ENDBRANCH   7  27
BRANCH  21  29
HETATM   29  C   UNK N   1       1.984  -4.308  -0.598  0.00  0.00     0.313 C 
BRANCH  29  30
HETATM   30  N   UNK N   1       1.048  -4.204   0.504  0.00  0.00     0.084 N 
HETATM   31  C   UNK N   1      -0.161  -3.610  -0.037  0.00  0.00     0.309 C 
HETATM   32  C   UNK N   1       0.708  -5.565   0.880  0.00  0.00     0.309 C 
ENDBRANCH  29  30
ENDBRANCH  21  29
BRANCH  23  33
HETATM   33  O   UNK N   1       4.045  -6.215  -0.334  0.00  0.00    -0.360 OA
HETATM   34  H   UNK N   1       3.159  -6.472  -0.498  0.00  0.00     0.217 HD
ENDBRANCH  23  33
TORSDOF 5
