MODEL 1
REMARK VINA RESULT:      -7.6      0.000      0.000
REMARK  5 active torsions:
REMARK  status: ('A' for Active; 'I' for Inactive)
REMARK    1  A    between atoms: C_10  and  O_2 
REMARK    2  A    between atoms: O_5  and  C_29 
REMARK    3  A    between atoms: N_9  and  C_27 
REMARK    4  A    between atoms: C_10  and  C_19 
REMARK    5  A    between atoms: C_25  and  C_27 
ROOT
HETATM    1  O   UNK N   1      35.662  12.739   8.113  0.00  0.00    -0.314 OA
HETATM    2  O   UNK N   1      34.830   9.575  10.686  0.00  0.00    -0.267 OA
HETATM    3  O   UNK N   1      36.211  14.871   7.840  0.00  0.00    -0.261 OA
HETATM    4  N   UNK N   1      34.821  10.896  12.508  0.00  0.00    -0.307 N 
HETATM    5  N   UNK N   1      34.934  13.063  15.345  0.00  0.00    -0.353 N 
ATOM      6  HN  UNK N   1      34.949  14.032  15.030  1.00  0.00     0.166 HD
HETATM    7  C   UNK N   1      35.733  14.305  10.076  0.00  0.00     0.173 A 
HETATM    8  C   UNK N   1      35.335  13.096  10.894  0.00  0.00     0.002 A 
HETATM    9  C   UNK N   1      34.912  12.126  13.042  0.00  0.00     0.065 A 
HETATM   10  C   UNK N   1      34.679   9.870  13.564  0.00  0.00     0.173 A 
HETATM   11  C   UNK N   1      35.183  11.812  10.314  0.00  0.00     0.044 A 
HETATM   12  C   UNK N   1      34.769  10.740  14.806  0.00  0.00    -0.010 A 
HETATM   13  C   UNK N   1      34.840  12.054  14.451  0.00  0.00     0.068 A 
HETATM   14  C   UNK N   1      35.180  13.243  12.277  0.00  0.00     0.043 A 
HETATM   15  C   UNK N   1      34.924  10.700  11.153  0.00  0.00     0.257 A 
HETATM   16  C   UNK N   1      35.341  11.605   8.835  0.00  0.00     0.224 A 
HETATM   17  C   UNK N   1      35.876  13.983   8.609  0.00  0.00     0.298 A 
HETATM   18  C   UNK N   1      34.881  10.377  16.149  0.00  0.00     0.025 A 
HETATM   19  C   UNK N   1      35.028  11.410  17.108  0.00  0.00     0.002 A 
HETATM   20  C   UNK N   1      35.007  12.769  16.670  0.00  0.00     0.043 A 
HETATM   21  C   UNK N   1      35.245  11.134  18.477  0.00  0.00     0.015 A 
HETATM   22  C   UNK N   1      35.135  13.807  17.590  0.00  0.00     0.033 A 
HETATM   23  C   UNK N   1      35.391  12.202  19.384  0.00  0.00     0.074 A 
HETATM   24  C   UNK N   1      35.312  13.524  18.941  0.00  0.00     0.039 A 
ENDROOT
BRANCH   7  25
HETATM   25  O   UNK N   1      36.978  14.755  10.531  0.00  0.00    -0.375 OA
HETATM   26  H   UNK N   1      37.550  14.869  11.306  0.00  0.00     0.211 HD
ENDBRANCH   7  25
BRANCH   7  27
HETATM   27  C   UNK N   1      34.703  15.438  10.214  0.00  0.00     0.049 C 
HETATM   28  C   UNK N   1      35.313  16.763  10.658  0.00  0.00     0.009 C 
ENDBRANCH   7  27
BRANCH  21  29
HETATM   29  C   UNK N   1      35.409   9.728  18.979  0.00  0.00     0.313 C 
BRANCH  29  30
HETATM   30  N   UNK N   1      34.130   9.066  19.147  0.00  0.00     0.084 N 
HETATM   31  C   UNK N   1      34.342   7.670  18.811  0.00  0.00     0.309 C 
HETATM   32  C   UNK N   1      33.833   9.109  20.568  0.00  0.00     0.309 C 
ENDBRANCH  29  30
ENDBRANCH  21  29
BRANCH  23  33
HETATM   33  O   UNK N   1      35.617  11.962  20.687  0.00  0.00    -0.360 OA
HETATM   34  H   UNK N   1      35.712  11.086  21.008  0.00  0.00     0.217 HD
ENDBRANCH  23  33
TORSDOF 5
ENDMDL
MODEL 2
REMARK VINA RESULT:      -7.6      5.193     10.185
REMARK  5 active torsions:
REMARK  status: ('A' for Active; 'I' for Inactive)
REMARK    1  A    between atoms: C_10  and  O_2 
REMARK    2  A    between atoms: O_5  and  C_29 
REMARK    3  A    between atoms: N_9  and  C_27 
REMARK    4  A    between atoms: C_10  and  C_19 
REMARK    5  A    between atoms: C_25  and  C_27 
ROOT
HETATM    1  O   UNK N   1      37.418  12.045  10.819  0.00  0.00    -0.314 OA
HETATM    2  O   UNK N   1      36.704  14.233   7.351  0.00  0.00    -0.267 OA
HETATM    3  O   UNK N   1      36.696  11.313  12.784  0.00  0.00    -0.261 OA
HETATM    4  N   UNK N   1      34.770  15.078   8.133  0.00  0.00    -0.307 N 
HETATM    5  N   UNK N   1      31.667  16.279   9.429  0.00  0.00    -0.353 N 
ATOM      6  HN  UNK N   1      31.604  16.053  10.421  1.00  0.00     0.166 HD
HETATM    7  C   UNK N   1      35.251  12.878  11.779  0.00  0.00     0.173 A 
HETATM    8  C   UNK N   1      35.152  13.700  10.513  0.00  0.00     0.002 A 
HETATM    9  C   UNK N   1      33.886  15.198   9.138  0.00  0.00     0.065 A 
HETATM   10  C   UNK N   1      34.297  15.789   6.925  0.00  0.00     0.173 A 
HETATM   11  C   UNK N   1      36.120  13.615   9.482  0.00  0.00     0.044 A 
HETATM   12  C   UNK N   1      32.946  16.284   7.409  0.00  0.00    -0.010 A 
HETATM   13  C   UNK N   1      32.778  15.970   8.725  0.00  0.00     0.068 A 
HETATM   14  C   UNK N   1      34.031  14.519  10.331  0.00  0.00     0.043 A 
HETATM   15  C   UNK N   1      35.908  14.322   8.273  0.00  0.00     0.257 A 
HETATM   16  C   UNK N   1      37.337  12.748   9.632  0.00  0.00     0.224 A 
HETATM   17  C   UNK N   1      36.504  12.038  11.820  0.00  0.00     0.298 A 
HETATM   18  C   UNK N   1      31.902  16.881   6.700  0.00  0.00     0.025 A 
HETATM   19  C   UNK N   1      30.705  17.176   7.399  0.00  0.00     0.002 A 
HETATM   20  C   UNK N   1      30.633  16.897   8.798  0.00  0.00     0.043 A 
HETATM   21  C   UNK N   1      29.564  17.690   6.743  0.00  0.00     0.015 A 
HETATM   22  C   UNK N   1      29.475  17.189   9.514  0.00  0.00     0.033 A 
HETATM   23  C   UNK N   1      28.399  17.958   7.488  0.00  0.00     0.074 A 
HETATM   24  C   UNK N   1      28.369  17.728   8.865  0.00  0.00     0.039 A 
ENDROOT
BRANCH   7  25
HETATM   25  O   UNK N   1      34.157  12.006  11.825  0.00  0.00    -0.375 OA
HETATM   26  H   UNK N   1      33.195  11.937  11.930  0.00  0.00     0.211 HD
ENDBRANCH   7  25
BRANCH   7  27
HETATM   27  C   UNK N   1      35.239  13.773  13.030  0.00  0.00     0.049 C 
HETATM   28  C   UNK N   1      36.365  14.801  13.053  0.00  0.00     0.009 C 
ENDBRANCH   7  27
BRANCH  21  29
HETATM   29  C   UNK N   1      29.532  17.880   5.253  0.00  0.00     0.313 C 
BRANCH  29  30
HETATM   30  N   UNK N   1      29.090  16.681   4.569  0.00  0.00     0.084 N 
HETATM   31  C   UNK N   1      27.895  17.045   3.831  0.00  0.00     0.309 C 
HETATM   32  C   UNK N   1      30.110  16.376   3.581  0.00  0.00     0.309 C 
ENDBRANCH  29  30
ENDBRANCH  21  29
BRANCH  23  33
HETATM   33  O   UNK N   1      27.295  18.429   6.881  0.00  0.00    -0.360 OA
HETATM   34  H   UNK N   1      27.297  18.630   5.965  0.00  0.00     0.217 HD
ENDBRANCH  23  33
TORSDOF 5
ENDMDL
MODEL 3
REMARK VINA RESULT:      -7.6      2.777      5.185
REMARK  5 active torsions:
REMARK  status: ('A' for Active; 'I' for Inactive)
REMARK    1  A    between atoms: C_10  and  O_2 
REMARK    2  A    between atoms: O_5  and  C_29 
REMARK    3  A    between atoms: N_9  and  C_27 
REMARK    4  A    between atoms: C_10  and  C_19 
REMARK    5  A    between atoms: C_25  and  C_27 
ROOT
HETATM    1  O   UNK N   1      33.242  17.934   6.858  0.00  0.00    -0.314 OA
HETATM    2  O   UNK N   1      35.694  17.897  10.221  0.00  0.00    -0.267 OA
HETATM    3  O   UNK N   1      31.778  16.884   5.564  0.00  0.00    -0.261 OA
HETATM    4  N   UNK N   1      35.341  15.708  10.608  0.00  0.00    -0.307 N 
HETATM    5  N   UNK N   1      34.631  12.258  11.193  0.00  0.00    -0.353 N 
ATOM      6  HN  UNK N   1      34.150  11.869  10.382  1.00  0.00     0.166 HD
HETATM    7  C   UNK N   1      32.727  15.502   7.219  0.00  0.00     0.173 A 
HETATM    8  C   UNK N   1      33.714  15.592   8.361  0.00  0.00     0.002 A 
HETATM    9  C   UNK N   1      34.782  14.545  10.232  0.00  0.00     0.065 A 
HETATM   10  C   UNK N   1      36.050  15.561  11.898  0.00  0.00     0.173 A 
HETATM   11  C   UNK N   1      34.346  16.809   8.716  0.00  0.00     0.044 A 
HETATM   12  C   UNK N   1      35.738  14.111  12.219  0.00  0.00    -0.010 A 
HETATM   13  C   UNK N   1      35.051  13.542  11.189  0.00  0.00     0.068 A 
HETATM   14  C   UNK N   1      33.956  14.447   9.130  0.00  0.00     0.043 A 
HETATM   15  C   UNK N   1      35.171  16.852   9.867  0.00  0.00     0.257 A 
HETATM   16  C   UNK N   1      34.116  18.062   7.921  0.00  0.00     0.224 A 
HETATM   17  C   UNK N   1      32.563  16.817   6.498  0.00  0.00     0.298 A 
HETATM   18  C   UNK N   1      35.963  13.382  13.389  0.00  0.00     0.025 A 
HETATM   19  C   UNK N   1      35.494  12.046  13.442  0.00  0.00     0.002 A 
HETATM   20  C   UNK N   1      34.858  11.489  12.291  0.00  0.00     0.043 A 
HETATM   21  C   UNK N   1      35.590  11.266  14.616  0.00  0.00     0.015 A 
HETATM   22  C   UNK N   1      34.398  10.175  12.308  0.00  0.00     0.033 A 
HETATM   23  C   UNK N   1      35.100   9.946  14.613  0.00  0.00     0.074 A 
HETATM   24  C   UNK N   1      34.531   9.404  13.459  0.00  0.00     0.039 A 
ENDROOT
BRANCH   7  25
HETATM   25  O   UNK N   1      31.477  15.150   7.743  0.00  0.00    -0.375 OA
HETATM   26  H   UNK N   1      30.662  14.647   7.593  0.00  0.00     0.211 HD
ENDBRANCH   7  25
BRANCH   7  27
HETATM   27  C   UNK N   1      33.159  14.447   6.186  0.00  0.00     0.049 C 
HETATM   28  C   UNK N   1      34.486  14.767   5.508  0.00  0.00     0.009 C 
ENDBRANCH   7  27
BRANCH  21  29
HETATM   29  C   UNK N   1      36.127  11.838  15.897  0.00  0.00     0.313 C 
BRANCH  29  30
HETATM   30  N   UNK N   1      35.061  12.266  16.782  0.00  0.00     0.084 N 
HETATM   31  C   UNK N   1      35.291  11.604  18.053  0.00  0.00     0.309 C 
HETATM   32  C   UNK N   1      35.267  13.685  17.011  0.00  0.00     0.309 C 
ENDBRANCH  29  30
ENDBRANCH  21  29
BRANCH  23  33
HETATM   33  O   UNK N   1      35.164   9.192  15.725  0.00  0.00    -0.360 OA
HETATM   34  H   UNK N   1      34.394   9.000  16.222  0.00  0.00     0.217 HD
ENDBRANCH  23  33
TORSDOF 5
ENDMDL
MODEL 4
REMARK VINA RESULT:      -7.1      3.671      9.474
REMARK  5 active torsions:
REMARK  status: ('A' for Active; 'I' for Inactive)
REMARK    1  A    between atoms: C_10  and  O_2 
REMARK    2  A    between atoms: O_5  and  C_29 
REMARK    3  A    between atoms: N_9  and  C_27 
REMARK    4  A    between atoms: C_10  and  C_19 
REMARK    5  A    between atoms: C_25  and  C_27 
ROOT
HETATM    1  O   UNK N   1      37.245  10.572  14.403  0.00  0.00    -0.314 OA
HETATM    2  O   UNK N   1      38.553  12.642  11.038  0.00  0.00    -0.267 OA
HETATM    3  O   UNK N   1      35.573   9.968  15.731  0.00  0.00    -0.261 OA
HETATM    4  N   UNK N   1      36.556  13.629  10.715  0.00  0.00    -0.307 N 
HETATM    5  N   UNK N   1      33.319  15.059  10.233  0.00  0.00    -0.353 N 
ATOM      6  HN  UNK N   1      32.744  14.881  11.056  1.00  0.00     0.166 HD
HETATM    7  C   UNK N   1      34.957  11.567  14.115  0.00  0.00     0.173 A 
HETATM    8  C   UNK N   1      35.574  12.337  12.968  0.00  0.00     0.002 A 
HETATM    9  C   UNK N   1      35.294  13.842  11.126  0.00  0.00     0.065 A 
HETATM   10  C   UNK N   1      36.815  14.311   9.429  0.00  0.00     0.173 A 
HETATM   11  C   UNK N   1      36.923  12.152  12.577  0.00  0.00     0.044 A 
HETATM   12  C   UNK N   1      35.445  14.902   9.150  0.00  0.00    -0.010 A 
HETATM   13  C   UNK N   1      34.609  14.657  10.199  0.00  0.00     0.068 A 
HETATM   14  C   UNK N   1      34.763  13.209  12.232  0.00  0.00     0.043 A 
HETATM   15  C   UNK N   1      37.407  12.816  11.423  0.00  0.00     0.257 A 
HETATM   16  C   UNK N   1      37.830  11.226  13.335  0.00  0.00     0.224 A 
HETATM   17  C   UNK N   1      35.950  10.661  14.798  0.00  0.00     0.298 A 
HETATM   18  C   UNK N   1      34.953  15.526   8.002  0.00  0.00     0.025 A 
HETATM   19  C   UNK N   1      33.591  15.919   7.988  0.00  0.00     0.002 A 
HETATM   20  C   UNK N   1      32.798  15.706   9.157  0.00  0.00     0.043 A 
HETATM   21  C   UNK N   1      32.983  16.467   6.837  0.00  0.00     0.015 A 
HETATM   22  C   UNK N   1      31.461  16.094   9.179  0.00  0.00     0.033 A 
HETATM   23  C   UNK N   1      31.623  16.833   6.880  0.00  0.00     0.074 A 
HETATM   24  C   UNK N   1      30.881  16.666   8.051  0.00  0.00     0.039 A 
ENDROOT
BRANCH   7  25
HETATM   25  O   UNK N   1      33.933  10.761  13.603  0.00  0.00    -0.375 OA
HETATM   26  H   UNK N   1      33.220  10.141  13.824  0.00  0.00     0.211 HD
ENDBRANCH   7  25
BRANCH   7  27
HETATM   27  C   UNK N   1      34.373  12.515  15.177  0.00  0.00     0.049 C 
HETATM   28  C   UNK N   1      35.435  13.298  15.942  0.00  0.00     0.009 C 
ENDBRANCH   7  27
BRANCH  21  29
HETATM   29  C   UNK N   1      33.728  16.593   5.539  0.00  0.00     0.313 C 
BRANCH  29  30
HETATM   30  N   UNK N   1      33.385  15.526   4.619  0.00  0.00     0.084 N 
HETATM   31  C   UNK N   1      33.250  16.140   3.310  0.00  0.00     0.309 C 
HETATM   32  C   UNK N   1      34.546  14.657   4.551  0.00  0.00     0.309 C 
ENDBRANCH  29  30
ENDBRANCH  21  29
BRANCH  23  33
HETATM   33  O   UNK N   1      31.019  17.339   5.790  0.00  0.00    -0.360 OA
HETATM   34  H   UNK N   1      30.087  17.314   5.700  0.00  0.00     0.217 HD
ENDBRANCH  23  33
TORSDOF 5
ENDMDL
MODEL 5
REMARK VINA RESULT:      -7.0      2.199      2.323
REMARK  5 active torsions:
REMARK  status: ('A' for Active; 'I' for Inactive)
REMARK    1  A    between atoms: C_10  and  O_2 
REMARK    2  A    between atoms: O_5  and  C_29 
REMARK    3  A    between atoms: N_9  and  C_27 
REMARK    4  A    between atoms: C_10  and  C_19 
REMARK    5  A    between atoms: C_25  and  C_27 
ROOT
HETATM    1  O   UNK N   1      38.887  10.617   8.921  0.00  0.00    -0.314 OA
HETATM    2  O   UNK N   1      37.857   8.072  12.049  0.00  0.00    -0.267 OA
HETATM    3  O   UNK N   1      39.099  12.685   8.147  0.00  0.00    -0.261 OA
HETATM    4  N   UNK N   1      37.021   9.746  13.301  0.00  0.00    -0.307 N 
HETATM    5  N   UNK N   1      35.818  12.487  15.247  0.00  0.00    -0.353 N 
ATOM      6  HN  UNK N   1      35.758  13.319  14.660  1.00  0.00     0.166 HD
HETATM    7  C   UNK N   1      38.036  12.575  10.245  0.00  0.00     0.173 A 
HETATM    8  C   UNK N   1      37.621  11.541  11.269  0.00  0.00     0.002 A 
HETATM    9  C   UNK N   1      36.711  11.047  13.428  0.00  0.00     0.065 A 
HETATM   10  C   UNK N   1      36.735   9.009  14.551  0.00  0.00     0.173 A 
HETATM   11  C   UNK N   1      37.900  10.161  11.101  0.00  0.00     0.044 A 
HETATM   12  C   UNK N   1      36.260  10.146  15.437  0.00  0.00    -0.010 A 
HETATM   13  C   UNK N   1      36.202  11.304  14.720  0.00  0.00     0.068 A 
HETATM   14  C   UNK N   1      37.004  11.974  12.448  0.00  0.00     0.043 A 
HETATM   15  C   UNK N   1      37.590   9.260  12.149  0.00  0.00     0.257 A 
HETATM   16  C   UNK N   1      38.561   9.651   9.854  0.00  0.00     0.224 A 
HETATM   17  C   UNK N   1      38.700  11.955   9.041  0.00  0.00     0.298 A 
HETATM   18  C   UNK N   1      35.996  10.166  16.808  0.00  0.00     0.025 A 
HETATM   19  C   UNK N   1      35.635  11.401  17.400  0.00  0.00     0.002 A 
HETATM   20  C   UNK N   1      35.511  12.556  16.569  0.00  0.00     0.043 A 
HETATM   21  C   UNK N   1      35.445  11.536  18.794  0.00  0.00     0.015 A 
HETATM   22  C   UNK N   1      35.145  13.782  17.120  0.00  0.00     0.033 A 
HETATM   23  C   UNK N   1      35.095  12.791  19.327  0.00  0.00     0.074 A 
HETATM   24  C   UNK N   1      34.926  13.895  18.489  0.00  0.00     0.039 A 
ENDROOT
BRANCH   7  25
HETATM   25  O   UNK N   1      38.964  13.437  10.841  0.00  0.00    -0.375 OA
HETATM   26  H   UNK N   1      39.237  14.361  10.952  0.00  0.00     0.211 HD
ENDBRANCH   7  25
BRANCH   7  27
HETATM   27  C   UNK N   1      36.829  13.391   9.753  0.00  0.00     0.049 C 
HETATM   28  C   UNK N   1      36.888  14.862  10.148  0.00  0.00     0.009 C 
ENDBRANCH   7  27
BRANCH  21  29
HETATM   29  C   UNK N   1      35.691  10.390  19.734  0.00  0.00     0.313 C 
BRANCH  29  30
HETATM   30  N   UNK N   1      34.456   9.734  20.114  0.00  0.00     0.084 N 
HETATM   31  C   UNK N   1      34.536   8.378  19.603  0.00  0.00     0.309 C 
HETATM   32  C   UNK N   1      34.477   9.632  21.563  0.00  0.00     0.309 C 
ENDBRANCH  29  30
ENDBRANCH  21  29
BRANCH  23  33
HETATM   33  O   UNK N   1      34.928  12.945  20.652  0.00  0.00    -0.360 OA
HETATM   34  H   UNK N   1      34.316  12.417  21.127  0.00  0.00     0.217 HD
ENDBRANCH  23  33
TORSDOF 5
ENDMDL
MODEL 6
REMARK VINA RESULT:      -7.0      3.298      9.168
REMARK  5 active torsions:
REMARK  status: ('A' for Active; 'I' for Inactive)
REMARK    1  A    between atoms: C_10  and  O_2 
REMARK    2  A    between atoms: O_5  and  C_29 
REMARK    3  A    between atoms: N_9  and  C_27 
REMARK    4  A    between atoms: C_10  and  C_19 
REMARK    5  A    between atoms: C_25  and  C_27 
ROOT
HETATM    1  O   UNK N   1      35.101  10.080  15.583  0.00  0.00    -0.314 OA
HETATM    2  O   UNK N   1      34.350   9.428  11.541  0.00  0.00    -0.267 OA
HETATM    3  O   UNK N   1      35.456  11.510  17.242  0.00  0.00    -0.261 OA
HETATM    4  N   UNK N   1      34.668  11.591  11.005  0.00  0.00    -0.307 N 
HETATM    5  N   UNK N   1      35.091  15.061  10.279  0.00  0.00    -0.353 N 
ATOM      6  HN  UNK N   1      35.489  15.531  11.093  1.00  0.00     0.166 HD
HETATM    7  C   UNK N   1      35.426  12.527  15.118  0.00  0.00     0.173 A 
HETATM    8  C   UNK N   1      35.230  12.149  13.666  0.00  0.00     0.002 A 
HETATM    9  C   UNK N   1      35.003  12.836  11.384  0.00  0.00     0.065 A 
HETATM   10  C   UNK N   1      34.283  11.557   9.578  0.00  0.00     0.173 A 
HETATM   11  C   UNK N   1      34.936  10.821  13.268  0.00  0.00     0.044 A 
HETATM   12  C   UNK N   1      34.401  13.030   9.227  0.00  0.00    -0.010 A 
HETATM   13  C   UNK N   1      34.885  13.726  10.294  0.00  0.00     0.068 A 
HETATM   14  C   UNK N   1      35.276  13.158  12.698  0.00  0.00     0.043 A 
HETATM   15  C   UNK N   1      34.648  10.555  11.907  0.00  0.00     0.257 A 
HETATM   16  C   UNK N   1      34.874   9.706  14.272  0.00  0.00     0.224 A 
HETATM   17  C   UNK N   1      35.333  11.336  16.039  0.00  0.00     0.298 A 
HETATM   18  C   UNK N   1      34.009  13.712   8.073  0.00  0.00     0.025 A 
HETATM   19  C   UNK N   1      34.169  15.119   8.044  0.00  0.00     0.002 A 
HETATM   20  C   UNK N   1      34.764  15.771   9.167  0.00  0.00     0.043 A 
HETATM   21  C   UNK N   1      33.712  15.902   6.961  0.00  0.00     0.015 A 
HETATM   22  C   UNK N   1      34.947  17.152   9.163  0.00  0.00     0.033 A 
HETATM   23  C   UNK N   1      33.892  17.298   6.990  0.00  0.00     0.074 A 
HETATM   24  C   UNK N   1      34.525  17.909   8.074  0.00  0.00     0.039 A 
ENDROOT
BRANCH   7  25
HETATM   25  O   UNK N   1      34.411  13.421  15.481  0.00  0.00    -0.375 OA
HETATM   26  H   UNK N   1      34.122  14.077  16.134  0.00  0.00     0.211 HD
ENDBRANCH   7  25
BRANCH   7  27
HETATM   27  C   UNK N   1      36.793  13.195  15.343  0.00  0.00     0.049 C 
HETATM   28  C   UNK N   1      36.694  14.653  15.779  0.00  0.00     0.009 C 
ENDBRANCH   7  27
BRANCH  21  29
HETATM   29  C   UNK N   1      32.960  15.291   5.813  0.00  0.00     0.313 C 
BRANCH  29  30
HETATM   30  N   UNK N   1      33.838  14.979   4.702  0.00  0.00     0.084 N 
HETATM   31  C   UNK N   1      33.712  13.552   4.466  0.00  0.00     0.309 C 
HETATM   32  C   UNK N   1      33.276  15.642   3.539  0.00  0.00     0.309 C 
ENDBRANCH  29  30
ENDBRANCH  21  29
BRANCH  23  33
HETATM   33  O   UNK N   1      33.447  18.064   5.978  0.00  0.00    -0.360 OA
HETATM   34  H   UNK N   1      33.203  17.684   5.157  0.00  0.00     0.217 HD
ENDBRANCH  23  33
TORSDOF 5
ENDMDL
MODEL 7
REMARK VINA RESULT:      -6.9      5.981     11.193
REMARK  5 active torsions:
REMARK  status: ('A' for Active; 'I' for Inactive)
REMARK    1  A    between atoms: C_10  and  O_2 
REMARK    2  A    between atoms: O_5  and  C_29 
REMARK    3  A    between atoms: N_9  and  C_27 
REMARK    4  A    between atoms: C_10  and  C_19 
REMARK    5  A    between atoms: C_25  and  C_27 
ROOT
HETATM    1  O   UNK N   1      37.612  13.998  10.366  0.00  0.00    -0.314 OA
HETATM    2  O   UNK N   1      34.938  17.188  10.356  0.00  0.00    -0.267 OA
HETATM    3  O   UNK N   1      38.245  12.049   9.517  0.00  0.00    -0.261 OA
HETATM    4  N   UNK N   1      33.536  16.170   8.918  0.00  0.00    -0.307 N 
HETATM    5  N   UNK N   1      31.435  14.512   6.555  0.00  0.00    -0.353 N 
ATOM      6  HN  UNK N   1      31.733  13.541   6.460  1.00  0.00     0.166 HD
HETATM    7  C   UNK N   1      36.156  12.785   8.717  0.00  0.00     0.173 A 
HETATM    8  C   UNK N   1      35.217  13.961   8.871  0.00  0.00     0.002 A 
HETATM    9  C   UNK N   1      33.215  15.086   8.192  0.00  0.00     0.065 A 
HETATM   10  C   UNK N   1      32.570  17.267   8.687  0.00  0.00     0.173 A 
HETATM   11  C   UNK N   1      35.535  15.076   9.686  0.00  0.00     0.044 A 
HETATM   12  C   UNK N   1      31.672  16.626   7.644  0.00  0.00    -0.010 A 
HETATM   13  C   UNK N   1      32.049  15.333   7.435  0.00  0.00     0.068 A 
HETATM   14  C   UNK N   1      34.030  13.974   8.130  0.00  0.00     0.043 A 
HETATM   15  C   UNK N   1      34.668  16.196   9.696  0.00  0.00     0.257 A 
HETATM   16  C   UNK N   1      36.798  15.108  10.497  0.00  0.00     0.224 A 
HETATM   17  C   UNK N   1      37.396  12.926   9.565  0.00  0.00     0.298 A 
HETATM   18  C   UNK N   1      30.658  17.187   6.867  0.00  0.00     0.025 A 
HETATM   19  C   UNK N   1      30.025  16.365   5.902  0.00  0.00     0.002 A 
HETATM   20  C   UNK N   1      30.414  14.995   5.798  0.00  0.00     0.043 A 
HETATM   21  C   UNK N   1      29.057  16.872   5.006  0.00  0.00     0.015 A 
HETATM   22  C   UNK N   1      29.801  14.158   4.869  0.00  0.00     0.033 A 
HETATM   23  C   UNK N   1      28.467  16.009   4.063  0.00  0.00     0.074 A 
HETATM   24  C   UNK N   1      28.824  14.660   4.015  0.00  0.00     0.039 A 
ENDROOT
BRANCH   7  25
HETATM   25  O   UNK N   1      36.566  12.721   7.379  0.00  0.00    -0.375 OA
HETATM   26  H   UNK N   1      36.642  13.208   6.544  0.00  0.00     0.211 HD
ENDBRANCH   7  25
BRANCH   7  27
HETATM   27  C   UNK N   1      35.467  11.464   9.100  0.00  0.00     0.049 C 
HETATM   28  C   UNK N   1      35.000  11.422  10.551  0.00  0.00     0.009 C 
ENDBRANCH   7  27
BRANCH  21  29
HETATM   29  C   UNK N   1      28.703  18.332   4.976  0.00  0.00     0.313 C 
BRANCH  29  30
HETATM   30  N   UNK N   1      27.468  18.598   5.687  0.00  0.00     0.084 N 
HETATM   31  C   UNK N   1      27.812  19.457   6.804  0.00  0.00     0.309 C 
HETATM   32  C   UNK N   1      26.645  19.393   4.792  0.00  0.00     0.309 C 
ENDBRANCH  29  30
ENDBRANCH  21  29
BRANCH  23  33
HETATM   33  O   UNK N   1      27.558  16.475   3.188  0.00  0.00    -0.360 OA
HETATM   34  H   UNK N   1      26.745  16.030   3.054  0.00  0.00     0.217 HD
ENDBRANCH  23  33
TORSDOF 5
ENDMDL
MODEL 8
REMARK VINA RESULT:      -6.9     20.352     23.809
REMARK  5 active torsions:
REMARK  status: ('A' for Active; 'I' for Inactive)
REMARK    1  A    between atoms: C_10  and  O_2 
REMARK    2  A    between atoms: O_5  and  C_29 
REMARK    3  A    between atoms: N_9  and  C_27 
REMARK    4  A    between atoms: C_10  and  C_19 
REMARK    5  A    between atoms: C_25  and  C_27 
ROOT
HETATM    1  O   UNK N   1      34.432  19.455  -5.051  0.00  0.00    -0.314 OA
HETATM    2  O   UNK N   1      32.374  21.651  -2.176  0.00  0.00    -0.267 OA
HETATM    3  O   UNK N   1      34.669  18.858  -7.174  0.00  0.00    -0.261 OA
HETATM    4  N   UNK N   1      30.752  22.252  -3.616  0.00  0.00    -0.307 N 
HETATM    5  N   UNK N   1      28.289  23.234  -6.007  0.00  0.00    -0.353 N 
ATOM      6  HN  UNK N   1      28.404  22.683  -6.858  1.00  0.00     0.166 HD
HETATM    7  C   UNK N   1      32.713  20.104  -6.764  0.00  0.00     0.173 A 
HETATM    8  C   UNK N   1      32.008  20.787  -5.613  0.00  0.00     0.002 A 
HETATM    9  C   UNK N   1      30.212  22.172  -4.844  0.00  0.00     0.065 A 
HETATM   10  C   UNK N   1      29.989  23.188  -2.762  0.00  0.00     0.173 A 
HETATM   11  C   UNK N   1      32.554  20.817  -4.306  0.00  0.00     0.044 A 
HETATM   12  C   UNK N   1      28.947  23.676  -3.752  0.00  0.00    -0.010 A 
HETATM   13  C   UNK N   1      29.077  23.008  -4.933  0.00  0.00     0.068 A 
HETATM   14  C   UNK N   1      30.810  21.467  -5.868  0.00  0.00     0.043 A 
HETATM   15  C   UNK N   1      31.903  21.572  -3.300  0.00  0.00     0.257 A 
HETATM   16  C   UNK N   1      33.837  20.105  -3.986  0.00  0.00     0.224 A 
HETATM   17  C   UNK N   1      33.993  19.432  -6.334  0.00  0.00     0.298 A 
HETATM   18  C   UNK N   1      28.017  24.711  -3.640  0.00  0.00     0.025 A 
HETATM   19  C   UNK N   1      27.206  25.004  -4.764  0.00  0.00     0.002 A 
HETATM   20  C   UNK N   1      27.339  24.205  -5.941  0.00  0.00     0.043 A 
HETATM   21  C   UNK N   1      26.307  26.095  -4.775  0.00  0.00     0.015 A 
HETATM   22  C   UNK N   1      26.547  24.459  -7.057  0.00  0.00     0.033 A 
HETATM   23  C   UNK N   1      25.532  26.342  -5.924  0.00  0.00     0.074 A 
HETATM   24  C   UNK N   1      25.639  25.514  -7.043  0.00  0.00     0.039 A 
ENDROOT
BRANCH   7  25
HETATM   25  O   UNK N   1      33.047  21.076  -7.715  0.00  0.00    -0.375 OA
HETATM   26  H   UNK N   1      33.628  21.297  -8.459  0.00  0.00     0.211 HD
ENDBRANCH   7  25
BRANCH   7  27
HETATM   27  C   UNK N   1      31.816  19.040  -7.419  0.00  0.00     0.049 C 
HETATM   28  C   UNK N   1      31.370  19.406  -8.830  0.00  0.00     0.009 C 
ENDBRANCH   7  27
BRANCH  21  29
HETATM   29  C   UNK N   1      26.219  27.050  -3.620  0.00  0.00     0.313 C 
BRANCH  29  30
HETATM   30  N   UNK N   1      27.011  28.243  -3.848  0.00  0.00     0.084 N 
HETATM   31  C   UNK N   1      26.127  29.373  -3.625  0.00  0.00     0.309 C 
HETATM   32  C   UNK N   1      28.005  28.280  -2.790  0.00  0.00     0.309 C 
ENDBRANCH  29  30
ENDBRANCH  21  29
BRANCH  23  33
HETATM   33  O   UNK N   1      24.685  27.385  -5.963  0.00  0.00    -0.360 OA
HETATM   34  H   UNK N   1      24.058  27.523  -5.280  0.00  0.00     0.217 HD
ENDBRANCH  23  33
TORSDOF 5
ENDMDL
MODEL 9
REMARK VINA RESULT:      -6.8      8.223     11.382
REMARK  5 active torsions:
REMARK  status: ('A' for Active; 'I' for Inactive)
REMARK    1  A    between atoms: C_10  and  O_2 
REMARK    2  A    between atoms: O_5  and  C_29 
REMARK    3  A    between atoms: N_9  and  C_27 
REMARK    4  A    between atoms: C_10  and  C_19 
REMARK    5  A    between atoms: C_25  and  C_27 
ROOT
HETATM    1  O   UNK N   1      36.788  12.351   3.539  0.00  0.00    -0.314 OA
HETATM    2  O   UNK N   1      33.746  14.668   1.894  0.00  0.00    -0.267 OA
HETATM    3  O   UNK N   1      37.797  11.546   5.343  0.00  0.00    -0.261 OA
HETATM    4  N   UNK N   1      33.116  15.484   3.895  0.00  0.00    -0.307 N 
HETATM    5  N   UNK N   1      32.130  16.637   7.127  0.00  0.00    -0.353 N 
ATOM      6  HN  UNK N   1      32.839  16.374   7.812  1.00  0.00     0.166 HD
HETATM    7  C   UNK N   1      36.142  13.149   5.832  0.00  0.00     0.173 A 
HETATM    8  C   UNK N   1      35.137  14.018   5.109  0.00  0.00     0.002 A 
HETATM    9  C   UNK N   1      33.313  15.566   5.222  0.00  0.00     0.065 A 
HETATM   10  C   UNK N   1      31.910  16.239   3.492  0.00  0.00     0.173 A 
HETATM   11  C   UNK N   1      34.974  13.970   3.702  0.00  0.00     0.044 A 
HETATM   12  C   UNK N   1      31.419  16.717   4.847  0.00  0.00    -0.010 A 
HETATM   13  C   UNK N   1      32.304  16.354   5.818  0.00  0.00     0.068 A 
HETATM   14  C   UNK N   1      34.297  14.843   5.866  0.00  0.00     0.043 A 
HETATM   15  C   UNK N   1      33.937  14.722   3.099  0.00  0.00     0.257 A 
HETATM   16  C   UNK N   1      35.851  13.099   2.850  0.00  0.00     0.224 A 
HETATM   17  C   UNK N   1      36.959  12.307   4.884  0.00  0.00     0.298 A 
HETATM   18  C   UNK N   1      30.221  17.341   5.199  0.00  0.00     0.025 A 
HETATM   19  C   UNK N   1      29.987  17.610   6.570  0.00  0.00     0.002 A 
HETATM   20  C   UNK N   1      30.999  17.279   7.522  0.00  0.00     0.043 A 
HETATM   21  C   UNK N   1      28.764  18.149   7.029  0.00  0.00     0.015 A 
HETATM   22  C   UNK N   1      30.804  17.544   8.876  0.00  0.00     0.033 A 
HETATM   23  C   UNK N   1      28.586  18.389   8.405  0.00  0.00     0.074 A 
HETATM   24  C   UNK N   1      29.609  18.108   9.312  0.00  0.00     0.039 A 
ENDROOT
BRANCH   7  25
HETATM   25  O   UNK N   1      35.444  12.276   6.675  0.00  0.00    -0.375 OA
HETATM   26  H   UNK N   1      34.926  11.457   6.723  0.00  0.00     0.211 HD
ENDBRANCH   7  25
BRANCH   7  27
HETATM   27  C   UNK N   1      37.114  13.996   6.671  0.00  0.00     0.049 C 
HETATM   28  C   UNK N   1      37.029  13.715   8.167  0.00  0.00     0.009 C 
ENDBRANCH   7  27
BRANCH  21  29
HETATM   29  C   UNK N   1      27.614  18.394   6.094  0.00  0.00     0.313 C 
BRANCH  29  30
HETATM   30  N   UNK N   1      27.730  19.676   5.426  0.00  0.00     0.084 N 
HETATM   31  C   UNK N   1      27.368  19.451   4.038  0.00  0.00     0.309 C 
HETATM   32  C   UNK N   1      26.695  20.524   5.991  0.00  0.00     0.309 C 
ENDBRANCH  29  30
ENDBRANCH  21  29
BRANCH  23  33
HETATM   33  O   UNK N   1      27.423  18.884   8.865  0.00  0.00    -0.360 OA
HETATM   34  H   UNK N   1      26.981  18.483   9.587  0.00  0.00     0.217 HD
ENDBRANCH  23  33
TORSDOF 5
ENDMDL
