MODEL 1
REMARK VINA RESULT:      -6.9      0.000      0.000
REMARK  1 active torsions:
REMARK  status: ('A' for Active; 'I' for Inactive)
REMARK    1  A    between atoms: N_5  and  C_7 
ROOT
HETATM    1  O   UNK N   1      31.628  16.219   8.724  0.00  0.00    -0.267 OA
HETATM    2  O   UNK N   1      35.370  15.920   6.228  0.00  0.00    -0.267 OA
HETATM    3  N   UNK N   1      33.714  15.947   7.798  0.00  0.00    -0.266 N 
HETATM    4  C   UNK N   1      32.392  16.289   7.776  0.00  0.00     0.262 A 
HETATM    5  C   UNK N   1      34.211  16.137   6.549  0.00  0.00     0.262 A 
HETATM    6  C   UNK N   1      32.029  16.741   6.432  0.00  0.00     0.048 A 
HETATM    7  C   UNK N   1      33.165  16.639   5.668  0.00  0.00     0.048 A 
HETATM    8  C   UNK N   1      30.829  17.207   5.898  0.00  0.00     0.018 A 
HETATM    9  C   UNK N   1      33.181  16.989   4.320  0.00  0.00     0.018 A 
HETATM   10  C   UNK N   1      30.813  17.572   4.539  0.00  0.00     0.001 A 
HETATM   11  C   UNK N   1      31.983  17.461   3.752  0.00  0.00     0.001 A 
ENDROOT
BRANCH   3  12
HETATM   12  C   UNK N   1      34.540  15.463   8.911  0.00  0.00     0.189 C 
HETATM   13  C   UNK N   1      33.946  14.172   9.479  0.00  0.00     0.045 C 
HETATM   14  C   UNK N   1      34.825  13.628  10.587  0.00  0.00     0.106 C 
HETATM   15  C   UNK N   1      35.006  14.679  11.640  0.00  0.00     0.224 C 
HETATM   16  O   UNK N   1      35.160  14.342  12.801  0.00  0.00    -0.273 OA
HETATM   17  N   UNK N   1      35.065  15.995  11.306  0.00  0.00    -0.296 N 
HETATM   18  C   UNK N   1      34.888  16.439  10.031  0.00  0.00     0.247 C 
HETATM   19  H   UNK N   1      35.242  16.654  12.015  0.00  0.00     0.171 HD
HETATM   20  O   UNK N   1      35.141  17.605   9.776  0.00  0.00    -0.271 OA
ENDBRANCH   3  12
TORSDOF 1
ENDMDL
MODEL 2
REMARK VINA RESULT:      -6.9     10.973     13.679
REMARK  1 active torsions:
REMARK  status: ('A' for Active; 'I' for Inactive)
REMARK    1  A    between atoms: N_5  and  C_7 
ROOT
HETATM    1  O   UNK N   1      23.344  14.274   7.271  0.00  0.00    -0.267 OA
HETATM    2  O   UNK N   1      19.691  13.645   9.835  0.00  0.00    -0.267 OA
HETATM    3  N   UNK N   1      21.288  14.167   8.290  0.00  0.00    -0.266 N 
HETATM    4  C   UNK N   1      22.630  13.938   8.201  0.00  0.00     0.262 A 
HETATM    5  C   UNK N   1      20.851  13.618   9.453  0.00  0.00     0.262 A 
HETATM    6  C   UNK N   1      23.081  13.211   9.389  0.00  0.00     0.048 A 
HETATM    7  C   UNK N   1      21.966  13.009  10.166  0.00  0.00     0.048 A 
HETATM    8  C   UNK N   1      24.338  12.761   9.785  0.00  0.00     0.018 A 
HETATM    9  C   UNK N   1      22.029  12.338  11.385  0.00  0.00     0.018 A 
HETATM   10  C   UNK N   1      24.435  12.083  11.015  0.00  0.00     0.001 A 
HETATM   11  C   UNK N   1      23.286  11.870  11.810  0.00  0.00     0.001 A 
ENDROOT
BRANCH   3  12
HETATM   12  C   UNK N   1      20.391  14.871   7.365  0.00  0.00     0.189 C 
HETATM   13  C   UNK N   1      20.319  14.118   6.034  0.00  0.00     0.045 C 
HETATM   14  C   UNK N   1      19.347  14.800   5.092  0.00  0.00     0.106 C 
HETATM   15  C   UNK N   1      19.751  16.232   4.912  0.00  0.00     0.224 C 
HETATM   16  O   UNK N   1      19.517  16.791   3.854  0.00  0.00    -0.273 OA
HETATM   17  N   UNK N   1      20.316  16.929   5.933  0.00  0.00    -0.296 N 
HETATM   18  C   UNK N   1      20.617  16.362   7.133  0.00  0.00     0.247 C 
HETATM   19  H   UNK N   1      20.516  17.883   5.798  0.00  0.00     0.171 HD
HETATM   20  O   UNK N   1      20.943  17.087   8.059  0.00  0.00    -0.271 OA
ENDBRANCH   3  12
TORSDOF 1
ENDMDL
MODEL 3
REMARK VINA RESULT:      -6.8     16.430     17.726
REMARK  1 active torsions:
REMARK  status: ('A' for Active; 'I' for Inactive)
REMARK    1  A    between atoms: N_5  and  C_7 
ROOT
HETATM    1  O   UNK N   1      29.062  24.213  -5.009  0.00  0.00    -0.267 OA
HETATM    2  O   UNK N   1      25.138  23.225  -6.994  0.00  0.00    -0.267 OA
HETATM    3  N   UNK N   1      26.913  24.017  -5.798  0.00  0.00    -0.266 N 
HETATM    4  C   UNK N   1      28.224  23.651  -5.693  0.00  0.00     0.262 A 
HETATM    5  C   UNK N   1      26.315  23.169  -6.674  0.00  0.00     0.262 A 
HETATM    6  C   UNK N   1      28.473  22.485  -6.542  0.00  0.00     0.048 A 
HETATM    7  C   UNK N   1      27.281  22.190  -7.157  0.00  0.00     0.048 A 
HETATM    8  C   UNK N   1      29.621  21.729  -6.773  0.00  0.00     0.018 A 
HETATM    9  C   UNK N   1      27.154  21.127  -8.047  0.00  0.00     0.018 A 
HETATM   10  C   UNK N   1      29.523  20.644  -7.666  0.00  0.00     0.001 A 
HETATM   11  C   UNK N   1      28.296  20.347  -8.302  0.00  0.00     0.001 A 
ENDROOT
BRANCH   3  12
HETATM   12  C   UNK N   1      26.184  25.102  -5.129  0.00  0.00     0.189 C 
HETATM   13  C   UNK N   1      26.390  26.415  -5.888  0.00  0.00     0.045 C 
HETATM   14  C   UNK N   1      25.590  27.529  -5.243  0.00  0.00     0.106 C 
HETATM   15  C   UNK N   1      25.973  27.644  -3.800  0.00  0.00     0.224 C 
HETATM   16  O   UNK N   1      25.924  28.733  -3.252  0.00  0.00    -0.273 OA
HETATM   17  N   UNK N   1      26.312  26.543  -3.080  0.00  0.00    -0.296 N 
HETATM   18  C   UNK N   1      26.400  25.301  -3.632  0.00  0.00     0.247 C 
HETATM   19  H   UNK N   1      26.503  26.646  -2.120  0.00  0.00     0.171 HD
HETATM   20  O   UNK N   1      26.521  24.338  -2.893  0.00  0.00    -0.271 OA
ENDBRANCH   3  12
TORSDOF 1
ENDMDL
MODEL 4
REMARK VINA RESULT:      -6.7     10.944     13.538
REMARK  1 active torsions:
REMARK  status: ('A' for Active; 'I' for Inactive)
REMARK    1  A    between atoms: N_5  and  C_7 
ROOT
HETATM    1  O   UNK N   1      20.005  13.672   9.379  0.00  0.00    -0.267 OA
HETATM    2  O   UNK N   1      24.132  13.768   7.569  0.00  0.00    -0.267 OA
HETATM    3  N   UNK N   1      21.922  13.880   8.131  0.00  0.00    -0.266 N 
HETATM    4  C   UNK N   1      21.205  13.514   9.233  0.00  0.00     0.262 A 
HETATM    5  C   UNK N   1      23.224  13.567   8.361  0.00  0.00     0.262 A 
HETATM    6  C   UNK N   1      22.103  12.915  10.221  0.00  0.00     0.048 A 
HETATM    7  C   UNK N   1      23.363  12.954   9.676  0.00  0.00     0.048 A 
HETATM    8  C   UNK N   1      21.871  12.373  11.484  0.00  0.00     0.018 A 
HETATM    9  C   UNK N   1      24.476  12.463  10.354  0.00  0.00     0.018 A 
HETATM   10  C   UNK N   1      22.976  11.864  12.193  0.00  0.00     0.001 A 
HETATM   11  C   UNK N   1      24.272  11.912  11.632  0.00  0.00     0.001 A 
ENDROOT
BRANCH   3  12
HETATM   12  C   UNK N   1      21.470  14.494   6.877  0.00  0.00     0.189 C 
HETATM   13  C   UNK N   1      21.206  15.987   7.092  0.00  0.00     0.045 C 
HETATM   14  C   UNK N   1      20.800  16.646   5.790  0.00  0.00     0.106 C 
HETATM   15  C   UNK N   1      19.607  15.937   5.225  0.00  0.00     0.224 C 
HETATM   16  O   UNK N   1      18.797  16.562   4.562  0.00  0.00    -0.273 OA
HETATM   17  N   UNK N   1      19.452  14.596   5.390  0.00  0.00    -0.296 N 
HETATM   18  C   UNK N   1      20.311  13.842   6.129  0.00  0.00     0.247 C 
HETATM   19  H   UNK N   1      18.687  14.153   4.957  0.00  0.00     0.171 HD
HETATM   20  O   UNK N   1      20.218  12.627   6.076  0.00  0.00    -0.271 OA
ENDBRANCH   3  12
TORSDOF 1
ENDMDL
MODEL 5
REMARK VINA RESULT:      -6.4     13.864     16.211
REMARK  1 active torsions:
REMARK  status: ('A' for Active; 'I' for Inactive)
REMARK    1  A    between atoms: N_5  and  C_7 
ROOT
HETATM    1  O   UNK N   1      30.103  24.249  -2.639  0.00  0.00    -0.267 OA
HETATM    2  O   UNK N   1      28.134  23.086  -6.522  0.00  0.00    -0.267 OA
HETATM    3  N   UNK N   1      28.861  23.981  -4.553  0.00  0.00    -0.266 N 
HETATM    4  C   UNK N   1      29.824  23.630  -3.651  0.00  0.00     0.262 A 
HETATM    5  C   UNK N   1      28.875  23.061  -5.552  0.00  0.00     0.262 A 
HETATM    6  C   UNK N   1      30.481  22.399  -4.094  0.00  0.00     0.048 A 
HETATM    7  C   UNK N   1      29.890  22.050  -5.284  0.00  0.00     0.048 A 
HETATM    8  C   UNK N   1      31.498  21.631  -3.531  0.00  0.00     0.018 A 
HETATM    9  C   UNK N   1      30.276  20.916  -5.994  0.00  0.00     0.018 A 
HETATM   10  C   UNK N   1      31.908  20.476  -4.224  0.00  0.00     0.001 A 
HETATM   11  C   UNK N   1      31.303  20.122  -5.451  0.00  0.00     0.001 A 
ENDROOT
BRANCH   3  12
HETATM   12  C   UNK N   1      27.928  25.113  -4.537  0.00  0.00     0.189 C 
HETATM   13  C   UNK N   1      28.705  26.431  -4.577  0.00  0.00     0.045 C 
HETATM   14  C   UNK N   1      27.751  27.608  -4.626  0.00  0.00     0.106 C 
HETATM   15  C   UNK N   1      26.815  27.537  -3.458  0.00  0.00     0.224 C 
HETATM   16  O   UNK N   1      26.381  28.570  -2.976  0.00  0.00    -0.273 OA
HETATM   17  N   UNK N   1      26.397  26.339  -2.972  0.00  0.00    -0.296 N 
HETATM   18  C   UNK N   1      26.853  25.150  -3.454  0.00  0.00     0.247 C 
HETATM   19  H   UNK N   1      25.738  26.330  -2.241  0.00  0.00     0.171 HD
HETATM   20  O   UNK N   1      26.297  24.123  -3.104  0.00  0.00    -0.271 OA
ENDBRANCH   3  12
TORSDOF 1
ENDMDL
MODEL 6
REMARK VINA RESULT:      -6.4      1.860      2.391
REMARK  1 active torsions:
REMARK  status: ('A' for Active; 'I' for Inactive)
REMARK    1  A    between atoms: N_5  and  C_7 
ROOT
HETATM    1  O   UNK N   1      30.755  17.757   9.004  0.00  0.00    -0.267 OA
HETATM    2  O   UNK N   1      32.660  16.021   5.307  0.00  0.00    -0.267 OA
HETATM    3  N   UNK N   1      32.050  16.812   7.359  0.00  0.00    -0.266 N 
HETATM    4  C   UNK N   1      30.926  17.412   7.847  0.00  0.00     0.262 A 
HETATM    5  C   UNK N   1      31.844  16.557   6.041  0.00  0.00     0.262 A 
HETATM    6  C   UNK N   1      29.948  17.564   6.769  0.00  0.00     0.048 A 
HETATM    7  C   UNK N   1      30.522  17.025   5.645  0.00  0.00     0.048 A 
HETATM    8  C   UNK N   1      28.671  18.122   6.741  0.00  0.00     0.018 A 
HETATM    9  C   UNK N   1      29.861  16.999   4.419  0.00  0.00     0.018 A 
HETATM   10  C   UNK N   1      27.978  18.114   5.515  0.00  0.00     0.001 A 
HETATM   11  C   UNK N   1      28.570  17.553   4.361  0.00  0.00     0.001 A 
ENDROOT
BRANCH   3  12
HETATM   12  C   UNK N   1      33.304  16.469   8.041  0.00  0.00     0.189 C 
HETATM   13  C   UNK N   1      33.030  15.464   9.163  0.00  0.00     0.045 C 
HETATM   14  C   UNK N   1      34.326  15.054   9.834  0.00  0.00     0.106 C 
HETATM   15  C   UNK N   1      35.037  16.275  10.330  0.00  0.00     0.224 C 
HETATM   16  O   UNK N   1      35.736  16.198  11.326  0.00  0.00    -0.273 OA
HETATM   17  N   UNK N   1      34.964  17.449   9.647  0.00  0.00    -0.296 N 
HETATM   18  C   UNK N   1      34.192  17.607   8.537  0.00  0.00     0.247 C 
HETATM   19  H   UNK N   1      35.490  18.216   9.970  0.00  0.00     0.171 HD
HETATM   20  O   UNK N   1      34.322  18.621   7.872  0.00  0.00    -0.271 OA
ENDBRANCH   3  12
TORSDOF 1
ENDMDL
MODEL 7
REMARK VINA RESULT:      -6.4      7.744     10.424
REMARK  1 active torsions:
REMARK  status: ('A' for Active; 'I' for Inactive)
REMARK    1  A    between atoms: N_5  and  C_7 
ROOT
HETATM    1  O   UNK N   1      35.255   9.300  16.112  0.00  0.00    -0.267 OA
HETATM    2  O   UNK N   1      35.037  13.576  14.704  0.00  0.00    -0.267 OA
HETATM    3  N   UNK N   1      35.155  11.319  15.020  0.00  0.00    -0.266 N 
HETATM    4  C   UNK N   1      35.222  10.519  16.123  0.00  0.00     0.262 A 
HETATM    5  C   UNK N   1      35.105  12.608  15.445  0.00  0.00     0.262 A 
HETATM    6  C   UNK N   1      35.233  11.351  17.328  0.00  0.00     0.048 A 
HETATM    7  C   UNK N   1      35.155  12.654  16.901  0.00  0.00     0.048 A 
HETATM    8  C   UNK N   1      35.309  11.030  18.682  0.00  0.00     0.018 A 
HETATM    9  C   UNK N   1      35.140  13.723  17.793  0.00  0.00     0.018 A 
HETATM   10  C   UNK N   1      35.301  12.089  19.609  0.00  0.00     0.001 A 
HETATM   11  C   UNK N   1      35.213  13.429  19.167  0.00  0.00     0.001 A 
ENDROOT
BRANCH   3  12
HETATM   12  C   UNK N   1      35.141  10.957  13.597  0.00  0.00     0.189 C 
HETATM   13  C   UNK N   1      33.804  10.305  13.237  0.00  0.00     0.045 C 
HETATM   14  C   UNK N   1      33.752   9.985  11.757  0.00  0.00     0.106 C 
HETATM   15  C   UNK N   1      34.920   9.119  11.395  0.00  0.00     0.224 C 
HETATM   16  O   UNK N   1      34.808   8.310  10.489  0.00  0.00    -0.273 OA
HETATM   17  N   UNK N   1      36.118   9.269  12.020  0.00  0.00    -0.296 N 
HETATM   18  C   UNK N   1      36.308  10.142  13.047  0.00  0.00     0.247 C 
HETATM   19  H   UNK N   1      36.879   8.723  11.718  0.00  0.00     0.171 HD
HETATM   20  O   UNK N   1      37.445  10.359  13.430  0.00  0.00    -0.271 OA
ENDBRANCH   3  12
TORSDOF 1
ENDMDL
MODEL 8
REMARK VINA RESULT:      -6.3     12.119     14.257
REMARK  1 active torsions:
REMARK  status: ('A' for Active; 'I' for Inactive)
REMARK    1  A    between atoms: N_5  and  C_7 
ROOT
HETATM    1  O   UNK N   1      19.529  15.673   7.905  0.00  0.00    -0.267 OA
HETATM    2  O   UNK N   1      22.591  13.180   5.732  0.00  0.00    -0.267 OA
HETATM    3  N   UNK N   1      20.973  14.612   6.468  0.00  0.00    -0.266 N 
HETATM    4  C   UNK N   1      20.380  14.830   7.678  0.00  0.00     0.262 A 
HETATM    5  C   UNK N   1      21.883  13.616   6.627  0.00  0.00     0.262 A 
HETATM    6  C   UNK N   1      20.935  13.904   8.666  0.00  0.00     0.048 A 
HETATM    7  C   UNK N   1      21.876  13.152   8.008  0.00  0.00     0.048 A 
HETATM    8  C   UNK N   1      20.659  13.709  10.018  0.00  0.00     0.018 A 
HETATM    9  C   UNK N   1      22.611  12.160   8.654  0.00  0.00     0.018 A 
HETATM   10  C   UNK N   1      21.383  12.711  10.698  0.00  0.00     0.001 A 
HETATM   11  C   UNK N   1      22.357  11.943  10.020  0.00  0.00     0.001 A 
ENDROOT
BRANCH   3  12
HETATM   12  C   UNK N   1      20.740  15.268   5.176  0.00  0.00     0.189 C 
HETATM   13  C   UNK N   1      21.475  16.609   5.130  0.00  0.00     0.045 C 
HETATM   14  C   UNK N   1      21.294  17.267   3.777  0.00  0.00     0.106 C 
HETATM   15  C   UNK N   1      19.831  17.413   3.487  0.00  0.00     0.224 C 
HETATM   16  O   UNK N   1      19.446  18.349   2.807  0.00  0.00    -0.273 OA
HETATM   17  N   UNK N   1      18.940  16.482   3.919  0.00  0.00    -0.296 N 
HETATM   18  C   UNK N   1      19.300  15.421   4.692  0.00  0.00     0.247 C 
HETATM   19  H   UNK N   1      17.995  16.579   3.662  0.00  0.00     0.171 HD
HETATM   20  O   UNK N   1      18.489  14.530   4.881  0.00  0.00    -0.271 OA
ENDBRANCH   3  12
TORSDOF 1
ENDMDL
MODEL 9
REMARK VINA RESULT:      -6.2     12.642     15.580
REMARK  1 active torsions:
REMARK  status: ('A' for Active; 'I' for Inactive)
REMARK    1  A    between atoms: N_5  and  C_7 
ROOT
HETATM    1  O   UNK N   1      30.512  23.732  -5.944  0.00  0.00    -0.267 OA
HETATM    2  O   UNK N   1      30.438  23.038  -1.491  0.00  0.00    -0.267 OA
HETATM    3  N   UNK N   1      30.170  23.650  -3.674  0.00  0.00    -0.266 N 
HETATM    4  C   UNK N   1      30.807  23.321  -4.835  0.00  0.00     0.262 A 
HETATM    5  C   UNK N   1      30.772  22.969  -2.664  0.00  0.00     0.262 A 
HETATM    6  C   UNK N   1      31.895  22.385  -4.545  0.00  0.00     0.048 A 
HETATM    7  C   UNK N   1      31.866  22.164  -3.190  0.00  0.00     0.048 A 
HETATM    8  C   UNK N   1      32.840  21.772  -5.365  0.00  0.00     0.018 A 
HETATM    9  C   UNK N   1      32.772  21.312  -2.563  0.00  0.00     0.018 A 
HETATM   10  C   UNK N   1      33.773  20.908  -4.760  0.00  0.00     0.001 A 
HETATM   11  C   UNK N   1      33.737  20.677  -3.366  0.00  0.00     0.001 A 
ENDROOT
BRANCH   3  12
HETATM   12  C   UNK N   1      29.042  24.562  -3.447  0.00  0.00     0.189 C 
HETATM   13  C   UNK N   1      27.750  23.936  -3.977  0.00  0.00     0.045 C 
HETATM   14  C   UNK N   1      26.568  24.840  -3.692  0.00  0.00     0.106 C 
HETATM   15  C   UNK N   1      26.824  26.194  -4.281  0.00  0.00     0.224 C 
HETATM   16  O   UNK N   1      25.884  26.864  -4.673  0.00  0.00    -0.273 OA
HETATM   17  N   UNK N   1      28.082  26.707  -4.323  0.00  0.00    -0.296 N 
HETATM   18  C   UNK N   1      29.176  26.008  -3.915  0.00  0.00     0.247 C 
HETATM   19  H   UNK N   1      28.207  27.622  -4.664  0.00  0.00     0.171 HD
HETATM   20  O   UNK N   1      30.240  26.595  -3.804  0.00  0.00    -0.271 OA
ENDBRANCH   3  12
TORSDOF 1
ENDMDL
