MODEL 1
REMARK VINA RESULT:      -5.4      0.000      0.000
REMARK  1 active torsions:
REMARK  status: ('A' for Active; 'I' for Inactive)
REMARK    1  A    between atoms: N_1  and  C_4 
ROOT
HETATM    1  C   UNK N   1      27.656  27.021  -6.090  0.00  0.00    -0.041 C 
HETATM    2  C   UNK N   1      26.775  25.452  -4.333  0.00  0.00    -0.041 C 
HETATM    3  C   UNK N   1      26.073  27.868  -4.323  0.00  0.00     0.025 C 
HETATM    4  C   UNK N   1      25.237  26.322  -6.128  0.00  0.00    -0.011 C 
HETATM    5  C   UNK N   1      27.988  25.810  -5.204  0.00  0.00     0.018 C 
HETATM    6  C   UNK N   1      27.292  28.218  -5.196  0.00  0.00     0.039 C 
HETATM    7  C   UNK N   1      26.412  26.653  -3.447  0.00  0.00     0.039 C 
HETATM    8  C   UNK N   1      26.458  26.680  -6.992  0.00  0.00     0.014 C 
HETATM    9  C   UNK N   1      25.581  25.112  -5.242  0.00  0.00     0.014 C 
HETATM   10  C   UNK N   1      24.882  27.521  -5.233  0.00  0.00     0.035 C 
HETATM   11  C   UNK N   1      28.856  27.362  -6.947  0.00  0.00     0.015 C 
HETATM   12  C   UNK N   1      27.112  24.261  -3.461  0.00  0.00     0.015 C 
ENDROOT
BRANCH   3  13
HETATM   13  N   UNK N   1      25.731  28.997  -3.481  0.00  0.00    -0.421 N 
HETATM   14  H   UNK N   1      25.795  30.012  -3.418  0.00  0.00     0.150 HD
HETATM   15  H   UNK N   1      25.255  28.648  -2.649  0.00  0.00     0.150 HD
ENDBRANCH   3  13
TORSDOF 1
ENDMDL
MODEL 2
REMARK VINA RESULT:      -5.2     25.674     27.401
REMARK  1 active torsions:
REMARK  status: ('A' for Active; 'I' for Inactive)
REMARK    1  A    between atoms: N_1  and  C_4 
ROOT
HETATM    1  C   UNK N   1      35.671  10.333  16.292  0.00  0.00    -0.041 C 
HETATM    2  C   UNK N   1      35.372  12.791  16.731  0.00  0.00    -0.041 C 
HETATM    3  C   UNK N   1      36.626  12.025  14.688  0.00  0.00     0.025 C 
HETATM    4  C   UNK N   1      34.133  11.692  14.834  0.00  0.00    -0.011 C 
HETATM    5  C   UNK N   1      35.592  11.416  17.379  0.00  0.00     0.018 C 
HETATM    6  C   UNK N   1      36.842  10.649  15.346  0.00  0.00     0.039 C 
HETATM    7  C   UNK N   1      36.541  13.100  15.783  0.00  0.00     0.039 C 
HETATM    8  C   UNK N   1      34.360  10.320  15.489  0.00  0.00     0.014 C 
HETATM    9  C   UNK N   1      34.060  12.770  15.930  0.00  0.00     0.014 C 
HETATM   10  C   UNK N   1      35.309  12.005  13.894  0.00  0.00     0.035 C 
HETATM   11  C   UNK N   1      35.883   8.982  16.941  0.00  0.00     0.015 C 
HETATM   12  C   UNK N   1      35.300  13.852  17.809  0.00  0.00     0.015 C 
ENDROOT
BRANCH   3  13
HETATM   13  N   UNK N   1      37.729  12.322  13.797  0.00  0.00    -0.421 N 
HETATM   14  H   UNK N   1      38.382  11.895  13.142  0.00  0.00     0.150 HD
HETATM   15  H   UNK N   1      37.923  13.323  13.844  0.00  0.00     0.150 HD
ENDBRANCH   3  13
TORSDOF 1
ENDMDL
MODEL 3
REMARK VINA RESULT:      -5.2      1.729      2.947
REMARK  1 active torsions:
REMARK  status: ('A' for Active; 'I' for Inactive)
REMARK    1  A    between atoms: N_1  and  C_4 
ROOT
HETATM    1  C   UNK N   1      27.565  28.598  -5.337  0.00  0.00    -0.041 C 
HETATM    2  C   UNK N   1      26.298  26.787  -6.538  0.00  0.00    -0.041 C 
HETATM    3  C   UNK N   1      27.559  26.249  -4.428  0.00  0.00     0.025 C 
HETATM    4  C   UNK N   1      25.467  27.648  -4.321  0.00  0.00    -0.011 C 
HETATM    5  C   UNK N   1      27.139  28.061  -6.712  0.00  0.00     0.018 C 
HETATM    6  C   UNK N   1      28.398  27.528  -4.611  0.00  0.00     0.039 C 
HETATM    7  C   UNK N   1      27.132  25.724  -5.807  0.00  0.00     0.039 C 
HETATM    8  C   UNK N   1      26.313  28.918  -4.504  0.00  0.00     0.014 C 
HETATM    9  C   UNK N   1      25.049  27.115  -5.703  0.00  0.00     0.014 C 
HETATM   10  C   UNK N   1      26.306  26.580  -3.600  0.00  0.00     0.035 C 
HETATM   11  C   UNK N   1      28.389  29.855  -5.520  0.00  0.00     0.015 C 
HETATM   12  C   UNK N   1      25.886  26.264  -7.897  0.00  0.00     0.015 C 
ENDROOT
BRANCH   3  13
HETATM   13  N   UNK N   1      28.344  25.241  -3.744  0.00  0.00    -0.421 N 
HETATM   14  H   UNK N   1      29.302  24.936  -3.569  0.00  0.00     0.150 HD
HETATM   15  H   UNK N   1      27.708  24.605  -3.263  0.00  0.00     0.150 HD
ENDBRANCH   3  13
TORSDOF 1
ENDMDL
MODEL 4
REMARK VINA RESULT:      -5.2      1.541      3.271
REMARK  1 active torsions:
REMARK  status: ('A' for Active; 'I' for Inactive)
REMARK    1  A    between atoms: N_1  and  C_4 
ROOT
HETATM    1  C   UNK N   1      26.828  25.393  -4.321  0.00  0.00    -0.041 C 
HETATM    2  C   UNK N   1      26.300  27.842  -4.543  0.00  0.00    -0.041 C 
HETATM    3  C   UNK N   1      27.719  26.701  -6.280  0.00  0.00     0.025 C 
HETATM    4  C   UNK N   1      25.259  26.181  -6.125  0.00  0.00    -0.011 C 
HETATM    5  C   UNK N   1      26.601  26.705  -3.555  0.00  0.00     0.018 C 
HETATM    6  C   UNK N   1      28.016  25.566  -5.282  0.00  0.00     0.039 C 
HETATM    7  C   UNK N   1      27.487  28.007  -5.505  0.00  0.00     0.039 C 
HETATM    8  C   UNK N   1      25.567  25.050  -5.131  0.00  0.00     0.014 C 
HETATM    9  C   UNK N   1      25.038  27.491  -5.350  0.00  0.00     0.014 C 
HETATM   10  C   UNK N   1      26.453  26.353  -7.080  0.00  0.00     0.035 C 
HETATM   11  C   UNK N   1      27.119  24.279  -3.337  0.00  0.00     0.015 C 
HETATM   12  C   UNK N   1      26.082  29.131  -3.781  0.00  0.00     0.015 C 
ENDROOT
BRANCH   3  13
HETATM   13  N   UNK N   1      28.839  26.864  -7.185  0.00  0.00    -0.421 N 
HETATM   14  H   UNK N   1      29.793  26.550  -7.363  0.00  0.00     0.150 HD
HETATM   15  H   UNK N   1      28.579  27.538  -7.906  0.00  0.00     0.150 HD
ENDBRANCH   3  13
TORSDOF 1
ENDMDL
MODEL 5
REMARK VINA RESULT:      -5.0     24.797     26.301
REMARK  1 active torsions:
REMARK  status: ('A' for Active; 'I' for Inactive)
REMARK    1  A    between atoms: N_1  and  C_4 
ROOT
HETATM    1  C   UNK N   1      35.282  12.435  15.605  0.00  0.00    -0.041 C 
HETATM    2  C   UNK N   1      34.772  10.934  13.653  0.00  0.00    -0.041 C 
HETATM    3  C   UNK N   1      36.555  12.698  13.448  0.00  0.00     0.025 C 
HETATM    4  C   UNK N   1      36.944  10.679  14.903  0.00  0.00    -0.011 C 
HETATM    5  C   UNK N   1      34.174  11.682  14.853  0.00  0.00     0.018 C 
HETATM    6  C   UNK N   1      35.947  13.441  14.652  0.00  0.00     0.039 C 
HETATM    7  C   UNK N   1      35.441  11.943  12.707  0.00  0.00     0.039 C 
HETATM    8  C   UNK N   1      36.337  11.431  16.099  0.00  0.00     0.014 C 
HETATM    9  C   UNK N   1      35.827   9.932  14.154  0.00  0.00     0.014 C 
HETATM   10  C   UNK N   1      37.603  11.691  13.951  0.00  0.00     0.035 C 
HETATM   11  C   UNK N   1      34.682  13.164  16.789  0.00  0.00     0.015 C 
HETATM   12  C   UNK N   1      33.673  10.198  12.916  0.00  0.00     0.015 C 
ENDROOT
BRANCH   3  13
HETATM   13  N   UNK N   1      37.181  13.647  12.550  0.00  0.00    -0.421 N 
HETATM   14  H   UNK N   1      37.598  13.737  11.624  0.00  0.00     0.150 HD
HETATM   15  H   UNK N   1      37.221  14.556  13.014  0.00  0.00     0.150 HD
ENDBRANCH   3  13
TORSDOF 1
ENDMDL
MODEL 6
REMARK VINA RESULT:      -4.9      1.980      3.214
REMARK  1 active torsions:
REMARK  status: ('A' for Active; 'I' for Inactive)
REMARK    1  A    between atoms: N_1  and  C_4 
ROOT
HETATM    1  C   UNK N   1      26.181  26.943  -4.842  0.00  0.00    -0.041 C 
HETATM    2  C   UNK N   1      27.212  24.776  -4.090  0.00  0.00    -0.041 C 
HETATM    3  C   UNK N   1      26.098  24.921  -6.342  0.00  0.00     0.025 C 
HETATM    4  C   UNK N   1      28.285  26.104  -5.941  0.00  0.00    -0.011 C 
HETATM    5  C   UNK N   1      26.451  26.031  -3.636  0.00  0.00     0.018 C 
HETATM    6  C   UNK N   1      25.339  26.178  -5.877  0.00  0.00     0.039 C 
HETATM    7  C   UNK N   1      26.370  24.018  -5.129  0.00  0.00     0.039 C 
HETATM    8  C   UNK N   1      27.518  27.355  -5.480  0.00  0.00     0.014 C 
HETATM    9  C   UNK N   1      28.547  25.195  -4.728  0.00  0.00     0.014 C 
HETATM   10  C   UNK N   1      27.436  25.341  -6.972  0.00  0.00     0.035 C 
HETATM   11  C   UNK N   1      25.435  28.178  -4.383  0.00  0.00     0.015 C 
HETATM   12  C   UNK N   1      27.470  23.881  -2.896  0.00  0.00     0.015 C 
ENDROOT
BRANCH   3  13
HETATM   13  N   UNK N   1      25.304  24.200  -7.317  0.00  0.00    -0.421 N 
HETATM   14  H   UNK N   1      24.390  23.775  -7.467  0.00  0.00     0.150 HD
HETATM   15  H   UNK N   1      25.865  24.071  -8.160  0.00  0.00     0.150 HD
ENDBRANCH   3  13
TORSDOF 1
ENDMDL
MODEL 7
REMARK VINA RESULT:      -4.9     24.911     26.595
REMARK  1 active torsions:
REMARK  status: ('A' for Active; 'I' for Inactive)
REMARK    1  A    between atoms: N_1  and  C_4 
ROOT
HETATM    1  C   UNK N   1      34.739  10.961  13.730  0.00  0.00    -0.041 C 
HETATM    2  C   UNK N   1      36.874  10.610  15.013  0.00  0.00    -0.041 C 
HETATM    3  C   UNK N   1      36.244  12.918  14.232  0.00  0.00     0.025 C 
HETATM    4  C   UNK N   1      34.944  11.818  16.088  0.00  0.00    -0.011 C 
HETATM    5  C   UNK N   1      35.912  10.001  13.981  0.00  0.00     0.018 C 
HETATM    6  C   UNK N   1      35.283  12.298  13.200  0.00  0.00     0.039 C 
HETATM    7  C   UNK N   1      37.409  11.949  14.481  0.00  0.00     0.039 C 
HETATM    8  C   UNK N   1      33.989  11.206  15.050  0.00  0.00     0.014 C 
HETATM    9  C   UNK N   1      36.117  10.853  16.330  0.00  0.00     0.014 C 
HETATM   10  C   UNK N   1      35.487  13.153  15.550  0.00  0.00     0.035 C 
HETATM   11  C   UNK N   1      33.796  10.349  12.716  0.00  0.00     0.015 C 
HETATM   12  C   UNK N   1      38.028   9.660  15.251  0.00  0.00     0.015 C 
ENDROOT
BRANCH   3  13
HETATM   13  N   UNK N   1      36.755  14.177  13.731  0.00  0.00    -0.421 N 
HETATM   14  H   UNK N   1      37.523  14.841  13.832  0.00  0.00     0.150 HD
HETATM   15  H   UNK N   1      36.113  14.529  13.020  0.00  0.00     0.150 HD
ENDBRANCH   3  13
TORSDOF 1
ENDMDL
MODEL 8
REMARK VINA RESULT:      -4.9     14.879     17.218
REMARK  1 active torsions:
REMARK  status: ('A' for Active; 'I' for Inactive)
REMARK    1  A    between atoms: N_1  and  C_4 
ROOT
HETATM    1  C   UNK N   1      33.035  15.215   7.504  0.00  0.00    -0.041 C 
HETATM    2  C   UNK N   1      32.006  16.698   5.753  0.00  0.00    -0.041 C 
HETATM    3  C   UNK N   1      31.816  17.310   8.186  0.00  0.00     0.025 C 
HETATM    4  C   UNK N   1      34.042  17.470   7.019  0.00  0.00    -0.011 C 
HETATM    5  C   UNK N   1      32.318  15.246   6.145  0.00  0.00     0.018 C 
HETATM    6  C   UNK N   1      32.129  15.852   8.570  0.00  0.00     0.039 C 
HETATM    7  C   UNK N   1      31.106  17.333   6.824  0.00  0.00     0.039 C 
HETATM    8  C   UNK N   1      34.345  16.014   7.408  0.00  0.00     0.014 C 
HETATM    9  C   UNK N   1      33.321  17.492   5.660  0.00  0.00     0.014 C 
HETATM   10  C   UNK N   1      33.132  18.100   8.086  0.00  0.00     0.035 C 
HETATM   11  C   UNK N   1      33.342  13.780   7.878  0.00  0.00     0.015 C 
HETATM   12  C   UNK N   1      31.297  16.720   4.416  0.00  0.00     0.015 C 
ENDROOT
BRANCH   3  13
HETATM   13  N   UNK N   1      30.962  17.910   9.191  0.00  0.00    -0.421 N 
HETATM   14  H   UNK N   1      29.989  18.006   9.479  0.00  0.00     0.150 HD
HETATM   15  H   UNK N   1      31.548  18.425   9.849  0.00  0.00     0.150 HD
ENDBRANCH   3  13
TORSDOF 1
ENDMDL
MODEL 9
REMARK VINA RESULT:      -4.9     24.691     26.478
REMARK  1 active torsions:
REMARK  status: ('A' for Active; 'I' for Inactive)
REMARK    1  A    between atoms: N_1  and  C_4 
ROOT
HETATM    1  C   UNK N   1      36.731  10.691  14.771  0.00  0.00    -0.041 C 
HETATM    2  C   UNK N   1      35.911  13.004  14.222  0.00  0.00    -0.041 C 
HETATM    3  C   UNK N   1      34.566  10.996  13.521  0.00  0.00     0.025 C 
HETATM    4  C   UNK N   1      34.715  11.623  15.956  0.00  0.00    -0.011 C 
HETATM    5  C   UNK N   1      37.154  12.114  14.377  0.00  0.00     0.018 C 
HETATM    6  C   UNK N   1      35.817  10.112  13.678  0.00  0.00     0.039 C 
HETATM    7  C   UNK N   1      34.998  12.418  13.134  0.00  0.00     0.039 C 
HETATM    8  C   UNK N   1      35.963  10.737  16.102  0.00  0.00     0.014 C 
HETATM    9  C   UNK N   1      35.148  13.045  15.557  0.00  0.00     0.014 C 
HETATM   10  C   UNK N   1      33.808  11.042  14.859  0.00  0.00     0.035 C 
HETATM   11  C   UNK N   1      37.963   9.824  14.925  0.00  0.00     0.015 C 
HETATM   12  C   UNK N   1      36.336  14.403  13.830  0.00  0.00     0.015 C 
ENDROOT
BRANCH   3  13
HETATM   13  N   UNK N   1      33.705  10.450  12.491  0.00  0.00    -0.421 N 
HETATM   14  H   UNK N   1      33.599   9.661  11.854  0.00  0.00     0.150 HD
HETATM   15  H   UNK N   1      32.921  11.088  12.352  0.00  0.00     0.150 HD
ENDBRANCH   3  13
TORSDOF 1
ENDMDL
