MODEL 1
REMARK VINA RESULT:      -7.2      0.000      0.000
REMARK  5 active torsions:
REMARK  status: ('A' for Active; 'I' for Inactive)
REMARK    1  A    between atoms: O_2  and  C_14 
REMARK    2  A    between atoms: O_4  and  C_26 
REMARK    3  A    between atoms: N_6  and  C_9 
REMARK    4  A    between atoms: N_7  and  C_16 
REMARK    5  A    between atoms: C_21  and  C_26 
ROOT
HETATM    1  F   UNK N   1      28.600  20.136   4.188  0.00  0.00    -0.204 F 
HETATM    2  O   UNK N   1      24.122  21.362   2.792  0.00  0.00    -0.286 OA
HETATM    3  N   UNK N   1      23.599  17.658   4.265  0.00  0.00    -0.348 N 
HETATM    4  C   UNK N   1      24.881  18.206   4.256  0.00  0.00     0.085 A 
HETATM    5  C   UNK N   1      22.541  18.381   3.789  0.00  0.00     0.114 A 
HETATM    6  C   UNK N   1      26.045  17.500   4.729  0.00  0.00     0.125 A 
HETATM    7  C   UNK N   1      25.053  19.521   3.748  0.00  0.00     0.048 A 
HETATM    8  C   UNK N   1      27.333  18.142   4.713  0.00  0.00     0.105 A 
HETATM    9  C   UNK N   1      22.687  19.656   3.250  0.00  0.00     0.104 A 
HETATM   10  C   UNK N   1      23.960  20.238   3.243  0.00  0.00     0.202 A 
HETATM   11  C   UNK N   1      26.309  20.114   3.732  0.00  0.00     0.062 A 
HETATM   12  C   UNK N   1      27.427  19.456   4.202  0.00  0.00     0.146 A 
ENDROOT
BRANCH   8  13
HETATM   13  N   UNK N   1      28.522  17.494   5.220  0.00  0.00    -0.373 N 
HETATM   14  C   UNK N   1      29.513  16.957   4.310  0.00  0.00     0.147 C 
HETATM   15  C   UNK N   1      30.865  17.563   4.662  0.00  0.00     0.090 C 
HETATM   16  N   UNK N   1      31.269  17.285   6.052  0.00  0.00    -0.414 N 
HETATM   17  C   UNK N   1      31.922  17.059   3.703  0.00  0.00     0.033 C 
HETATM   18  C   UNK N   1      30.180  16.789   6.912  0.00  0.00     0.134 C 
HETATM   19  H   UNK N   1      32.220  17.424   6.390  0.00  0.00     0.153 HD
HETATM   20  C   UNK N   1      28.848  17.502   6.638  0.00  0.00     0.142 C 
ENDBRANCH   8  13
BRANCH   6  21
HETATM   21  O   UNK N   1      25.920  16.218   5.141  0.00  0.00    -0.351 OA
HETATM   22  C   UNK N   1      26.311  15.159   4.346  0.00  0.00     0.210 C 
ENDBRANCH   6  21
BRANCH   3  23
HETATM   23  C   UNK N   1      23.283  16.335   4.837  0.00  0.00     0.090 A 
HETATM   24  C   UNK N   1      22.558  16.429   6.181  0.00  0.00     0.028 A 
HETATM   25  C   UNK N   1      21.774  16.143   4.931  0.00  0.00     0.028 A 
ENDBRANCH   3  23
BRANCH   9  26
HETATM   26  C   UNK N   1      21.491  20.340   2.690  0.00  0.00     0.181 C 
HETATM   27  O   UNK N   1      20.547  19.700   2.254  0.00  0.00    -0.646 OA
BRANCH  26  28
HETATM   28  O   UNK N   1      21.428  21.688   2.687  0.00  0.00    -0.772 OA
HETATM   29  H   UNK N   1      20.610  22.122   2.551  0.00  0.00     0.167 HD
ENDBRANCH  26  28
ENDBRANCH   9  26
TORSDOF 5
ENDMDL
MODEL 2
REMARK VINA RESULT:      -6.9      4.935      8.773
REMARK  5 active torsions:
REMARK  status: ('A' for Active; 'I' for Inactive)
REMARK    1  A    between atoms: O_2  and  C_14 
REMARK    2  A    between atoms: O_4  and  C_26 
REMARK    3  A    between atoms: N_6  and  C_9 
REMARK    4  A    between atoms: N_7  and  C_16 
REMARK    5  A    between atoms: C_21  and  C_26 
ROOT
HETATM    1  F   UNK N   1      32.081  14.087   3.305  0.00  0.00    -0.204 F 
HETATM    2  O   UNK N   1      34.900  16.427   6.480  0.00  0.00    -0.286 OA
HETATM    3  N   UNK N   1      31.203  17.524   7.614  0.00  0.00    -0.348 N 
HETATM    4  C   UNK N   1      31.349  16.681   6.513  0.00  0.00     0.085 A 
HETATM    5  C   UNK N   1      32.305  17.957   8.297  0.00  0.00     0.114 A 
HETATM    6  C   UNK N   1      30.236  16.196   5.737  0.00  0.00     0.125 A 
HETATM    7  C   UNK N   1      32.658  16.287   6.130  0.00  0.00     0.048 A 
HETATM    8  C   UNK N   1      30.463  15.305   4.629  0.00  0.00     0.105 A 
HETATM    9  C   UNK N   1      33.601  17.617   7.920  0.00  0.00     0.104 A 
HETATM   10  C   UNK N   1      33.778  16.759   6.829  0.00  0.00     0.202 A 
HETATM   11  C   UNK N   1      32.852  15.436   5.049  0.00  0.00     0.062 A 
HETATM   12  C   UNK N   1      31.793  14.948   4.312  0.00  0.00     0.146 A 
ENDROOT
BRANCH   8  13
HETATM   13  N   UNK N   1      29.377  14.754   3.849  0.00  0.00    -0.373 N 
HETATM   14  C   UNK N   1      28.566  13.675   4.376  0.00  0.00     0.147 C 
HETATM   15  C   UNK N   1      27.106  14.103   4.321  0.00  0.00     0.090 C 
HETATM   16  N   UNK N   1      26.661  14.435   2.956  0.00  0.00    -0.414 N 
HETATM   17  C   UNK N   1      26.228  13.018   4.905  0.00  0.00     0.033 C 
HETATM   18  C   UNK N   1      27.757  14.618   1.989  0.00  0.00     0.134 C 
HETATM   19  H   UNK N   1      25.679  14.531   2.702  0.00  0.00     0.153 HD
HETATM   20  C   UNK N   1      28.956  15.361   2.596  0.00  0.00     0.142 C 
ENDBRANCH   8  13
BRANCH   6  21
HETATM   21  O   UNK N   1      28.987  16.622   6.031  0.00  0.00    -0.351 OA
HETATM   22  C   UNK N   1      28.364  17.610   5.294  0.00  0.00     0.210 C 
ENDBRANCH   6  21
BRANCH   3  23
HETATM   23  C   UNK N   1      29.894  17.940   8.153  0.00  0.00     0.090 A 
HETATM   24  C   UNK N   1      29.581  17.298   9.506  0.00  0.00     0.028 A 
HETATM   25  C   UNK N   1      30.076  18.716   9.452  0.00  0.00     0.028 A 
ENDBRANCH   3  23
BRANCH   9  26
HETATM   26  C   UNK N   1      34.744  18.192   8.679  0.00  0.00     0.181 C 
HETATM   27  O   UNK N   1      35.206  19.284   8.388  0.00  0.00    -0.646 OA
BRANCH  26  28
HETATM   28  O   UNK N   1      35.264  17.516   9.724  0.00  0.00    -0.772 OA
HETATM   29  H   UNK N   1      35.712  17.974  10.407  0.00  0.00     0.167 HD
ENDBRANCH  26  28
ENDBRANCH   9  26
TORSDOF 5
ENDMDL
MODEL 3
REMARK VINA RESULT:      -6.8      4.812      6.299
REMARK  5 active torsions:
REMARK  status: ('A' for Active; 'I' for Inactive)
REMARK    1  A    between atoms: O_2  and  C_14 
REMARK    2  A    between atoms: O_4  and  C_26 
REMARK    3  A    between atoms: N_6  and  C_9 
REMARK    4  A    between atoms: N_7  and  C_16 
REMARK    5  A    between atoms: C_21  and  C_26 
ROOT
HETATM    1  F   UNK N   1      23.659  16.798   3.538  0.00  0.00    -0.204 F 
HETATM    2  O   UNK N   1      20.847  18.786   6.950  0.00  0.00    -0.286 OA
HETATM    3  N   UNK N   1      21.012  14.933   8.083  0.00  0.00    -0.348 N 
HETATM    4  C   UNK N   1      21.679  15.324   6.923  0.00  0.00     0.085 A 
HETATM    5  C   UNK N   1      20.324  15.854   8.823  0.00  0.00     0.114 A 
HETATM    6  C   UNK N   1      22.411  14.408   6.087  0.00  0.00     0.125 A 
HETATM    7  C   UNK N   1      21.627  16.690   6.539  0.00  0.00     0.048 A 
HETATM    8  C   UNK N   1      23.098  14.891   4.917  0.00  0.00     0.105 A 
HETATM    9  C   UNK N   1      20.226  17.191   8.450  0.00  0.00     0.104 A 
HETATM   10  C   UNK N   1      20.899  17.617   7.299  0.00  0.00     0.202 A 
HETATM   11  C   UNK N   1      22.289  17.129   5.400  0.00  0.00     0.062 A 
HETATM   12  C   UNK N   1      23.011  16.266   4.603  0.00  0.00     0.146 A 
ENDROOT
BRANCH   8  13
HETATM   13  N   UNK N   1      23.885  14.020   4.073  0.00  0.00    -0.373 N 
HETATM   14  C   UNK N   1      23.347  13.524   2.822  0.00  0.00     0.147 C 
HETATM   15  C   UNK N   1      24.318  13.885   1.707  0.00  0.00     0.090 C 
HETATM   16  N   UNK N   1      25.666  13.327   1.921  0.00  0.00    -0.414 N 
HETATM   17  C   UNK N   1      23.770  13.421   0.374  0.00  0.00     0.033 C 
HETATM   18  C   UNK N   1      25.907  12.835   3.289  0.00  0.00     0.134 C 
HETATM   19  H   UNK N   1      26.371  13.285   1.187  0.00  0.00     0.153 HD
HETATM   20  C   UNK N   1      25.285  13.747   4.357  0.00  0.00     0.142 C 
ENDBRANCH   8  13
BRANCH   6  21
HETATM   21  O   UNK N   1      22.406  13.089   6.385  0.00  0.00    -0.351 OA
HETATM   22  C   UNK N   1      21.597  12.195   5.713  0.00  0.00     0.210 C 
ENDBRANCH   6  21
BRANCH   3  23
HETATM   23  C   UNK N   1      21.055  13.560   8.624  0.00  0.00     0.090 A 
HETATM   24  C   UNK N   1      22.054  13.409   9.773  0.00  0.00     0.028 A 
HETATM   25  C   UNK N   1      20.587  13.545  10.075  0.00  0.00     0.028 A 
ENDBRANCH   3  23
BRANCH   9  26
HETATM   26  C   UNK N   1      19.398  18.109   9.277  0.00  0.00     0.181 C 
HETATM   27  O   UNK N   1      18.220  17.870   9.494  0.00  0.00    -0.646 OA
BRANCH  26  28
HETATM   28  O   UNK N   1      19.956  19.208   9.824  0.00  0.00    -0.772 OA
HETATM   29  H   UNK N   1      20.021  20.001   9.330  0.00  0.00     0.167 HD
ENDBRANCH  26  28
ENDBRANCH   9  26
TORSDOF 5
ENDMDL
MODEL 4
REMARK VINA RESULT:      -6.7      9.779     12.657
REMARK  5 active torsions:
REMARK  status: ('A' for Active; 'I' for Inactive)
REMARK    1  A    between atoms: O_2  and  C_14 
REMARK    2  A    between atoms: O_4  and  C_26 
REMARK    3  A    between atoms: N_6  and  C_9 
REMARK    4  A    between atoms: N_7  and  C_16 
REMARK    5  A    between atoms: C_21  and  C_26 
ROOT
HETATM    1  F   UNK N   1      36.429  14.348  13.810  0.00  0.00    -0.204 F 
HETATM    2  O   UNK N   1      35.656  17.715  10.408  0.00  0.00    -0.286 OA
HETATM    3  N   UNK N   1      34.067  14.414   8.754  0.00  0.00    -0.348 N 
HETATM    4  C   UNK N   1      34.662  14.319  10.011  0.00  0.00     0.085 A 
HETATM    5  C   UNK N   1      34.020  15.618   8.106  0.00  0.00     0.114 A 
HETATM    6  C   UNK N   1      34.761  13.085  10.746  0.00  0.00     0.125 A 
HETATM    7  C   UNK N   1      35.207  15.494  10.594  0.00  0.00     0.048 A 
HETATM    8  C   UNK N   1      35.366  13.070  12.053  0.00  0.00     0.105 A 
HETATM    9  C   UNK N   1      34.579  16.776   8.637  0.00  0.00     0.104 A 
HETATM   10  C   UNK N   1      35.168  16.715   9.905  0.00  0.00     0.202 A 
HETATM   11  C   UNK N   1      35.796  15.451  11.851  0.00  0.00     0.062 A 
HETATM   12  C   UNK N   1      35.877  14.279  12.573  0.00  0.00     0.146 A 
ENDROOT
BRANCH   8  13
HETATM   13  N   UNK N   1      35.446  11.866  12.850  0.00  0.00    -0.373 N 
HETATM   14  C   UNK N   1      36.695  11.141  12.965  0.00  0.00     0.147 C 
HETATM   15  C   UNK N   1      37.023  10.985  14.443  0.00  0.00     0.090 C 
HETATM   16  N   UNK N   1      35.969  10.274  15.189  0.00  0.00    -0.414 N 
HETATM   17  C   UNK N   1      38.347  10.269  14.606  0.00  0.00     0.033 C 
HETATM   18  C   UNK N   1      34.690  10.157  14.467  0.00  0.00     0.134 C 
HETATM   19  H   UNK N   1      36.112   9.897  16.125  0.00  0.00     0.153 HD
HETATM   20  C   UNK N   1      34.339  11.433  13.688  0.00  0.00     0.142 C 
ENDBRANCH   8  13
BRANCH   6  21
HETATM   21  O   UNK N   1      34.324  11.938  10.178  0.00  0.00    -0.351 OA
HETATM   22  C   UNK N   1      35.200  10.994   9.681  0.00  0.00     0.210 C 
ENDBRANCH   6  21
BRANCH   3  23
HETATM   23  C   UNK N   1      33.401  13.283   8.081  0.00  0.00     0.090 A 
HETATM   24  C   UNK N   1      32.755  13.683   6.752  0.00  0.00     0.028 A 
HETATM   25  C   UNK N   1      34.083  12.979   6.751  0.00  0.00     0.028 A 
ENDBRANCH   3  23
BRANCH   9  26
HETATM   26  C   UNK N   1      34.544  18.026   7.831  0.00  0.00     0.181 C 
HETATM   27  O   UNK N   1      34.179  18.012   6.666  0.00  0.00    -0.646 OA
BRANCH  26  28
HETATM   28  O   UNK N   1      34.889  19.200   8.398  0.00  0.00    -0.772 OA
HETATM   29  H   UNK N   1      34.349  19.956   8.284  0.00  0.00     0.167 HD
ENDBRANCH  26  28
ENDBRANCH   9  26
TORSDOF 5
ENDMDL
MODEL 5
REMARK VINA RESULT:      -6.6      3.193      7.964
REMARK  5 active torsions:
REMARK  status: ('A' for Active; 'I' for Inactive)
REMARK    1  A    between atoms: O_2  and  C_14 
REMARK    2  A    between atoms: O_4  and  C_26 
REMARK    3  A    between atoms: N_6  and  C_9 
REMARK    4  A    between atoms: N_7  and  C_16 
REMARK    5  A    between atoms: C_21  and  C_26 
ROOT
HETATM    1  F   UNK N   1      26.637  19.946   6.808  0.00  0.00    -0.204 F 
HETATM    2  O   UNK N   1      30.436  17.942   9.056  0.00  0.00    -0.286 OA
HETATM    3  N   UNK N   1      30.767  16.500   5.319  0.00  0.00    -0.348 N 
HETATM    4  C   UNK N   1      29.696  17.338   5.626  0.00  0.00     0.085 A 
HETATM    5  C   UNK N   1      31.691  16.188   6.277  0.00  0.00     0.114 A 
HETATM    6  C   UNK N   1      28.678  17.700   4.673  0.00  0.00     0.125 A 
HETATM    7  C   UNK N   1      29.596  17.854   6.945  0.00  0.00     0.048 A 
HETATM    8  C   UNK N   1      27.616  18.593   5.057  0.00  0.00     0.105 A 
HETATM    9  C   UNK N   1      31.597  16.649   7.586  0.00  0.00     0.104 A 
HETATM   10  C   UNK N   1      30.541  17.506   7.920  0.00  0.00     0.202 A 
HETATM   11  C   UNK N   1      28.554  18.705   7.294  0.00  0.00     0.062 A 
HETATM   12  C   UNK N   1      27.586  19.075   6.385  0.00  0.00     0.146 A 
ENDROOT
BRANCH   8  13
HETATM   13  N   UNK N   1      26.597  19.023   4.125  0.00  0.00    -0.373 N 
HETATM   14  C   UNK N   1      25.370  18.267   3.974  0.00  0.00     0.147 C 
HETATM   15  C   UNK N   1      24.197  19.210   4.198  0.00  0.00     0.090 C 
HETATM   16  N   UNK N   1      24.194  20.349   3.261  0.00  0.00    -0.414 N 
HETATM   17  C   UNK N   1      22.894  18.447   4.091  0.00  0.00     0.033 C 
HETATM   18  C   UNK N   1      25.464  20.543   2.540  0.00  0.00     0.134 C 
HETATM   19  H   UNK N   1      23.383  20.951   3.125  0.00  0.00     0.153 HD
HETATM   20  C   UNK N   1      26.688  20.300   3.435  0.00  0.00     0.142 C 
ENDBRANCH   8  13
BRANCH   6  21
HETATM   21  O   UNK N   1      28.705  17.156   3.436  0.00  0.00    -0.351 OA
HETATM   22  C   UNK N   1      27.932  16.060   3.106  0.00  0.00     0.210 C 
ENDBRANCH   6  21
BRANCH   3  23
HETATM   23  C   UNK N   1      31.020  15.965   3.967  0.00  0.00     0.090 A 
HETATM   24  C   UNK N   1      32.049  16.787   3.188  0.00  0.00     0.028 A 
HETATM   25  C   UNK N   1      32.466  15.499   3.841  0.00  0.00     0.028 A 
ENDBRANCH   3  23
BRANCH   9  26
HETATM   26  C   UNK N   1      32.608  16.202   8.581  0.00  0.00     0.181 C 
HETATM   27  O   UNK N   1      32.852  15.015   8.738  0.00  0.00    -0.646 OA
BRANCH  26  28
HETATM   28  O   UNK N   1      33.292  17.114   9.301  0.00  0.00    -0.772 OA
HETATM   29  H   UNK N   1      34.044  16.858   9.795  0.00  0.00     0.167 HD
ENDBRANCH  26  28
ENDBRANCH   9  26
TORSDOF 5
ENDMDL
MODEL 6
REMARK VINA RESULT:      -6.4      6.602     11.264
REMARK  5 active torsions:
REMARK  status: ('A' for Active; 'I' for Inactive)
REMARK    1  A    between atoms: O_2  and  C_14 
REMARK    2  A    between atoms: O_4  and  C_26 
REMARK    3  A    between atoms: N_6  and  C_9 
REMARK    4  A    between atoms: N_7  and  C_16 
REMARK    5  A    between atoms: C_21  and  C_26 
ROOT
HETATM    1  F   UNK N   1      33.561  18.284   7.242  0.00  0.00    -0.204 F 
HETATM    2  O   UNK N   1      35.294  16.549  11.424  0.00  0.00    -0.286 OA
HETATM    3  N   UNK N   1      33.921  13.239   9.602  0.00  0.00    -0.348 N 
HETATM    4  C   UNK N   1      33.777  14.470   8.963  0.00  0.00     0.085 A 
HETATM    5  C   UNK N   1      34.531  13.167  10.823  0.00  0.00     0.114 A 
HETATM    6  C   UNK N   1      33.134  14.625   7.683  0.00  0.00     0.125 A 
HETATM    7  C   UNK N   1      34.279  15.631   9.608  0.00  0.00     0.048 A 
HETATM    8  C   UNK N   1      33.046  15.926   7.073  0.00  0.00     0.105 A 
HETATM    9  C   UNK N   1      34.998  14.293  11.494  0.00  0.00     0.104 A 
HETATM   10  C   UNK N   1      34.882  15.541  10.870  0.00  0.00     0.202 A 
HETATM   11  C   UNK N   1      34.171  16.878   9.004  0.00  0.00     0.062 A 
HETATM   12  C   UNK N   1      33.577  17.035   7.769  0.00  0.00     0.146 A 
ENDROOT
BRANCH   8  13
HETATM   13  N   UNK N   1      32.453  16.126   5.770  0.00  0.00    -0.373 N 
HETATM   14  C   UNK N   1      31.016  16.235   5.623  0.00  0.00     0.147 C 
HETATM   15  C   UNK N   1      30.707  17.536   4.895  0.00  0.00     0.090 C 
HETATM   16  N   UNK N   1      31.346  17.613   3.569  0.00  0.00    -0.414 N 
HETATM   17  C   UNK N   1      29.209  17.709   4.761  0.00  0.00     0.033 C 
HETATM   18  C   UNK N   1      32.402  16.611   3.347  0.00  0.00     0.134 C 
HETATM   19  H   UNK N   1      31.080  18.302   2.866  0.00  0.00     0.153 HD
HETATM   20  C   UNK N   1      33.270  16.389   4.594  0.00  0.00     0.142 C 
ENDBRANCH   8  13
BRANCH   6  21
HETATM   21  O   UNK N   1      32.575  13.547   7.087  0.00  0.00    -0.351 OA
HETATM   22  C   UNK N   1      33.091  13.012   5.924  0.00  0.00     0.210 C 
ENDBRANCH   6  21
BRANCH   3  23
HETATM   23  C   UNK N   1      33.510  11.957   9.000  0.00  0.00     0.090 A 
HETATM   24  C   UNK N   1      34.701  11.087   8.589  0.00  0.00     0.028 A 
HETATM   25  C   UNK N   1      33.968  10.790   9.868  0.00  0.00     0.028 A 
ENDBRANCH   3  23
BRANCH   9  26
HETATM   26  C   UNK N   1      35.584  14.130  12.851  0.00  0.00     0.181 C 
HETATM   27  O   UNK N   1      35.008  13.481  13.711  0.00  0.00    -0.646 OA
BRANCH  26  28
HETATM   28  O   UNK N   1      36.784  14.677  13.135  0.00  0.00    -0.772 OA
HETATM   29  H   UNK N   1      36.845  15.403  13.723  0.00  0.00     0.167 HD
ENDBRANCH  26  28
ENDBRANCH   9  26
TORSDOF 5
ENDMDL
MODEL 7
REMARK VINA RESULT:      -6.4     12.801     16.588
REMARK  5 active torsions:
REMARK  status: ('A' for Active; 'I' for Inactive)
REMARK    1  A    between atoms: O_2  and  C_14 
REMARK    2  A    between atoms: O_4  and  C_26 
REMARK    3  A    between atoms: N_6  and  C_9 
REMARK    4  A    between atoms: N_7  and  C_16 
REMARK    5  A    between atoms: C_21  and  C_26 
ROOT
HETATM    1  F   UNK N   1      36.595  15.309  13.548  0.00  0.00    -0.204 F 
HETATM    2  O   UNK N   1      35.681  14.226  18.185  0.00  0.00    -0.286 OA
HETATM    3  N   UNK N   1      35.418  10.645  16.378  0.00  0.00    -0.348 N 
HETATM    4  C   UNK N   1      35.692  11.772  15.605  0.00  0.00     0.085 A 
HETATM    5  C   UNK N   1      35.253  10.764  17.730  0.00  0.00     0.114 A 
HETATM    6  C   UNK N   1      35.864  11.726  14.175  0.00  0.00     0.125 A 
HETATM    7  C   UNK N   1      35.798  13.030  16.254  0.00  0.00     0.048 A 
HETATM    8  C   UNK N   1      36.173  12.929  13.447  0.00  0.00     0.105 A 
HETATM    9  C   UNK N   1      35.314  11.989  18.387  0.00  0.00     0.104 A 
HETATM   10  C   UNK N   1      35.605  13.136  17.639  0.00  0.00     0.202 A 
HETATM   11  C   UNK N   1      36.085  14.179  15.527  0.00  0.00     0.062 A 
HETATM   12  C   UNK N   1      36.273  14.144  14.161  0.00  0.00     0.146 A 
ENDROOT
BRANCH   8  13
HETATM   13  N   UNK N   1      36.402  12.927  12.019  0.00  0.00    -0.373 N 
HETATM   14  C   UNK N   1      35.395  13.439  11.111  0.00  0.00     0.147 C 
HETATM   15  C   UNK N   1      36.038  14.507  10.238  0.00  0.00     0.090 C 
HETATM   16  N   UNK N   1      37.186  13.997   9.466  0.00  0.00    -0.414 N 
HETATM   17  C   UNK N   1      35.006  15.100   9.303  0.00  0.00     0.033 C 
HETATM   18  C   UNK N   1      37.693  12.692   9.925  0.00  0.00     0.134 C 
HETATM   19  H   UNK N   1      37.594  14.504   8.682  0.00  0.00     0.153 HD
HETATM   20  C   UNK N   1      37.695  12.572  11.456  0.00  0.00     0.142 C 
ENDBRANCH   8  13
BRANCH   6  21
HETATM   21  O   UNK N   1      35.687  10.555  13.524  0.00  0.00    -0.351 OA
HETATM   22  C   UNK N   1      34.527  10.279  12.827  0.00  0.00     0.210 C 
ENDBRANCH   6  21
BRANCH   3  23
HETATM   23  C   UNK N   1      35.360   9.276  15.830  0.00  0.00     0.090 A 
HETATM   24  C   UNK N   1      36.661   8.499  16.040  0.00  0.00     0.028 A 
HETATM   25  C   UNK N   1      35.491   8.249  16.949  0.00  0.00     0.028 A 
ENDBRANCH   3  23
BRANCH   9  26
HETATM   26  C   UNK N   1      35.053  12.034  19.850  0.00  0.00     0.181 C 
HETATM   27  O   UNK N   1      35.167  11.033  20.540  0.00  0.00    -0.646 OA
BRANCH  26  28
HETATM   28  O   UNK N   1      34.713  13.200  20.436  0.00  0.00    -0.772 OA
HETATM   29  H   UNK N   1      34.158  13.206  21.190  0.00  0.00     0.167 HD
ENDBRANCH  26  28
ENDBRANCH   9  26
TORSDOF 5
ENDMDL
MODEL 8
REMARK VINA RESULT:      -6.3      2.534      4.044
REMARK  5 active torsions:
REMARK  status: ('A' for Active; 'I' for Inactive)
REMARK    1  A    between atoms: O_2  and  C_14 
REMARK    2  A    between atoms: O_4  and  C_26 
REMARK    3  A    between atoms: N_6  and  C_9 
REMARK    4  A    between atoms: N_7  and  C_16 
REMARK    5  A    between atoms: C_21  and  C_26 
ROOT
HETATM    1  F   UNK N   1      29.761  19.086   8.718  0.00  0.00    -0.204 F 
HETATM    2  O   UNK N   1      25.903  20.239   6.018  0.00  0.00    -0.286 OA
HETATM    3  N   UNK N   1      27.462  17.112   4.031  0.00  0.00    -0.348 N 
HETATM    4  C   UNK N   1      28.103  17.567   5.183  0.00  0.00     0.085 A 
HETATM    5  C   UNK N   1      26.316  17.720   3.597  0.00  0.00     0.114 A 
HETATM    6  C   UNK N   1      29.319  16.986   5.691  0.00  0.00     0.125 A 
HETATM    7  C   UNK N   1      27.536  18.662   5.886  0.00  0.00     0.048 A 
HETATM    8  C   UNK N   1      29.908  17.493   6.903  0.00  0.00     0.105 A 
HETATM    9  C   UNK N   1      25.760  18.818   4.246  0.00  0.00     0.104 A 
HETATM   10  C   UNK N   1      26.372  19.287   5.415  0.00  0.00     0.202 A 
HETATM   11  C   UNK N   1      28.130  19.140   7.047  0.00  0.00     0.062 A 
HETATM   12  C   UNK N   1      29.283  18.579   7.555  0.00  0.00     0.146 A 
ENDROOT
BRANCH   8  13
HETATM   13  N   UNK N   1      31.101  16.913   7.479  0.00  0.00    -0.373 N 
HETATM   14  C   UNK N   1      32.410  17.436   7.142  0.00  0.00     0.147 C 
HETATM   15  C   UNK N   1      33.128  17.797   8.435  0.00  0.00     0.090 C 
HETATM   16  N   UNK N   1      33.274  16.647   9.346  0.00  0.00    -0.414 N 
HETATM   17  C   UNK N   1      34.486  18.389   8.124  0.00  0.00     0.033 C 
HETATM   18  C   UNK N   1      32.429  15.491   9.002  0.00  0.00     0.134 C 
HETATM   19  H   UNK N   1      33.906  16.651  10.146  0.00  0.00     0.153 HD
HETATM   20  C   UNK N   1      31.029  15.910   8.529  0.00  0.00     0.142 C 
ENDBRANCH   8  13
BRANCH   6  21
HETATM   21  O   UNK N   1      29.923  15.997   4.994  0.00  0.00    -0.351 OA
HETATM   22  C   UNK N   1      30.975  16.249   4.137  0.00  0.00     0.210 C 
ENDBRANCH   6  21
BRANCH   3  23
HETATM   23  C   UNK N   1      27.911  15.938   3.259  0.00  0.00     0.090 A 
HETATM   24  C   UNK N   1      27.067  14.691   3.534  0.00  0.00     0.028 A 
HETATM   25  C   UNK N   1      26.825  15.493   2.286  0.00  0.00     0.028 A 
ENDBRANCH   3  23
BRANCH   9  26
HETATM   26  C   UNK N   1      24.552  19.460   3.664  0.00  0.00     0.181 C 
HETATM   27  O   UNK N   1      23.467  18.900   3.692  0.00  0.00    -0.646 OA
BRANCH  26  28
HETATM   28  O   UNK N   1      24.640  20.693   3.123  0.00  0.00    -0.772 OA
HETATM   29  H   UNK N   1      24.382  21.445   3.618  0.00  0.00     0.167 HD
ENDBRANCH  26  28
ENDBRANCH   9  26
TORSDOF 5
ENDMDL
MODEL 9
REMARK VINA RESULT:      -6.3      3.353      5.658
REMARK  5 active torsions:
REMARK  status: ('A' for Active; 'I' for Inactive)
REMARK    1  A    between atoms: O_2  and  C_14 
REMARK    2  A    between atoms: O_4  and  C_26 
REMARK    3  A    between atoms: N_6  and  C_9 
REMARK    4  A    between atoms: N_7  and  C_16 
REMARK    5  A    between atoms: C_21  and  C_26 
ROOT
HETATM    1  F   UNK N   1      30.402  18.571   9.762  0.00  0.00    -0.204 F 
HETATM    2  O   UNK N   1      26.989  19.637   6.488  0.00  0.00    -0.286 OA
HETATM    3  N   UNK N   1      29.349  17.067   4.491  0.00  0.00    -0.348 N 
HETATM    4  C   UNK N   1      29.685  17.416   5.799  0.00  0.00     0.085 A 
HETATM    5  C   UNK N   1      28.226  17.587   3.910  0.00  0.00     0.114 A 
HETATM    6  C   UNK N   1      30.859  16.920   6.471  0.00  0.00     0.125 A 
HETATM    7  C   UNK N   1      28.837  18.313   6.500  0.00  0.00     0.048 A 
HETATM    8  C   UNK N   1      31.127  17.304   7.832  0.00  0.00     0.105 A 
HETATM    9  C   UNK N   1      27.398  18.496   4.561  0.00  0.00     0.104 A 
HETATM   10  C   UNK N   1      27.702  18.853   5.880  0.00  0.00     0.202 A 
HETATM   11  C   UNK N   1      29.124  18.678   7.809  0.00  0.00     0.062 A 
HETATM   12  C   UNK N   1      30.233  18.192   8.471  0.00  0.00     0.146 A 
ENDROOT
BRANCH   8  13
HETATM   13  N   UNK N   1      32.264  16.796   8.565  0.00  0.00    -0.373 N 
HETATM   14  C   UNK N   1      32.272  15.435   9.063  0.00  0.00     0.147 C 
HETATM   15  C   UNK N   1      33.523  14.742   8.541  0.00  0.00     0.090 C 
HETATM   16  N   UNK N   1      34.764  15.424   8.948  0.00  0.00    -0.414 N 
HETATM   17  C   UNK N   1      33.546  13.301   9.003  0.00  0.00     0.033 C 
HETATM   18  C   UNK N   1      34.564  16.786   9.471  0.00  0.00     0.134 C 
HETATM   19  H   UNK N   1      35.684  14.990   8.874  0.00  0.00     0.153 HD
HETATM   20  C   UNK N   1      33.495  17.562   8.687  0.00  0.00     0.142 C 
ENDBRANCH   8  13
BRANCH   6  21
HETATM   21  O   UNK N   1      31.725  16.130   5.796  0.00  0.00    -0.351 OA
HETATM   22  C   UNK N   1      32.907  16.624   5.280  0.00  0.00     0.210 C 
ENDBRANCH   6  21
BRANCH   3  23
HETATM   23  C   UNK N   1      30.107  16.088   3.689  0.00  0.00     0.090 A 
HETATM   24  C   UNK N   1      29.490  14.688   3.725  0.00  0.00     0.028 A 
HETATM   25  C   UNK N   1      29.256  15.574   2.533  0.00  0.00     0.028 A 
ENDBRANCH   3  23
BRANCH   9  26
HETATM   26  C   UNK N   1      26.237  19.065   3.827  0.00  0.00     0.181 C 
HETATM   27  O   UNK N   1      25.326  18.349   3.439  0.00  0.00    -0.646 OA
BRANCH  26  28
HETATM   28  O   UNK N   1      26.165  20.394   3.609  0.00  0.00    -0.772 OA
HETATM   29  H   UNK N   1      26.476  20.758   2.804  0.00  0.00     0.167 HD
ENDBRANCH  26  28
ENDBRANCH   9  26
TORSDOF 5
ENDMDL
