MODEL 1
REMARK VINA RESULT:      -8.3      0.000      0.000
REMARK  5 active torsions:
REMARK  status: ('A' for Active; 'I' for Inactive)
REMARK    1  A    between atoms: C_18  and  O_5 
REMARK    2  A    between atoms: O_7  and  C_28 
REMARK    3  A    between atoms: O_7  and  C_34 
REMARK    4  A    between atoms: C_13  and  C_23 
REMARK    5  A    between atoms: C_23  and  C_28 
ROOT
HETATM    1  F   UNK N   1      29.430  18.372   5.179  0.00  0.00    -0.238 F 
HETATM    2  F   UNK N   1      30.210  16.591   9.260  0.00  0.00    -0.245 F 
HETATM    3  O   UNK N   1      25.017  16.887   3.783  0.00  0.00    -0.334 OA
HETATM    4  O   UNK N   1      23.776  15.695   5.346  0.00  0.00    -0.347 OA
HETATM    5  O   UNK N   1      34.667  17.976   7.117  0.00  0.00    -0.289 OA
HETATM    6  C   UNK N   1      27.126  15.714   4.270  0.00  0.00     0.004 C 
HETATM    7  C   UNK N   1      27.127  16.422   5.623  0.00  0.00     0.007 C 
HETATM    8  C   UNK N   1      28.547  16.390   6.241  0.00  0.00     0.037 C 
HETATM    9  C   UNK N   1      25.636  15.639   3.942  0.00  0.00     0.160 C 
HETATM   10  C   UNK N   1      29.604  16.995   5.239  0.00  0.00     0.147 C 
HETATM   11  C   UNK N   1      25.058  15.148   5.258  0.00  0.00     0.168 C 
HETATM   12  C   UNK N   1      25.990  15.710   6.371  0.00  0.00     0.041 C 
HETATM   13  C   UNK N   1      27.987  16.501   3.298  0.00  0.00     0.048 C 
HETATM   14  C   UNK N   1      29.432  16.447   3.789  0.00  0.00     0.160 C 
HETATM   15  C   UNK N   1      31.023  16.659   5.796  0.00  0.00     0.039 C 
HETATM   16  C   UNK N   1      28.608  17.163   7.560  0.00  0.00     0.050 C 
HETATM   17  C   UNK N   1      27.680  14.267   4.371  0.00  0.00     0.019 C 
HETATM   18  C   UNK N   1      30.015  17.394   8.153  0.00  0.00     0.201 C 
HETATM   19  C   UNK N   1      23.739  16.716   4.369  0.00  0.00     0.159 C 
HETATM   20  C   UNK N   1      31.191  17.262   7.196  0.00  0.00    -0.027 C 
HETATM   21  C   UNK N   1      31.185  15.142   5.937  0.00  0.00     0.028 C 
HETATM   22  C   UNK N   1      32.145  17.046   4.846  0.00  0.00    -0.006 C 
HETATM   23  C   UNK N   1      22.711  16.361   3.304  0.00  0.00     0.078 C 
HETATM   24  C   UNK N   1      23.317  18.015   5.025  0.00  0.00     0.078 C 
HETATM   25  C   UNK N   1      32.398  17.688   7.615  0.00  0.00     0.061 C 
HETATM   26  C   UNK N   1      33.336  17.474   5.272  0.00  0.00     0.052 C 
HETATM   27  C   UNK N   1      33.556  17.696   6.704  0.00  0.00     0.172 C 
ENDROOT
BRANCH   9  28
HETATM   28  C   UNK N   1      25.385  14.808   2.695  0.00  0.00     0.188 C 
HETATM   29  O   UNK N   1      25.614  15.257   1.584  0.00  0.00    -0.292 OA
BRANCH  28  30
HETATM   30  C   UNK N   1      24.835  13.424   2.831  0.00  0.00     0.260 C 
BRANCH  30  31
HETATM   31  O   UNK N   1      25.353  12.649   1.815  0.00  0.00    -0.314 OA
BRANCH  31  32
HETATM   32  C   UNK N   1      24.576  12.024   0.903  0.00  0.00     0.255 C 
HETATM   33  O   UNK N   1      24.671  10.811   0.768  0.00  0.00    -0.266 OA
HETATM   34  C   UNK N   1      23.617  12.779   0.042  0.00  0.00     0.126 C 
ENDBRANCH  31  32
ENDBRANCH  30  31
ENDBRANCH  28  30
ENDBRANCH   9  28
BRANCH  14  35
HETATM   35  O   UNK N   1      30.227  17.148   2.881  0.00  0.00    -0.392 OA
HETATM   36  H   UNK N   1      30.568  18.055   2.924  0.00  0.00     0.210 HD
ENDBRANCH  14  35
TORSDOF 5
ENDMDL
MODEL 2
REMARK VINA RESULT:      -8.1      6.618      8.665
REMARK  5 active torsions:
REMARK  status: ('A' for Active; 'I' for Inactive)
REMARK    1  A    between atoms: C_18  and  O_5 
REMARK    2  A    between atoms: O_7  and  C_28 
REMARK    3  A    between atoms: O_7  and  C_34 
REMARK    4  A    between atoms: C_13  and  C_23 
REMARK    5  A    between atoms: C_23  and  C_28 
ROOT
HETATM    1  F   UNK N   1      20.383  12.692   6.447  0.00  0.00    -0.238 F 
HETATM    2  F   UNK N   1      24.685  11.308   6.290  0.00  0.00    -0.245 F 
HETATM    3  O   UNK N   1      19.500  15.106   2.321  0.00  0.00    -0.334 OA
HETATM    4  O   UNK N   1      21.190  15.095   0.725  0.00  0.00    -0.347 OA
HETATM    5  O   UNK N   1      23.051  11.271  11.159  0.00  0.00    -0.289 OA
HETATM    6  C   UNK N   1      21.022  15.488   4.217  0.00  0.00     0.004 C 
HETATM    7  C   UNK N   1      21.551  14.074   3.991  0.00  0.00     0.007 C 
HETATM    8  C   UNK N   1      22.292  13.571   5.254  0.00  0.00     0.037 C 
HETATM    9  C   UNK N   1      20.551  15.889   2.821  0.00  0.00     0.160 C 
HETATM   10  C   UNK N   1      21.362  13.675   6.524  0.00  0.00     0.147 C 
HETATM   11  C   UNK N   1      21.727  15.452   1.964  0.00  0.00     0.168 C 
HETATM   12  C   UNK N   1      22.349  14.222   2.687  0.00  0.00     0.041 C 
HETATM   13  C   UNK N   1      19.959  15.453   5.300  0.00  0.00     0.048 C 
HETATM   14  C   UNK N   1      20.627  15.048   6.612  0.00  0.00     0.160 C 
HETATM   15  C   UNK N   1      22.257  13.442   7.781  0.00  0.00     0.039 C 
HETATM   16  C   UNK N   1      22.763  12.124   5.096  0.00  0.00     0.050 C 
HETATM   17  C   UNK N   1      22.149  16.465   4.654  0.00  0.00     0.019 C 
HETATM   18  C   UNK N   1      23.311  11.441   6.368  0.00  0.00     0.201 C 
HETATM   19  C   UNK N   1      19.800  14.964   0.944  0.00  0.00     0.159 C 
HETATM   20  C   UNK N   1      22.920  12.061   7.701  0.00  0.00    -0.027 C 
HETATM   21  C   UNK N   1      23.384  14.479   7.821  0.00  0.00     0.028 C 
HETATM   22  C   UNK N   1      21.521  13.671   9.090  0.00  0.00    -0.006 C 
HETATM   23  C   UNK N   1      19.058  16.015   0.130  0.00  0.00     0.078 C 
HETATM   24  C   UNK N   1      19.350  13.595   0.477  0.00  0.00     0.078 C 
HETATM   25  C   UNK N   1      23.176  11.362   8.824  0.00  0.00     0.061 C 
HETATM   26  C   UNK N   1      21.778  12.967  10.196  0.00  0.00     0.052 C 
HETATM   27  C   UNK N   1      22.721  11.848  10.138  0.00  0.00     0.172 C 
ENDROOT
BRANCH   9  28
HETATM   28  C   UNK N   1      20.134  17.349   2.775  0.00  0.00     0.188 C 
HETATM   29  O   UNK N   1      19.091  17.722   3.287  0.00  0.00    -0.292 OA
BRANCH  28  30
HETATM   30  C   UNK N   1      21.009  18.343   2.079  0.00  0.00     0.260 C 
BRANCH  30  31
HETATM   31  O   UNK N   1      21.070  19.484   2.850  0.00  0.00    -0.314 OA
BRANCH  31  32
HETATM   32  C   UNK N   1      22.193  20.226   2.971  0.00  0.00     0.255 C 
HETATM   33  O   UNK N   1      22.157  21.415   2.683  0.00  0.00    -0.266 OA
HETATM   34  C   UNK N   1      23.482  19.627   3.430  0.00  0.00     0.126 C 
ENDBRANCH  31  32
ENDBRANCH  30  31
ENDBRANCH  28  30
ENDBRANCH   9  28
BRANCH  14  35
HETATM   35  O   UNK N   1      19.653  15.042   7.612  0.00  0.00    -0.392 OA
HETATM   36  H   UNK N   1      19.166  15.781   8.009  0.00  0.00     0.210 HD
ENDBRANCH  14  35
TORSDOF 5
ENDMDL
MODEL 3
REMARK VINA RESULT:      -7.9      6.515      7.716
REMARK  5 active torsions:
REMARK  status: ('A' for Active; 'I' for Inactive)
REMARK    1  A    between atoms: C_18  and  O_5 
REMARK    2  A    between atoms: O_7  and  C_28 
REMARK    3  A    between atoms: O_7  and  C_34 
REMARK    4  A    between atoms: C_13  and  C_23 
REMARK    5  A    between atoms: C_23  and  C_28 
ROOT
HETATM    1  F   UNK N   1      23.307  15.327   7.168  0.00  0.00    -0.238 F 
HETATM    2  F   UNK N   1      19.775  14.463   9.855  0.00  0.00    -0.245 F 
HETATM    3  O   UNK N   1      21.570  17.425   3.142  0.00  0.00    -0.334 OA
HETATM    4  O   UNK N   1      19.301  17.932   3.127  0.00  0.00    -0.347 OA
HETATM    5  O   UNK N   1      23.755  11.541  11.268  0.00  0.00    -0.289 OA
HETATM    6  C   UNK N   1      21.269  15.206   4.163  0.00  0.00     0.004 C 
HETATM    7  C   UNK N   1      20.862  15.926   5.446  0.00  0.00     0.007 C 
HETATM    8  C   UNK N   1      20.974  14.966   6.656  0.00  0.00     0.037 C 
HETATM    9  C   UNK N   1      20.872  16.210   3.083  0.00  0.00     0.160 C 
HETATM   10  C   UNK N   1      22.421  14.345   6.743  0.00  0.00     0.147 C 
HETATM   11  C   UNK N   1      19.477  16.608   3.534  0.00  0.00     0.168 C 
HETATM   12  C   UNK N   1      19.479  16.488   5.086  0.00  0.00     0.041 C 
HETATM   13  C   UNK N   1      22.743  14.851   4.239  0.00  0.00     0.048 C 
HETATM   14  C   UNK N   1      22.932  13.833   5.361  0.00  0.00     0.160 C 
HETATM   15  C   UNK N   1      22.370  13.183   7.783  0.00  0.00     0.039 C 
HETATM   16  C   UNK N   1      20.654  15.676   7.973  0.00  0.00     0.050 C 
HETATM   17  C   UNK N   1      20.453  13.902   3.945  0.00  0.00     0.019 C 
HETATM   18  C   UNK N   1      20.952  14.885   9.266  0.00  0.00     0.201 C 
HETATM   19  C   UNK N   1      20.597  18.399   2.809  0.00  0.00     0.159 C 
HETATM   20  C   UNK N   1      21.926  13.722   9.148  0.00  0.00    -0.027 C 
HETATM   21  C   UNK N   1      21.334  12.139   7.353  0.00  0.00     0.028 C 
HETATM   22  C   UNK N   1      23.663  12.387   7.853  0.00  0.00    -0.006 C 
HETATM   23  C   UNK N   1      20.666  18.730   1.325  0.00  0.00     0.078 C 
HETATM   24  C   UNK N   1      20.875  19.665   3.593  0.00  0.00     0.078 C 
HETATM   25  C   UNK N   1      22.390  13.168  10.285  0.00  0.00     0.061 C 
HETATM   26  C   UNK N   1      24.118  11.848   8.987  0.00  0.00     0.052 C 
HETATM   27  C   UNK N   1      23.421  12.116  10.247  0.00  0.00     0.172 C 
ENDROOT
BRANCH   9  28
HETATM   28  C   UNK N   1      21.035  15.622   1.692  0.00  0.00     0.188 C 
HETATM   29  O   UNK N   1      22.143  15.420   1.221  0.00  0.00    -0.292 OA
BRANCH  28  30
HETATM   30  C   UNK N   1      19.820  15.298   0.883  0.00  0.00     0.260 C 
BRANCH  30  31
HETATM   31  O   UNK N   1      19.924  13.996   0.443  0.00  0.00    -0.314 OA
BRANCH  31  32
HETATM   32  C   UNK N   1      18.947  13.081   0.630  0.00  0.00     0.255 C 
HETATM   33  O   UNK N   1      17.848  13.451   1.022  0.00  0.00    -0.266 OA
HETATM   34  C   UNK N   1      19.180  11.625   0.387  0.00  0.00     0.126 C 
ENDBRANCH  31  32
ENDBRANCH  30  31
ENDBRANCH  28  30
ENDBRANCH   9  28
BRANCH  14  35
HETATM   35  O   UNK N   1      24.284  13.488   5.413  0.00  0.00    -0.392 OA
HETATM   36  H   UNK N   1      25.042  13.994   5.744  0.00  0.00     0.210 HD
ENDBRANCH  14  35
TORSDOF 5
ENDMDL
MODEL 4
REMARK VINA RESULT:      -7.7      2.816      5.098
REMARK  5 active torsions:
REMARK  status: ('A' for Active; 'I' for Inactive)
REMARK    1  A    between atoms: C_18  and  O_5 
REMARK    2  A    between atoms: O_7  and  C_28 
REMARK    3  A    between atoms: O_7  and  C_34 
REMARK    4  A    between atoms: C_13  and  C_23 
REMARK    5  A    between atoms: C_23  and  C_28 
ROOT
HETATM    1  F   UNK N   1      31.359  15.319   8.842  0.00  0.00    -0.238 F 
HETATM    2  F   UNK N   1      34.342  13.324   6.092  0.00  0.00    -0.245 F 
HETATM    3  O   UNK N   1      27.313  16.085   6.259  0.00  0.00    -0.334 OA
HETATM    4  O   UNK N   1      27.266  15.202   4.109  0.00  0.00    -0.347 OA
HETATM    5  O   UNK N   1      36.817  15.401  10.084  0.00  0.00    -0.289 OA
HETATM    6  C   UNK N   1      29.623  16.917   6.080  0.00  0.00     0.004 C 
HETATM    7  C   UNK N   1      30.076  15.459   6.079  0.00  0.00     0.007 C 
HETATM    8  C   UNK N   1      31.580  15.366   6.437  0.00  0.00     0.037 C 
HETATM    9  C   UNK N   1      28.220  16.825   5.485  0.00  0.00     0.160 C 
HETATM   10  C   UNK N   1      31.872  16.091   7.807  0.00  0.00     0.147 C 
HETATM   11  C   UNK N   1      28.453  15.915   4.290  0.00  0.00     0.168 C 
HETATM   12  C   UNK N   1      29.625  14.973   4.694  0.00  0.00     0.041 C 
HETATM   13  C   UNK N   1      29.718  17.465   7.493  0.00  0.00     0.048 C 
HETATM   14  C   UNK N   1      31.190  17.491   7.898  0.00  0.00     0.160 C 
HETATM   15  C   UNK N   1      33.421  16.217   7.950  0.00  0.00     0.039 C 
HETATM   16  C   UNK N   1      32.052  13.914   6.528  0.00  0.00     0.050 C 
HETATM   17  C   UNK N   1      30.496  17.797   5.144  0.00  0.00     0.019 C 
HETATM   18  C   UNK N   1      33.469  13.690   7.099  0.00  0.00     0.201 C 
HETATM   19  C   UNK N   1      26.535  15.384   5.305  0.00  0.00     0.159 C 
HETATM   20  C   UNK N   1      34.063  14.825   7.921  0.00  0.00    -0.027 C 
HETATM   21  C   UNK N   1      33.994  17.001   6.765  0.00  0.00     0.028 C 
HETATM   22  C   UNK N   1      33.845  17.040   9.155  0.00  0.00    -0.006 C 
HETATM   23  C   UNK N   1      25.253  16.148   5.003  0.00  0.00     0.078 C 
HETATM   24  C   UNK N   1      26.161  14.030   5.870  0.00  0.00     0.078 C 
HETATM   25  C   UNK N   1      35.182  14.575   8.628  0.00  0.00     0.061 C 
HETATM   26  C   UNK N   1      34.954  16.779   9.853  0.00  0.00     0.052 C 
HETATM   27  C   UNK N   1      35.747  15.590   9.534  0.00  0.00     0.172 C 
ENDROOT
BRANCH   9  28
HETATM   28  C   UNK N   1      27.633  18.203   5.232  0.00  0.00     0.188 C 
HETATM   29  O   UNK N   1      27.238  18.897   6.155  0.00  0.00    -0.292 OA
BRANCH  28  30
HETATM   30  C   UNK N   1      27.525  18.711   3.830  0.00  0.00     0.260 C 
BRANCH  30  31
HETATM   31  O   UNK N   1      26.920  19.950   3.862  0.00  0.00    -0.314 OA
BRANCH  31  32
HETATM   32  C   UNK N   1      25.759  20.214   3.223  0.00  0.00     0.255 C 
HETATM   33  O   UNK N   1      25.773  20.934   2.232  0.00  0.00    -0.266 OA
HETATM   34  C   UNK N   1      24.457  19.664   3.705  0.00  0.00     0.126 C 
ENDBRANCH  31  32
ENDBRANCH  30  31
ENDBRANCH  28  30
ENDBRANCH   9  28
BRANCH  14  35
HETATM   35  O   UNK N   1      31.278  18.019   9.186  0.00  0.00    -0.392 OA
HETATM   36  H   UNK N   1      31.358  17.565  10.040  0.00  0.00     0.210 HD
ENDBRANCH  14  35
TORSDOF 5
ENDMDL
MODEL 5
REMARK VINA RESULT:      -7.7      4.416      7.572
REMARK  5 active torsions:
REMARK  status: ('A' for Active; 'I' for Inactive)
REMARK    1  A    between atoms: C_18  and  O_5 
REMARK    2  A    between atoms: O_7  and  C_28 
REMARK    3  A    between atoms: O_7  and  C_34 
REMARK    4  A    between atoms: C_13  and  C_23 
REMARK    5  A    between atoms: C_23  and  C_28 
ROOT
HETATM    1  F   UNK N   1      33.445  13.264   8.738  0.00  0.00    -0.238 F 
HETATM    2  F   UNK N   1      37.788  14.188   7.885  0.00  0.00    -0.245 F 
HETATM    3  O   UNK N   1      30.854  14.957   4.990  0.00  0.00    -0.334 OA
HETATM    4  O   UNK N   1      32.056  15.793   3.185  0.00  0.00    -0.347 OA
HETATM    5  O   UNK N   1      37.180  13.313  12.909  0.00  0.00    -0.289 OA
HETATM    6  C   UNK N   1      32.278  16.028   6.689  0.00  0.00     0.004 C 
HETATM    7  C   UNK N   1      33.383  15.060   6.274  0.00  0.00     0.007 C 
HETATM    8  C   UNK N   1      34.467  14.980   7.378  0.00  0.00     0.037 C 
HETATM    9  C   UNK N   1      31.455  16.153   5.409  0.00  0.00     0.160 C 
HETATM   10  C   UNK N   1      33.820  14.602   8.766  0.00  0.00     0.147 C 
HETATM   11  C   UNK N   1      32.540  16.360   4.366  0.00  0.00     0.168 C 
HETATM   12  C   UNK N   1      33.789  15.593   4.892  0.00  0.00     0.041 C 
HETATM   13  C   UNK N   1      31.554  15.464   7.898  0.00  0.00     0.048 C 
HETATM   14  C   UNK N   1      32.534  15.432   9.069  0.00  0.00     0.160 C 
HETATM   15  C   UNK N   1      34.903  14.833   9.866  0.00  0.00     0.039 C 
HETATM   16  C   UNK N   1      35.550  13.956   7.035  0.00  0.00     0.050 C 
HETATM   17  C   UNK N   1      32.839  17.430   7.051  0.00  0.00     0.019 C 
HETATM   18  C   UNK N   1      36.556  13.624   8.159  0.00  0.00     0.201 C 
HETATM   19  C   UNK N   1      30.960  14.991   3.578  0.00  0.00     0.159 C 
HETATM   20  C   UNK N   1      36.131  13.960   9.580  0.00  0.00    -0.027 C 
HETATM   21  C   UNK N   1      35.372  16.291   9.841  0.00  0.00     0.028 C 
HETATM   22  C   UNK N   1      34.367  14.659  11.277  0.00  0.00    -0.006 C 
HETATM   23  C   UNK N   1      29.682  15.545   2.964  0.00  0.00     0.078 C 
HETATM   24  C   UNK N   1      31.166  13.582   3.062  0.00  0.00     0.078 C 
HETATM   25  C   UNK N   1      36.870  13.470  10.594  0.00  0.00     0.061 C 
HETATM   26  C   UNK N   1      35.107  14.165  12.274  0.00  0.00     0.052 C 
HETATM   27  C   UNK N   1      36.453  13.659  11.994  0.00  0.00     0.172 C 
ENDROOT
BRANCH   9  28
HETATM   28  C   UNK N   1      30.379  17.217   5.543  0.00  0.00     0.188 C 
HETATM   29  O   UNK N   1      30.459  18.272   4.936  0.00  0.00    -0.292 OA
BRANCH  28  30
HETATM   30  C   UNK N   1      29.211  16.973   6.445  0.00  0.00     0.260 C 
BRANCH  30  31
HETATM   31  O   UNK N   1      29.025  18.092   7.229  0.00  0.00    -0.314 OA
BRANCH  31  32
HETATM   32  C   UNK N   1      28.859  18.027   8.568  0.00  0.00     0.255 C 
HETATM   33  O   UNK N   1      27.892  17.429   9.022  0.00  0.00    -0.266 OA
HETATM   34  C   UNK N   1      29.817  18.683   9.509  0.00  0.00     0.126 C 
ENDBRANCH  31  32
ENDBRANCH  30  31
ENDBRANCH  28  30
ENDBRANCH   9  28
BRANCH  14  35
HETATM   35  O   UNK N   1      31.861  14.939  10.188  0.00  0.00    -0.392 OA
HETATM   36  H   UNK N   1      32.201  14.446  10.951  0.00  0.00     0.210 HD
ENDBRANCH  14  35
TORSDOF 5
ENDMDL
MODEL 6
REMARK VINA RESULT:      -7.5      2.974      8.183
REMARK  5 active torsions:
REMARK  status: ('A' for Active; 'I' for Inactive)
REMARK    1  A    between atoms: C_18  and  O_5 
REMARK    2  A    between atoms: O_7  and  C_28 
REMARK    3  A    between atoms: O_7  and  C_34 
REMARK    4  A    between atoms: C_13  and  C_23 
REMARK    5  A    between atoms: C_23  and  C_28 
ROOT
HETATM    1  F   UNK N   1      27.635  16.007   3.226  0.00  0.00    -0.238 F 
HETATM    2  F   UNK N   1      25.829  13.197   6.273  0.00  0.00    -0.245 F 
HETATM    3  O   UNK N   1      32.435  15.241   3.234  0.00  0.00    -0.334 OA
HETATM    4  O   UNK N   1      33.208  13.481   4.542  0.00  0.00    -0.347 OA
HETATM    5  O   UNK N   1      22.538  17.019   5.308  0.00  0.00    -0.289 OA
HETATM    6  C   UNK N   1      30.846  16.060   4.926  0.00  0.00     0.004 C 
HETATM    7  C   UNK N   1      30.031  14.794   4.674  0.00  0.00     0.007 C 
HETATM    8  C   UNK N   1      28.584  14.978   5.196  0.00  0.00     0.037 C 
HETATM    9  C   UNK N   1      32.263  15.612   4.576  0.00  0.00     0.160 C 
HETATM   10  C   UNK N   1      27.922  16.262   4.562  0.00  0.00     0.147 C 
HETATM   11  C   UNK N   1      32.350  14.280   5.301  0.00  0.00     0.168 C 
HETATM   12  C   UNK N   1      30.904  13.705   5.314  0.00  0.00     0.041 C 
HETATM   13  C   UNK N   1      30.275  17.192   4.091  0.00  0.00     0.048 C 
HETATM   14  C   UNK N   1      28.869  17.500   4.600  0.00  0.00     0.160 C 
HETATM   15  C   UNK N   1      26.604  16.545   5.348  0.00  0.00     0.039 C 
HETATM   16  C   UNK N   1      27.711  13.760   4.886  0.00  0.00     0.050 C 
HETATM   17  C   UNK N   1      30.819  16.480   6.421  0.00  0.00     0.019 C 
HETATM   18  C   UNK N   1      26.198  13.917   5.153  0.00  0.00     0.201 C 
HETATM   19  C   UNK N   1      33.316  14.133   3.292  0.00  0.00     0.159 C 
HETATM   20  C   UNK N   1      25.663  15.339   5.244  0.00  0.00    -0.027 C 
HETATM   21  C   UNK N   1      26.913  16.747   6.835  0.00  0.00     0.028 C 
HETATM   22  C   UNK N   1      25.938  17.851   4.947  0.00  0.00    -0.006 C 
HETATM   23  C   UNK N   1      34.754  14.587   3.081  0.00  0.00     0.078 C 
HETATM   24  C   UNK N   1      32.957  13.157   2.190  0.00  0.00     0.078 C 
HETATM   25  C   UNK N   1      24.328  15.513   5.234  0.00  0.00     0.061 C 
HETATM   26  C   UNK N   1      24.612  18.011   4.934  0.00  0.00     0.052 C 
HETATM   27  C   UNK N   1      23.742  16.864   5.204  0.00  0.00     0.172 C 
ENDROOT
BRANCH   9  28
HETATM   28  C   UNK N   1      33.284  16.683   4.920  0.00  0.00     0.188 C 
HETATM   29  O   UNK N   1      33.400  17.684   4.233  0.00  0.00    -0.292 OA
BRANCH  28  30
HETATM   30  C   UNK N   1      34.170  16.500   6.111  0.00  0.00     0.260 C 
BRANCH  30  31
HETATM   31  O   UNK N   1      34.514  17.745   6.593  0.00  0.00    -0.314 OA
BRANCH  31  32
HETATM   32  C   UNK N   1      34.397  18.083   7.896  0.00  0.00     0.255 C 
HETATM   33  O   UNK N   1      34.957  19.093   8.304  0.00  0.00    -0.266 OA
HETATM   34  C   UNK N   1      33.617  17.246   8.856  0.00  0.00     0.126 C 
ENDBRANCH  31  32
ENDBRANCH  30  31
ENDBRANCH  28  30
ENDBRANCH   9  28
BRANCH  14  35
HETATM   35  O   UNK N   1      28.356  18.558   3.849  0.00  0.00    -0.392 OA
HETATM   36  H   UNK N   1      28.207  19.484   4.100  0.00  0.00     0.210 HD
ENDBRANCH  14  35
TORSDOF 5
ENDMDL
MODEL 7
REMARK VINA RESULT:      -7.4     11.412     14.070
REMARK  5 active torsions:
REMARK  status: ('A' for Active; 'I' for Inactive)
REMARK    1  A    between atoms: C_18  and  O_5 
REMARK    2  A    between atoms: O_7  and  C_28 
REMARK    3  A    between atoms: O_7  and  C_34 
REMARK    4  A    between atoms: C_13  and  C_23 
REMARK    5  A    between atoms: C_23  and  C_28 
ROOT
HETATM    1  F   UNK N   1      29.434  25.177  -6.362  0.00  0.00    -0.238 F 
HETATM    2  F   UNK N   1      25.282  23.389  -6.287  0.00  0.00    -0.245 F 
HETATM    3  O   UNK N   1      32.565  21.512  -6.987  0.00  0.00    -0.334 OA
HETATM    4  O   UNK N   1      31.648  19.413  -7.382  0.00  0.00    -0.347 OA
HETATM    5  O   UNK N   1      25.180  28.043  -4.119  0.00  0.00    -0.289 OA
HETATM    6  C   UNK N   1      30.969  22.093  -5.206  0.00  0.00     0.004 C 
HETATM    7  C   UNK N   1      29.893  22.162  -6.287  0.00  0.00     0.007 C 
HETATM    8  C   UNK N   1      28.669  22.962  -5.774  0.00  0.00     0.037 C 
HETATM    9  C   UNK N   1      31.959  21.091  -5.794  0.00  0.00     0.160 C 
HETATM   10  C   UNK N   1      29.110  24.388  -5.264  0.00  0.00     0.147 C 
HETATM   11  C   UNK N   1      31.031  19.984  -6.267  0.00  0.00     0.168 C 
HETATM   12  C   UNK N   1      29.696  20.684  -6.654  0.00  0.00     0.041 C 
HETATM   13  C   UNK N   1      31.502  23.490  -4.947  0.00  0.00     0.048 C 
HETATM   14  C   UNK N   1      30.374  24.330  -4.352  0.00  0.00     0.160 C 
HETATM   15  C   UNK N   1      27.899  25.007  -4.499  0.00  0.00     0.039 C 
HETATM   16  C   UNK N   1      27.603  23.125  -6.859  0.00  0.00     0.050 C 
HETATM   17  C   UNK N   1      30.417  21.514  -3.874  0.00  0.00     0.019 C 
HETATM   18  C   UNK N   1      26.444  24.094  -6.538  0.00  0.00     0.201 C 
HETATM   19  C   UNK N   1      32.650  20.332  -7.767  0.00  0.00     0.159 C 
HETATM   20  C   UNK N   1      26.688  25.111  -5.434  0.00  0.00    -0.027 C 
HETATM   21  C   UNK N   1      27.493  24.095  -3.337  0.00  0.00     0.028 C 
HETATM   22  C   UNK N   1      28.234  26.321  -3.814  0.00  0.00    -0.006 C 
HETATM   23  C   UNK N   1      34.019  19.686  -7.604  0.00  0.00     0.078 C 
HETATM   24  C   UNK N   1      32.462  20.689  -9.227  0.00  0.00     0.078 C 
HETATM   25  C   UNK N   1      25.802  26.116  -5.293  0.00  0.00     0.061 C 
HETATM   26  C   UNK N   1      27.350  27.314  -3.686  0.00  0.00     0.052 C 
HETATM   27  C   UNK N   1      26.035  27.199  -4.321  0.00  0.00     0.172 C 
ENDROOT
BRANCH   9  28
HETATM   28  C   UNK N   1      33.047  20.735  -4.795  0.00  0.00     0.188 C 
HETATM   29  O   UNK N   1      33.963  21.507  -4.561  0.00  0.00    -0.292 OA
BRANCH  28  30
HETATM   30  C   UNK N   1      33.002  19.413  -4.097  0.00  0.00     0.260 C 
BRANCH  30  31
HETATM   31  O   UNK N   1      34.277  18.890  -4.072  0.00  0.00    -0.314 OA
BRANCH  31  32
HETATM   32  C   UNK N   1      34.527  17.566  -4.175  0.00  0.00     0.255 C 
HETATM   33  O   UNK N   1      34.139  16.814  -3.291  0.00  0.00    -0.266 OA
HETATM   34  C   UNK N   1      35.282  16.999  -5.333  0.00  0.00     0.126 C 
ENDBRANCH  31  32
ENDBRANCH  30  31
ENDBRANCH  28  30
ENDBRANCH   9  28
BRANCH  14  35
HETATM   35  O   UNK N   1      30.873  25.606  -4.090  0.00  0.00    -0.392 OA
HETATM   36  H   UNK N   1      30.858  26.123  -3.269  0.00  0.00     0.210 HD
ENDBRANCH  14  35
TORSDOF 5
ENDMDL
MODEL 8
REMARK VINA RESULT:      -7.3      3.615      8.717
REMARK  5 active torsions:
REMARK  status: ('A' for Active; 'I' for Inactive)
REMARK    1  A    between atoms: C_18  and  O_5 
REMARK    2  A    between atoms: O_7  and  C_28 
REMARK    3  A    between atoms: O_7  and  C_34 
REMARK    4  A    between atoms: C_13  and  C_23 
REMARK    5  A    between atoms: C_23  and  C_28 
ROOT
HETATM    1  F   UNK N   1      22.223  16.885   6.325  0.00  0.00    -0.238 F 
HETATM    2  F   UNK N   1      19.906  17.868   2.570  0.00  0.00    -0.245 F 
HETATM    3  O   UNK N   1      26.499  19.176   6.015  0.00  0.00    -0.334 OA
HETATM    4  O   UNK N   1      26.784  20.612   4.209  0.00  0.00    -0.347 OA
HETATM    5  O   UNK N   1      17.945  13.644   4.734  0.00  0.00    -0.289 OA
HETATM    6  C   UNK N   1      25.426  17.401   4.689  0.00  0.00     0.004 C 
HETATM    7  C   UNK N   1      24.226  18.334   4.538  0.00  0.00     0.007 C 
HETATM    8  C   UNK N   1      22.972  17.527   4.120  0.00  0.00     0.037 C 
HETATM    9  C   UNK N   1      26.583  18.383   4.862  0.00  0.00     0.160 C 
HETATM   10  C   UNK N   1      22.702  16.351   5.135  0.00  0.00     0.147 C 
HETATM   11  C   UNK N   1      26.305  19.382   3.751  0.00  0.00     0.168 C 
HETATM   12  C   UNK N   1      24.758  19.406   3.576  0.00  0.00     0.041 C 
HETATM   13  C   UNK N   1      25.174  16.452   5.846  0.00  0.00     0.048 C 
HETATM   14  C   UNK N   1      23.996  15.552   5.478  0.00  0.00     0.160 C 
HETATM   15  C   UNK N   1      21.625  15.419   4.496  0.00  0.00     0.039 C 
HETATM   16  C   UNK N   1      21.728  18.416   4.040  0.00  0.00     0.050 C 
HETATM   17  C   UNK N   1      25.677  16.566   3.403  0.00  0.00     0.019 C 
HETATM   18  C   UNK N   1      20.379  17.687   3.855  0.00  0.00     0.201 C 
HETATM   19  C   UNK N   1      26.977  20.443   5.599  0.00  0.00     0.159 C 
HETATM   20  C   UNK N   1      20.341  16.212   4.225  0.00  0.00    -0.027 C 
HETATM   21  C   UNK N   1      22.122  14.894   3.145  0.00  0.00     0.028 C 
HETATM   22  C   UNK N   1      21.381  14.151   5.297  0.00  0.00    -0.006 C 
HETATM   23  C   UNK N   1      28.458  20.583   5.925  0.00  0.00     0.078 C 
HETATM   24  C   UNK N   1      26.221  21.526   6.341  0.00  0.00     0.078 C 
HETATM   25  C   UNK N   1      19.139  15.611   4.306  0.00  0.00     0.061 C 
HETATM   26  C   UNK N   1      20.182  13.567   5.377  0.00  0.00     0.052 C 
HETATM   27  C   UNK N   1      19.019  14.217   4.769  0.00  0.00     0.172 C 
ENDROOT
BRANCH   9  28
HETATM   28  C   UNK N   1      27.922  17.665   4.861  0.00  0.00     0.188 C 
HETATM   29  O   UNK N   1      28.709  17.805   3.938  0.00  0.00    -0.292 OA
BRANCH  28  30
HETATM   30  C   UNK N   1      28.276  16.764   6.000  0.00  0.00     0.260 C 
BRANCH  30  31
HETATM   31  O   UNK N   1      29.180  17.420   6.809  0.00  0.00    -0.314 OA
BRANCH  31  32
HETATM   32  C   UNK N   1      28.929  17.702   8.107  0.00  0.00     0.255 C 
HETATM   33  O   UNK N   1      27.901  17.282   8.622  0.00  0.00    -0.266 OA
HETATM   34  C   UNK N   1      29.867  18.530   8.924  0.00  0.00     0.126 C 
ENDBRANCH  31  32
ENDBRANCH  30  31
ENDBRANCH  28  30
ENDBRANCH   9  28
BRANCH  14  35
HETATM   35  O   UNK N   1      23.782  14.662   6.531  0.00  0.00    -0.392 OA
HETATM   36  H   UNK N   1      24.068  13.740   6.634  0.00  0.00     0.210 HD
ENDBRANCH  14  35
TORSDOF 5
ENDMDL
MODEL 9
REMARK VINA RESULT:      -7.3      2.940      7.249
REMARK  5 active torsions:
REMARK  status: ('A' for Active; 'I' for Inactive)
REMARK    1  A    between atoms: C_18  and  O_5 
REMARK    2  A    between atoms: O_7  and  C_28 
REMARK    3  A    between atoms: O_7  and  C_34 
REMARK    4  A    between atoms: C_13  and  C_23 
REMARK    5  A    between atoms: C_23  and  C_28 
ROOT
HETATM    1  F   UNK N   1      27.360  17.617   6.503  0.00  0.00    -0.238 F 
HETATM    2  F   UNK N   1      26.904  20.516   3.063  0.00  0.00    -0.245 F 
HETATM    3  O   UNK N   1      32.004  16.182   6.565  0.00  0.00    -0.334 OA
HETATM    4  O   UNK N   1      33.441  17.236   5.073  0.00  0.00    -0.347 OA
HETATM    5  O   UNK N   1      22.289  18.695   4.390  0.00  0.00    -0.289 OA
HETATM    6  C   UNK N   1      30.174  15.936   4.936  0.00  0.00     0.004 C 
HETATM    7  C   UNK N   1      30.008  17.452   4.997  0.00  0.00     0.007 C 
HETATM    8  C   UNK N   1      28.616  17.860   4.453  0.00  0.00     0.037 C 
HETATM    9  C   UNK N   1      31.652  15.755   5.276  0.00  0.00     0.160 C 
HETATM   10  C   UNK N   1      27.471  17.093   5.221  0.00  0.00     0.147 C 
HETATM   11  C   UNK N   1      32.300  16.807   4.391  0.00  0.00     0.168 C 
HETATM   12  C   UNK N   1      31.256  17.953   4.256  0.00  0.00     0.041 C 
HETATM   13  C   UNK N   1      29.184  15.290   5.888  0.00  0.00     0.048 C 
HETATM   14  C   UNK N   1      27.774  15.570   5.373  0.00  0.00     0.160 C 
HETATM   15  C   UNK N   1      26.144  17.320   4.432  0.00  0.00     0.039 C 
HETATM   16  C   UNK N   1      28.378  19.366   4.576  0.00  0.00     0.050 C 
HETATM   17  C   UNK N   1      29.927  15.382   3.506  0.00  0.00     0.019 C 
HETATM   18  C   UNK N   1      26.945  19.859   4.278  0.00  0.00     0.201 C 
HETATM   19  C   UNK N   1      33.281  16.771   6.398  0.00  0.00     0.159 C 
HETATM   20  C   UNK N   1      25.836  18.820   4.350  0.00  0.00    -0.027 C 
HETATM   21  C   UNK N   1      26.295  16.813   2.994  0.00  0.00     0.028 C 
HETATM   22  C   UNK N   1      24.981  16.505   4.972  0.00  0.00    -0.006 C 
HETATM   23  C   UNK N   1      34.375  15.761   6.715  0.00  0.00     0.078 C 
HETATM   24  C   UNK N   1      33.417  17.938   7.354  0.00  0.00     0.078 C 
HETATM   25  C   UNK N   1      24.561  19.254   4.335  0.00  0.00     0.061 C 
HETATM   26  C   UNK N   1      23.721  16.948   4.959  0.00  0.00     0.052 C 
HETATM   27  C   UNK N   1      23.440  18.316   4.516  0.00  0.00     0.172 C 
ENDROOT
BRANCH   9  28
HETATM   28  C   UNK N   1      32.087  14.309   5.106  0.00  0.00     0.188 C 
HETATM   29  O   UNK N   1      31.737  13.451   5.899  0.00  0.00    -0.292 OA
BRANCH  28  30
HETATM   30  C   UNK N   1      32.967  13.936   3.957  0.00  0.00     0.260 C 
BRANCH  30  31
HETATM   31  O   UNK N   1      32.444  12.811   3.355  0.00  0.00    -0.314 OA
BRANCH  31  32
HETATM   32  C   UNK N   1      32.182  12.745   2.030  0.00  0.00     0.255 C 
HETATM   33  O   UNK N   1      33.055  13.063   1.232  0.00  0.00    -0.266 OA
HETATM   34  C   UNK N   1      30.848  12.312   1.516  0.00  0.00     0.126 C 
ENDBRANCH  31  32
ENDBRANCH  30  31
ENDBRANCH  28  30
ENDBRANCH   9  28
BRANCH  14  35
HETATM   35  O   UNK N   1      26.865  14.953   6.234  0.00  0.00    -0.392 OA
HETATM   36  H   UNK N   1      25.895  14.982   6.239  0.00  0.00     0.210 HD
ENDBRANCH  14  35
TORSDOF 5
ENDMDL
