REMARK  11 active torsions:
REMARK  status: ('A' for Active; 'I' for Inactive)
REMARK    1  A    between atoms: O_1  and  C_8 
REMARK    2  A    between atoms: O_2  and  C_13 
REMARK    3  A    between atoms: O_2  and  C_19 
REMARK    4  A    between atoms: N_4  and  C_21 
REMARK    5  A    between atoms: N_4  and  C_22 
REMARK    6  A    between atoms: N_4  and  C_23 
REMARK    7  A    between atoms: C_5  and  C_8 
REMARK    8  A    between atoms: C_8  and  C_12 
REMARK    9  A    between atoms: C_8  and  C_13 
REMARK   10  A    between atoms: C_19  and  C_20 
REMARK   11  A    between atoms: C_21  and  C_24 
ROOT
HETATM    1  C   UNK N   1       2.390   0.831  -0.131  0.00  0.00     0.176 C 
ENDROOT
BRANCH   1   2
HETATM    2  O   UNK N   1       1.582   1.072   0.984  0.00  0.00    -0.374 OA
HETATM    3  H   UNK N   1       1.447   1.641   1.758  0.00  0.00     0.211 HD
ENDBRANCH   1   2
BRANCH   1   4
HETATM    4  C   UNK N   1       2.001   1.881  -1.267  0.00  0.00     0.035 C 
HETATM    5  C   UNK N   1       0.833   2.801  -0.857  0.00  0.00     0.008 C 
HETATM    6  C   UNK N   1       1.211   3.671   0.360  0.00  0.00     0.001 C 
HETATM    7  C   UNK N   1       2.439   4.543   0.100  0.00  0.00     0.000 C 
HETATM    8  C   UNK N   1       3.590   3.774  -0.547  0.00  0.00     0.001 C 
HETATM    9  C   UNK N   1       3.119   2.870  -1.707  0.00  0.00     0.008 C 
ENDBRANCH   1   4
BRANCH   1  10
HETATM   10  C   UNK N   1       2.187  -0.688  -0.367  0.00  0.00    -0.014 A 
HETATM   11  C   UNK N   1       3.274  -1.567  -0.216  0.00  0.00     0.011 A 
HETATM   12  C   UNK N   1       3.105  -2.919   0.089  0.00  0.00     0.001 A 
HETATM   13  C   UNK N   1       1.826  -3.428   0.271  0.00  0.00     0.000 A 
HETATM   14  C   UNK N   1       0.720  -2.599   0.064  0.00  0.00     0.001 A 
HETATM   15  C   UNK N   1       0.895  -1.237  -0.242  0.00  0.00     0.011 A 
ENDBRANCH   1  10
BRANCH   1  16
HETATM   16  C   UNK N   1       3.808   1.079   0.333  0.00  0.00     0.299 C 
HETATM   17  O   UNK N   1       4.031   1.349   1.504  0.00  0.00    -0.261 OA
BRANCH  16  18
HETATM   18  O   UNK N   1       4.830   0.985  -0.541  0.00  0.00    -0.307 OA
BRANCH  18  19
HETATM   19  C   UNK N   1       6.092   0.709  -0.107  0.00  0.00     0.272 C 
BRANCH  19  20
HETATM   20  C   UNK N   1       6.080  -0.705   0.172  0.00  0.00    -0.078 C 
HETATM   21  C   UNK N   1       6.095  -1.872   0.403  0.00  0.00    -0.074 C 
BRANCH  21  22
HETATM   22  C   UNK N   1       6.530  -3.234   0.556  0.00  0.00     0.365 C 
BRANCH  22  23
HETATM   23  N   UNK N   1       7.914  -3.319   0.064  0.00  0.00     0.098 N 
BRANCH  23  24
HETATM   24  C   UNK N   1       8.479  -2.215  -0.726  0.00  0.00     0.269 C 
HETATM   25  C   UNK N   1       9.424  -1.448   0.178  0.00  0.00     0.037 C 
ENDBRANCH  23  24
BRANCH  23  26
HETATM   26  C   UNK N   1       8.194  -4.575  -0.580  0.00  0.00     0.269 C 
HETATM   27  C   UNK N   1       9.463  -5.089   0.058  0.00  0.00     0.037 C 
ENDBRANCH  23  26
ENDBRANCH  22  23
ENDBRANCH  21  22
ENDBRANCH  19  20
ENDBRANCH  18  19
ENDBRANCH  16  18
ENDBRANCH   1  16
TORSDOF 11
