MODEL 1
REMARK VINA RESULT:      -6.3      0.000      0.000
REMARK  11 active torsions:
REMARK  status: ('A' for Active; 'I' for Inactive)
REMARK    1  A    between atoms: O_1  and  C_8 
REMARK    2  A    between atoms: O_2  and  C_13 
REMARK    3  A    between atoms: O_2  and  C_19 
REMARK    4  A    between atoms: N_4  and  C_21 
REMARK    5  A    between atoms: N_4  and  C_22 
REMARK    6  A    between atoms: N_4  and  C_23 
REMARK    7  A    between atoms: C_5  and  C_8 
REMARK    8  A    between atoms: C_8  and  C_12 
REMARK    9  A    between atoms: C_8  and  C_13 
REMARK   10  A    between atoms: C_19  and  C_20 
REMARK   11  A    between atoms: C_21  and  C_24 
ROOT
HETATM    1  C   UNK N   1      33.619  16.506   8.859  0.00  0.00     0.176 C 
ENDROOT
BRANCH   1   2
HETATM    2  O   UNK N   1      32.599  16.074   9.712  0.00  0.00    -0.374 OA
HETATM    3  H   UNK N   1      31.663  15.827   9.767  0.00  0.00     0.211 HD
ENDBRANCH   1   2
BRANCH   1   4
HETATM    4  C   UNK N   1      33.041  17.674   7.939  0.00  0.00     0.035 C 
HETATM    5  C   UNK N   1      32.898  17.257   6.461  0.00  0.00     0.008 C 
HETATM    6  C   UNK N   1      31.884  16.105   6.305  0.00  0.00     0.001 C 
HETATM    7  C   UNK N   1      30.497  16.466   6.837  0.00  0.00     0.000 C 
HETATM    8  C   UNK N   1      30.541  17.126   8.214  0.00  0.00     0.001 C 
HETATM    9  C   UNK N   1      31.631  18.216   8.313  0.00  0.00     0.008 C 
ENDBRANCH   1   4
BRANCH   1  10
HETATM   10  C   UNK N   1      34.106  15.178   8.223  0.00  0.00    -0.014 A 
HETATM   11  C   UNK N   1      35.379  15.116   7.629  0.00  0.00     0.011 A 
HETATM   12  C   UNK N   1      36.086  13.919   7.500  0.00  0.00     0.001 A 
HETATM   13  C   UNK N   1      35.536  12.740   7.985  0.00  0.00     0.000 A 
HETATM   14  C   UNK N   1      34.245  12.753   8.521  0.00  0.00     0.001 A 
HETATM   15  C   UNK N   1      33.537  13.961   8.651  0.00  0.00     0.011 A 
ENDBRANCH   1  10
BRANCH   1  16
HETATM   16  C   UNK N   1      34.701  17.053   9.763  0.00  0.00     0.299 C 
HETATM   17  O   UNK N   1      35.353  18.028   9.419  0.00  0.00    -0.261 OA
BRANCH  16  18
HETATM   18  O   UNK N   1      34.937  16.475  10.958  0.00  0.00    -0.307 OA
BRANCH  18  19
HETATM   19  C   UNK N   1      36.036  15.692  11.147  0.00  0.00     0.272 C 
BRANCH  19  20
HETATM   20  C   UNK N   1      35.518  14.465  11.698  0.00  0.00    -0.078 C 
HETATM   21  C   UNK N   1      35.104  13.457  12.174  0.00  0.00    -0.074 C 
BRANCH  21  22
HETATM   22  C   UNK N   1      34.939  12.307  13.022  0.00  0.00     0.365 C 
BRANCH  22  23
HETATM   23  N   UNK N   1      35.201  12.732  14.406  0.00  0.00     0.098 N 
BRANCH  23  24
HETATM   24  C   UNK N   1      36.584  12.790  14.904  0.00  0.00     0.269 C 
HETATM   25  C   UNK N   1      36.813  14.189  15.441  0.00  0.00     0.037 C 
ENDBRANCH  23  24
BRANCH  23  26
HETATM   26  C   UNK N   1      34.366  12.050  15.360  0.00  0.00     0.269 C 
HETATM   27  C   UNK N   1      33.813  10.846  14.634  0.00  0.00     0.037 C 
ENDBRANCH  23  26
ENDBRANCH  22  23
ENDBRANCH  21  22
ENDBRANCH  19  20
ENDBRANCH  18  19
ENDBRANCH  16  18
ENDBRANCH   1  16
TORSDOF 11
ENDMDL
MODEL 2
REMARK VINA RESULT:      -6.3     10.699     13.222
REMARK  11 active torsions:
REMARK  status: ('A' for Active; 'I' for Inactive)
REMARK    1  A    between atoms: O_1  and  C_8 
REMARK    2  A    between atoms: O_2  and  C_13 
REMARK    3  A    between atoms: O_2  and  C_19 
REMARK    4  A    between atoms: N_4  and  C_21 
REMARK    5  A    between atoms: N_4  and  C_22 
REMARK    6  A    between atoms: N_4  and  C_23 
REMARK    7  A    between atoms: C_5  and  C_8 
REMARK    8  A    between atoms: C_8  and  C_12 
REMARK    9  A    between atoms: C_8  and  C_13 
REMARK   10  A    between atoms: C_19  and  C_20 
REMARK   11  A    between atoms: C_21  and  C_24 
ROOT
HETATM    1  C   UNK N   1      22.177  17.337   5.587  0.00  0.00     0.176 C 
ENDROOT
BRANCH   1   2
HETATM    2  O   UNK N   1      23.265  18.176   5.845  0.00  0.00    -0.374 OA
HETATM    3  H   UNK N   1      23.952  18.730   5.443  0.00  0.00     0.211 HD
ENDBRANCH   1   2
BRANCH   1   4
HETATM    4  C   UNK N   1      22.674  15.825   5.701  0.00  0.00     0.035 C 
HETATM    5  C   UNK N   1      22.677  15.093   4.343  0.00  0.00     0.008 C 
HETATM    6  C   UNK N   1      23.666  15.752   3.359  0.00  0.00     0.001 C 
HETATM    7  C   UNK N   1      25.098  15.777   3.893  0.00  0.00     0.000 C 
HETATM    8  C   UNK N   1      25.186  16.258   5.341  0.00  0.00     0.001 C 
HETATM    9  C   UNK N   1      24.115  15.610   6.245  0.00  0.00     0.008 C 
ENDBRANCH   1   4
BRANCH   1  10
HETATM   10  C   UNK N   1      21.645  17.887   4.239  0.00  0.00    -0.014 A 
HETATM   11  C   UNK N   1      20.341  17.564   3.822  0.00  0.00     0.011 A 
HETATM   12  C   UNK N   1      19.617  18.370   2.942  0.00  0.00     0.001 A 
HETATM   13  C   UNK N   1      20.181  19.546   2.464  0.00  0.00     0.000 A 
HETATM   14  C   UNK N   1      21.499  19.864   2.805  0.00  0.00     0.001 A 
HETATM   15  C   UNK N   1      22.224  19.050   3.693  0.00  0.00     0.011 A 
ENDBRANCH   1  10
BRANCH   1  16
HETATM   16  C   UNK N   1      21.171  17.630   6.678  0.00  0.00     0.299 C 
HETATM   17  O   UNK N   1      20.966  18.782   7.029  0.00  0.00    -0.261 OA
BRANCH  16  18
HETATM   18  O   UNK N   1      20.486  16.621   7.252  0.00  0.00    -0.307 OA
BRANCH  18  19
HETATM   19  C   UNK N   1      20.268  16.606   8.597  0.00  0.00     0.272 C 
BRANCH  19  20
HETATM   20  C   UNK N   1      20.678  15.289   9.017  0.00  0.00    -0.078 C 
HETATM   21  C   UNK N   1      21.003  14.205   9.385  0.00  0.00    -0.074 C 
BRANCH  21  22
HETATM   22  C   UNK N   1      21.263  13.059  10.214  0.00  0.00     0.365 C 
BRANCH  22  23
HETATM   23  N   UNK N   1      22.720  12.955  10.389  0.00  0.00     0.098 N 
BRANCH  23  24
HETATM   24  C   UNK N   1      23.616  13.275   9.268  0.00  0.00     0.269 C 
HETATM   25  C   UNK N   1      23.930  11.976   8.553  0.00  0.00     0.037 C 
ENDBRANCH  23  24
BRANCH  23  26
HETATM   26  C   UNK N   1      23.116  11.710  10.991  0.00  0.00     0.269 C 
HETATM   27  C   UNK N   1      23.045  11.936  12.483  0.00  0.00     0.037 C 
ENDBRANCH  23  26
ENDBRANCH  22  23
ENDBRANCH  21  22
ENDBRANCH  19  20
ENDBRANCH  18  19
ENDBRANCH  16  18
ENDBRANCH   1  16
TORSDOF 11
ENDMDL
MODEL 3
REMARK VINA RESULT:      -6.2      2.689      8.555
REMARK  11 active torsions:
REMARK  status: ('A' for Active; 'I' for Inactive)
REMARK    1  A    between atoms: O_1  and  C_8 
REMARK    2  A    between atoms: O_2  and  C_13 
REMARK    3  A    between atoms: O_2  and  C_19 
REMARK    4  A    between atoms: N_4  and  C_21 
REMARK    5  A    between atoms: N_4  and  C_22 
REMARK    6  A    between atoms: N_4  and  C_23 
REMARK    7  A    between atoms: C_5  and  C_8 
REMARK    8  A    between atoms: C_8  and  C_12 
REMARK    9  A    between atoms: C_8  and  C_13 
REMARK   10  A    between atoms: C_19  and  C_20 
REMARK   11  A    between atoms: C_21  and  C_24 
ROOT
HETATM    1  C   UNK N   1      35.665  12.613  14.398  0.00  0.00     0.176 C 
ENDROOT
BRANCH   1   2
HETATM    2  O   UNK N   1      34.276  12.726  14.510  0.00  0.00    -0.374 OA
HETATM    3  H   UNK N   1      33.516  12.611  15.102  0.00  0.00     0.211 HD
ENDBRANCH   1   2
BRANCH   1   4
HETATM    4  C   UNK N   1      36.026  11.076  14.174  0.00  0.00     0.035 C 
HETATM    5  C   UNK N   1      37.104  10.566  15.152  0.00  0.00     0.008 C 
HETATM    6  C   UNK N   1      36.610  10.638  16.612  0.00  0.00     0.001 C 
HETATM    7  C   UNK N   1      35.333   9.829  16.842  0.00  0.00     0.000 C 
HETATM    8  C   UNK N   1      34.272  10.074  15.770  0.00  0.00     0.001 C 
HETATM    9  C   UNK N   1      34.858  10.060  14.342  0.00  0.00     0.008 C 
ENDBRANCH   1   4
BRANCH   1  10
HETATM   10  C   UNK N   1      36.163  13.358  15.663  0.00  0.00    -0.014 A 
HETATM   11  C   UNK N   1      37.158  14.344  15.544  0.00  0.00     0.011 A 
HETATM   12  C   UNK N   1      37.302  15.377  16.473  0.00  0.00     0.001 A 
HETATM   13  C   UNK N   1      36.430  15.459  17.550  0.00  0.00     0.000 A 
HETATM   14  C   UNK N   1      35.472  14.459  17.736  0.00  0.00     0.001 A 
HETATM   15  C   UNK N   1      35.329  13.421  16.797  0.00  0.00     0.011 A 
ENDBRANCH   1  10
BRANCH   1  16
HETATM   16  C   UNK N   1      36.040  13.412  13.169  0.00  0.00     0.299 C 
HETATM   17  O   UNK N   1      37.008  13.086  12.498  0.00  0.00    -0.261 OA
BRANCH  16  18
HETATM   18  O   UNK N   1      35.295  14.474  12.802  0.00  0.00    -0.307 OA
BRANCH  18  19
HETATM   19  C   UNK N   1      35.881  15.582  12.267  0.00  0.00     0.272 C 
BRANCH  19  20
HETATM   20  C   UNK N   1      35.179  15.803  11.028  0.00  0.00    -0.078 C 
HETATM   21  C   UNK N   1      34.579  15.984  10.017  0.00  0.00    -0.074 C 
BRANCH  21  22
HETATM   22  C   UNK N   1      33.526  16.040   9.039  0.00  0.00     0.365 C 
BRANCH  22  23
HETATM   23  N   UNK N   1      33.254  17.458   8.755  0.00  0.00     0.098 N 
BRANCH  23  24
HETATM   24  C   UNK N   1      31.889  17.887   8.418  0.00  0.00     0.269 C 
HETATM   25  C   UNK N   1      30.981  16.685   8.584  0.00  0.00     0.037 C 
ENDBRANCH  23  24
BRANCH  23  26
HETATM   26  C   UNK N   1      34.190  18.022   7.820  0.00  0.00     0.269 C 
HETATM   27  C   UNK N   1      33.906  17.350   6.498  0.00  0.00     0.037 C 
ENDBRANCH  23  26
ENDBRANCH  22  23
ENDBRANCH  21  22
ENDBRANCH  19  20
ENDBRANCH  18  19
ENDBRANCH  16  18
ENDBRANCH   1  16
TORSDOF 11
ENDMDL
MODEL 4
REMARK VINA RESULT:      -6.1     15.494     18.658
REMARK  11 active torsions:
REMARK  status: ('A' for Active; 'I' for Inactive)
REMARK    1  A    between atoms: O_1  and  C_8 
REMARK    2  A    between atoms: O_2  and  C_13 
REMARK    3  A    between atoms: O_2  and  C_19 
REMARK    4  A    between atoms: N_4  and  C_21 
REMARK    5  A    between atoms: N_4  and  C_22 
REMARK    6  A    between atoms: N_4  and  C_23 
REMARK    7  A    between atoms: C_5  and  C_8 
REMARK    8  A    between atoms: C_8  and  C_12 
REMARK    9  A    between atoms: C_8  and  C_13 
REMARK   10  A    between atoms: C_19  and  C_20 
REMARK   11  A    between atoms: C_21  and  C_24 
ROOT
HETATM    1  C   UNK N   1      27.467  25.178  -4.960  0.00  0.00     0.176 C 
ENDROOT
BRANCH   1   2
HETATM    2  O   UNK N   1      28.290  25.979  -5.756  0.00  0.00    -0.374 OA
HETATM    3  H   UNK N   1      28.358  26.459  -6.597  0.00  0.00     0.211 HD
ENDBRANCH   1   2
BRANCH   1   4
HETATM    4  C   UNK N   1      26.135  25.995  -4.637  0.00  0.00     0.035 C 
HETATM    5  C   UNK N   1      26.244  26.828  -3.343  0.00  0.00     0.008 C 
HETATM    6  C   UNK N   1      27.339  27.908  -3.467  0.00  0.00     0.001 C 
HETATM    7  C   UNK N   1      27.092  28.864  -4.634  0.00  0.00     0.000 C 
HETATM    8  C   UNK N   1      26.725  28.142  -5.929  0.00  0.00     0.001 C 
HETATM    9  C   UNK N   1      25.679  27.027  -5.709  0.00  0.00     0.008 C 
ENDBRANCH   1   4
BRANCH   1  10
HETATM   10  C   UNK N   1      28.422  24.754  -3.815  0.00  0.00    -0.014 A 
HETATM   11  C   UNK N   1      28.036  23.733  -2.929  0.00  0.00     0.011 A 
HETATM   12  C   UNK N   1      28.964  22.959  -2.229  0.00  0.00     0.001 A 
HETATM   13  C   UNK N   1      30.322  23.180  -2.416  0.00  0.00     0.000 A 
HETATM   14  C   UNK N   1      30.742  24.229  -3.238  0.00  0.00     0.001 A 
HETATM   15  C   UNK N   1      29.803  25.005  -3.942  0.00  0.00     0.011 A 
ENDBRANCH   1  10
BRANCH   1  16
HETATM   16  C   UNK N   1      27.134  23.969  -5.806  0.00  0.00     0.299 C 
HETATM   17  O   UNK N   1      26.039  23.436  -5.708  0.00  0.00    -0.261 OA
BRANCH  16  18
HETATM   18  O   UNK N   1      28.039  23.489  -6.682  0.00  0.00    -0.307 OA
BRANCH  18  19
HETATM   19  C   UNK N   1      28.138  22.150  -6.915  0.00  0.00     0.272 C 
BRANCH  19  20
HETATM   20  C   UNK N   1      29.353  21.753  -6.250  0.00  0.00    -0.078 C 
HETATM   21  C   UNK N   1      30.348  21.403  -5.699  0.00  0.00    -0.074 C 
BRANCH  21  22
HETATM   22  C   UNK N   1      31.295  20.635  -4.937  0.00  0.00     0.365 C 
BRANCH  22  23
HETATM   23  N   UNK N   1      32.509  21.451  -4.782  0.00  0.00     0.098 N 
BRANCH  23  24
HETATM   24  C   UNK N   1      33.048  22.189  -5.934  0.00  0.00     0.269 C 
HETATM   25  C   UNK N   1      33.627  23.489  -5.410  0.00  0.00     0.037 C 
ENDBRANCH  23  24
BRANCH  23  26
HETATM   26  C   UNK N   1      33.570  20.742  -4.116  0.00  0.00     0.269 C 
HETATM   27  C   UNK N   1      33.361  20.983  -2.640  0.00  0.00     0.037 C 
ENDBRANCH  23  26
ENDBRANCH  22  23
ENDBRANCH  21  22
ENDBRANCH  19  20
ENDBRANCH  18  19
ENDBRANCH  16  18
ENDBRANCH   1  16
TORSDOF 11
ENDMDL
MODEL 5
REMARK VINA RESULT:      -6.1     16.247     19.090
REMARK  11 active torsions:
REMARK  status: ('A' for Active; 'I' for Inactive)
REMARK    1  A    between atoms: O_1  and  C_8 
REMARK    2  A    between atoms: O_2  and  C_13 
REMARK    3  A    between atoms: O_2  and  C_19 
REMARK    4  A    between atoms: N_4  and  C_21 
REMARK    5  A    between atoms: N_4  and  C_22 
REMARK    6  A    between atoms: N_4  and  C_23 
REMARK    7  A    between atoms: C_5  and  C_8 
REMARK    8  A    between atoms: C_8  and  C_12 
REMARK    9  A    between atoms: C_8  and  C_13 
REMARK   10  A    between atoms: C_19  and  C_20 
REMARK   11  A    between atoms: C_21  and  C_24 
ROOT
HETATM    1  C   UNK N   1      27.054  24.585  -4.530  0.00  0.00     0.176 C 
ENDROOT
BRANCH   1   2
HETATM    2  O   UNK N   1      25.713  24.726  -4.159  0.00  0.00    -0.374 OA
HETATM    3  H   UNK N   1      24.995  24.354  -3.623  0.00  0.00     0.211 HD
ENDBRANCH   1   2
BRANCH   1   4
HETATM    4  C   UNK N   1      27.620  26.026  -4.913  0.00  0.00     0.035 C 
HETATM    5  C   UNK N   1      26.963  26.611  -6.180  0.00  0.00     0.008 C 
HETATM    6  C   UNK N   1      25.451  26.834  -5.969  0.00  0.00     0.001 C 
HETATM    7  C   UNK N   1      25.153  27.771  -4.799  0.00  0.00     0.000 C 
HETATM    8  C   UNK N   1      25.952  27.429  -3.543  0.00  0.00     0.001 C 
HETATM    9  C   UNK N   1      27.440  27.146  -3.848  0.00  0.00     0.008 C 
ENDBRANCH   1   4
BRANCH   1  10
HETATM   10  C   UNK N   1      26.988  23.462  -5.597  0.00  0.00    -0.014 A 
HETATM   11  C   UNK N   1      25.744  23.083  -6.133  0.00  0.00     0.011 A 
HETATM   12  C   UNK N   1      25.621  22.491  -7.391  0.00  0.00     0.001 A 
HETATM   13  C   UNK N   1      26.755  22.277  -8.163  0.00  0.00     0.000 A 
HETATM   14  C   UNK N   1      28.014  22.580  -7.636  0.00  0.00     0.001 A 
HETATM   15  C   UNK N   1      28.132  23.178  -6.368  0.00  0.00     0.011 A 
ENDBRANCH   1  10
BRANCH   1  16
HETATM   16  C   UNK N   1      27.764  24.065  -3.301  0.00  0.00     0.299 C 
HETATM   17  O   UNK N   1      27.122  23.755  -2.308  0.00  0.00    -0.261 OA
BRANCH  16  18
HETATM   18  O   UNK N   1      29.105  23.925  -3.304  0.00  0.00    -0.307 OA
BRANCH  18  19
HETATM   19  C   UNK N   1      29.721  23.111  -2.402  0.00  0.00     0.272 C 
BRANCH  19  20
HETATM   20  C   UNK N   1      30.192  21.994  -3.181  0.00  0.00    -0.078 C 
HETATM   21  C   UNK N   1      30.603  21.085  -3.829  0.00  0.00    -0.074 C 
BRANCH  21  22
HETATM   22  C   UNK N   1      31.367  20.299  -4.760  0.00  0.00     0.365 C 
BRANCH  22  23
HETATM   23  N   UNK N   1      31.253  20.936  -6.081  0.00  0.00     0.098 N 
BRANCH  23  24
HETATM   24  C   UNK N   1      31.180  20.103  -7.291  0.00  0.00     0.269 C 
HETATM   25  C   UNK N   1      29.798  19.481  -7.329  0.00  0.00     0.037 C 
ENDBRANCH  23  24
BRANCH  23  26
HETATM   26  C   UNK N   1      32.215  21.989  -6.270  0.00  0.00     0.269 C 
HETATM   27  C   UNK N   1      31.724  22.786  -7.455  0.00  0.00     0.037 C 
ENDBRANCH  23  26
ENDBRANCH  22  23
ENDBRANCH  21  22
ENDBRANCH  19  20
ENDBRANCH  18  19
ENDBRANCH  16  18
ENDBRANCH   1  16
TORSDOF 11
ENDMDL
MODEL 6
REMARK VINA RESULT:      -6.1      1.004      1.617
REMARK  11 active torsions:
REMARK  status: ('A' for Active; 'I' for Inactive)
REMARK    1  A    between atoms: O_1  and  C_8 
REMARK    2  A    between atoms: O_2  and  C_13 
REMARK    3  A    between atoms: O_2  and  C_19 
REMARK    4  A    between atoms: N_4  and  C_21 
REMARK    5  A    between atoms: N_4  and  C_22 
REMARK    6  A    between atoms: N_4  and  C_23 
REMARK    7  A    between atoms: C_5  and  C_8 
REMARK    8  A    between atoms: C_8  and  C_12 
REMARK    9  A    between atoms: C_8  and  C_13 
REMARK   10  A    between atoms: C_19  and  C_20 
REMARK   11  A    between atoms: C_21  and  C_24 
ROOT
HETATM    1  C   UNK N   1      33.762  16.296   9.213  0.00  0.00     0.176 C 
ENDROOT
BRANCH   1   2
HETATM    2  O   UNK N   1      32.642  15.820   9.901  0.00  0.00    -0.374 OA
HETATM    3  H   UNK N   1      32.185  15.026  10.220  0.00  0.00     0.211 HD
ENDBRANCH   1   2
BRANCH   1   4
HETATM    4  C   UNK N   1      33.383  17.695   8.547  0.00  0.00     0.035 C 
HETATM    5  C   UNK N   1      33.789  17.781   7.062  0.00  0.00     0.008 C 
HETATM    6  C   UNK N   1      33.033  16.735   6.217  0.00  0.00     0.001 C 
HETATM    7  C   UNK N   1      31.516  16.891   6.308  0.00  0.00     0.000 C 
HETATM    8  C   UNK N   1      31.020  17.066   7.743  0.00  0.00     0.001 C 
HETATM    9  C   UNK N   1      31.873  18.073   8.544  0.00  0.00     0.008 C 
ENDBRANCH   1   4
BRANCH   1  10
HETATM   10  C   UNK N   1      34.145  15.085   8.323  0.00  0.00    -0.014 A 
HETATM   11  C   UNK N   1      35.475  14.927   7.897  0.00  0.00     0.011 A 
HETATM   12  C   UNK N   1      36.008  13.683   7.553  0.00  0.00     0.001 A 
HETATM   13  C   UNK N   1      35.215  12.547   7.647  0.00  0.00     0.000 A 
HETATM   14  C   UNK N   1      33.870  12.674   8.003  0.00  0.00     0.001 A 
HETATM   15  C   UNK N   1      33.338  13.930   8.349  0.00  0.00     0.011 A 
ENDBRANCH   1  10
BRANCH   1  16
HETATM   16  C   UNK N   1      34.830  16.500  10.264  0.00  0.00     0.299 C 
HETATM   17  O   UNK N   1      35.563  17.477  10.211  0.00  0.00    -0.261 OA
BRANCH  16  18
HETATM   18  O   UNK N   1      34.963  15.614  11.271  0.00  0.00    -0.307 OA
BRANCH  18  19
HETATM   19  C   UNK N   1      36.058  14.806  11.345  0.00  0.00     0.272 C 
BRANCH  19  20
HETATM   20  C   UNK N   1      36.147  14.440  12.736  0.00  0.00    -0.078 C 
HETATM   21  C   UNK N   1      36.245  14.135  13.882  0.00  0.00    -0.074 C 
BRANCH  21  22
HETATM   22  C   UNK N   1      36.753  13.623  15.126  0.00  0.00     0.365 C 
BRANCH  22  23
HETATM   23  N   UNK N   1      35.833  12.570  15.584  0.00  0.00     0.098 N 
BRANCH  23  24
HETATM   24  C   UNK N   1      35.437  11.492  14.665  0.00  0.00     0.269 C 
HETATM   25  C   UNK N   1      34.013  11.103  15.009  0.00  0.00     0.037 C 
ENDBRANCH  23  24
BRANCH  23  26
HETATM   26  C   UNK N   1      34.670  13.102  16.244  0.00  0.00     0.269 C 
HETATM   27  C   UNK N   1      35.131  13.510  17.623  0.00  0.00     0.037 C 
ENDBRANCH  23  26
ENDBRANCH  22  23
ENDBRANCH  21  22
ENDBRANCH  19  20
ENDBRANCH  18  19
ENDBRANCH  16  18
ENDBRANCH   1  16
TORSDOF 11
ENDMDL
MODEL 7
REMARK VINA RESULT:      -5.8      4.301      7.414
REMARK  11 active torsions:
REMARK  status: ('A' for Active; 'I' for Inactive)
REMARK    1  A    between atoms: O_1  and  C_8 
REMARK    2  A    between atoms: O_2  and  C_13 
REMARK    3  A    between atoms: O_2  and  C_19 
REMARK    4  A    between atoms: N_4  and  C_21 
REMARK    5  A    between atoms: N_4  and  C_22 
REMARK    6  A    between atoms: N_4  and  C_23 
REMARK    7  A    between atoms: C_5  and  C_8 
REMARK    8  A    between atoms: C_8  and  C_12 
REMARK    9  A    between atoms: C_8  and  C_13 
REMARK   10  A    between atoms: C_19  and  C_20 
REMARK   11  A    between atoms: C_21  and  C_24 
ROOT
HETATM    1  C   UNK N   1      35.823  12.897  14.439  0.00  0.00     0.176 C 
ENDROOT
BRANCH   1   2
HETATM    2  O   UNK N   1      34.471  13.003  14.101  0.00  0.00    -0.374 OA
HETATM    3  H   UNK N   1      33.826  12.940  13.379  0.00  0.00     0.211 HD
ENDBRANCH   1   2
BRANCH   1   4
HETATM    4  C   UNK N   1      36.684  13.556  13.269  0.00  0.00     0.035 C 
HETATM    5  C   UNK N   1      37.155  12.528  12.220  0.00  0.00     0.008 C 
HETATM    6  C   UNK N   1      35.954  11.881  11.498  0.00  0.00     0.001 C 
HETATM    7  C   UNK N   1      35.067  12.909  10.797  0.00  0.00     0.000 C 
HETATM    8  C   UNK N   1      34.738  14.113  11.679  0.00  0.00     0.001 C 
HETATM    9  C   UNK N   1      35.977  14.655  12.425  0.00  0.00     0.008 C 
ENDBRANCH   1   4
BRANCH   1  10
HETATM   10  C   UNK N   1      35.968  11.387  14.761  0.00  0.00    -0.014 A 
HETATM   11  C   UNK N   1      37.147  10.914  15.362  0.00  0.00     0.011 A 
HETATM   12  C   UNK N   1      37.181   9.744  16.124  0.00  0.00     0.001 A 
HETATM   13  C   UNK N   1      36.013   9.019  16.322  0.00  0.00     0.000 A 
HETATM   14  C   UNK N   1      34.837   9.423  15.685  0.00  0.00     0.001 A 
HETATM   15  C   UNK N   1      34.807  10.603  14.919  0.00  0.00     0.011 A 
ENDBRANCH   1  10
BRANCH   1  16
HETATM   16  C   UNK N   1      35.988  13.697  15.712  0.00  0.00     0.299 C 
HETATM   17  O   UNK N   1      36.949  14.440  15.847  0.00  0.00    -0.261 OA
BRANCH  16  18
HETATM   18  O   UNK N   1      35.067  13.604  16.691  0.00  0.00    -0.307 OA
BRANCH  18  19
HETATM   19  C   UNK N   1      35.377  13.952  17.972  0.00  0.00     0.272 C 
BRANCH  19  20
HETATM   20  C   UNK N   1      35.313  12.716  18.710  0.00  0.00    -0.078 C 
HETATM   21  C   UNK N   1      35.275  11.685  19.302  0.00  0.00    -0.074 C 
BRANCH  21  22
HETATM   22  C   UNK N   1      35.366  10.288  19.630  0.00  0.00     0.365 C 
BRANCH  22  23
HETATM   23  N   UNK N   1      34.035   9.846  20.077  0.00  0.00     0.098 N 
BRANCH  23  24
HETATM   24  C   UNK N   1      33.812   9.514  21.492  0.00  0.00     0.269 C 
HETATM   25  C   UNK N   1      32.978  10.629  22.093  0.00  0.00     0.037 C 
ENDBRANCH  23  24
BRANCH  23  26
HETATM   26  C   UNK N   1      33.487   8.813  19.240  0.00  0.00     0.269 C 
HETATM   27  C   UNK N   1      34.411   7.628  19.392  0.00  0.00     0.037 C 
ENDBRANCH  23  26
ENDBRANCH  22  23
ENDBRANCH  21  22
ENDBRANCH  19  20
ENDBRANCH  18  19
ENDBRANCH  16  18
ENDBRANCH   1  16
TORSDOF 11
ENDMDL
MODEL 8
REMARK VINA RESULT:      -5.8     16.193     19.350
REMARK  11 active torsions:
REMARK  status: ('A' for Active; 'I' for Inactive)
REMARK    1  A    between atoms: O_1  and  C_8 
REMARK    2  A    between atoms: O_2  and  C_13 
REMARK    3  A    between atoms: O_2  and  C_19 
REMARK    4  A    between atoms: N_4  and  C_21 
REMARK    5  A    between atoms: N_4  and  C_22 
REMARK    6  A    between atoms: N_4  and  C_23 
REMARK    7  A    between atoms: C_5  and  C_8 
REMARK    8  A    between atoms: C_8  and  C_12 
REMARK    9  A    between atoms: C_8  and  C_13 
REMARK   10  A    between atoms: C_19  and  C_20 
REMARK   11  A    between atoms: C_21  and  C_24 
ROOT
HETATM    1  C   UNK N   1      27.331  25.093  -4.498  0.00  0.00     0.176 C 
ENDROOT
BRANCH   1   2
HETATM    2  O   UNK N   1      28.331  24.937  -5.462  0.00  0.00    -0.374 OA
HETATM    3  H   UNK N   1      28.802  25.365  -6.193  0.00  0.00     0.211 HD
ENDBRANCH   1   2
BRANCH   1   4
HETATM    4  C   UNK N   1      25.980  24.468  -5.073  0.00  0.00     0.035 C 
HETATM    5  C   UNK N   1      25.065  25.521  -5.730  0.00  0.00     0.008 C 
HETATM    6  C   UNK N   1      25.746  26.162  -6.957  0.00  0.00     0.001 C 
HETATM    7  C   UNK N   1      26.132  25.134  -8.019  0.00  0.00     0.000 C 
HETATM    8  C   UNK N   1      26.836  23.910  -7.436  0.00  0.00     0.001 C 
HETATM    9  C   UNK N   1      26.137  23.373  -6.168  0.00  0.00     0.008 C 
ENDBRANCH   1   4
BRANCH   1  10
HETATM   10  C   UNK N   1      27.415  26.607  -4.174  0.00  0.00    -0.014 A 
HETATM   11  C   UNK N   1      28.166  27.456  -5.005  0.00  0.00     0.011 A 
HETATM   12  C   UNK N   1      27.906  28.824  -5.107  0.00  0.00     0.001 A 
HETATM   13  C   UNK N   1      26.861  29.381  -4.382  0.00  0.00     0.000 A 
HETATM   14  C   UNK N   1      26.136  28.580  -3.495  0.00  0.00     0.001 A 
HETATM   15  C   UNK N   1      26.401  27.202  -3.397  0.00  0.00     0.011 A 
ENDBRANCH   1  10
BRANCH   1  16
HETATM   16  C   UNK N   1      27.794  24.299  -3.298  0.00  0.00     0.299 C 
HETATM   17  O   UNK N   1      26.978  23.867  -2.496  0.00  0.00    -0.261 OA
BRANCH  16  18
HETATM   18  O   UNK N   1      29.107  24.049  -3.119  0.00  0.00    -0.307 OA
BRANCH  18  19
HETATM   19  C   UNK N   1      29.518  23.077  -2.258  0.00  0.00     0.272 C 
BRANCH  19  20
HETATM   20  C   UNK N   1      30.042  22.037  -3.107  0.00  0.00    -0.078 C 
HETATM   21  C   UNK N   1      30.497  21.180  -3.796  0.00  0.00    -0.074 C 
BRANCH  21  22
HETATM   22  C   UNK N   1      31.422  20.325  -4.490  0.00  0.00     0.365 C 
BRANCH  22  23
HETATM   23  N   UNK N   1      31.359  20.666  -5.920  0.00  0.00     0.098 N 
BRANCH  23  24
HETATM   24  C   UNK N   1      30.487  19.893  -6.818  0.00  0.00     0.269 C 
HETATM   25  C   UNK N   1      29.336  20.795  -7.218  0.00  0.00     0.037 C 
ENDBRANCH  23  24
BRANCH  23  26
HETATM   26  C   UNK N   1      32.663  20.812  -6.510  0.00  0.00     0.269 C 
HETATM   27  C   UNK N   1      32.844  19.612  -7.408  0.00  0.00     0.037 C 
ENDBRANCH  23  26
ENDBRANCH  22  23
ENDBRANCH  21  22
ENDBRANCH  19  20
ENDBRANCH  18  19
ENDBRANCH  16  18
ENDBRANCH   1  16
TORSDOF 11
ENDMDL
MODEL 9
REMARK VINA RESULT:      -5.7     17.689     20.063
REMARK  11 active torsions:
REMARK  status: ('A' for Active; 'I' for Inactive)
REMARK    1  A    between atoms: O_1  and  C_8 
REMARK    2  A    between atoms: O_2  and  C_13 
REMARK    3  A    between atoms: O_2  and  C_19 
REMARK    4  A    between atoms: N_4  and  C_21 
REMARK    5  A    between atoms: N_4  and  C_22 
REMARK    6  A    between atoms: N_4  and  C_23 
REMARK    7  A    between atoms: C_5  and  C_8 
REMARK    8  A    between atoms: C_8  and  C_12 
REMARK    9  A    between atoms: C_8  and  C_13 
REMARK   10  A    between atoms: C_19  and  C_20 
REMARK   11  A    between atoms: C_21  and  C_24 
ROOT
HETATM    1  C   UNK N   1      26.998  26.579  -5.593  0.00  0.00     0.176 C 
ENDROOT
BRANCH   1   2
HETATM    2  O   UNK N   1      28.026  26.611  -6.539  0.00  0.00    -0.374 OA
HETATM    3  H   UNK N   1      28.796  26.137  -6.891  0.00  0.00     0.211 HD
ENDBRANCH   1   2
BRANCH   1   4
HETATM    4  C   UNK N   1      26.448  28.064  -5.400  0.00  0.00     0.035 C 
HETATM    5  C   UNK N   1      25.981  28.347  -3.958  0.00  0.00     0.008 C 
HETATM    6  C   UNK N   1      27.155  28.237  -2.962  0.00  0.00     0.001 C 
HETATM    7  C   UNK N   1      28.297  29.197  -3.292  0.00  0.00     0.000 C 
HETATM    8  C   UNK N   1      28.681  29.180  -4.771  0.00  0.00     0.001 C 
HETATM    9  C   UNK N   1      27.449  29.217  -5.702  0.00  0.00     0.008 C 
ENDBRANCH   1   4
BRANCH   1  10
HETATM   10  C   UNK N   1      27.661  25.830  -4.407  0.00  0.00    -0.014 A 
HETATM   11  C   UNK N   1      26.893  24.953  -3.622  0.00  0.00     0.011 A 
HETATM   12  C   UNK N   1      27.462  23.899  -2.905  0.00  0.00     0.001 A 
HETATM   13  C   UNK N   1      28.832  23.682  -2.972  0.00  0.00     0.000 A 
HETATM   14  C   UNK N   1      29.635  24.574  -3.690  0.00  0.00     0.001 A 
HETATM   15  C   UNK N   1      29.056  25.634  -4.412  0.00  0.00     0.011 A 
ENDBRANCH   1  10
BRANCH   1  16
HETATM   16  C   UNK N   1      25.919  25.706  -6.193  0.00  0.00     0.299 C 
HETATM   17  O   UNK N   1      24.751  25.869  -5.874  0.00  0.00    -0.261 OA
BRANCH  16  18
HETATM   18  O   UNK N   1      26.242  24.759  -7.096  0.00  0.00    -0.307 OA
BRANCH  18  19
HETATM   19  C   UNK N   1      26.027  23.440  -6.827  0.00  0.00     0.272 C 
BRANCH  19  20
HETATM   20  C   UNK N   1      27.346  22.869  -6.727  0.00  0.00    -0.078 C 
HETATM   21  C   UNK N   1      28.444  22.420  -6.639  0.00  0.00    -0.074 C 
BRANCH  21  22
HETATM   22  C   UNK N   1      29.876  22.300  -6.577  0.00  0.00     0.365 C 
BRANCH  22  23
HETATM   23  N   UNK N   1      30.246  21.026  -7.213  0.00  0.00     0.098 N 
BRANCH  23  24
HETATM   24  C   UNK N   1      29.308  20.369  -8.135  0.00  0.00     0.269 C 
HETATM   25  C   UNK N   1      29.259  18.900  -7.761  0.00  0.00     0.037 C 
ENDBRANCH  23  24
BRANCH  23  26
HETATM   26  C   UNK N   1      30.758  20.067  -6.270  0.00  0.00     0.269 C 
HETATM   27  C   UNK N   1      32.124  20.575  -5.870  0.00  0.00     0.037 C 
ENDBRANCH  23  26
ENDBRANCH  22  23
ENDBRANCH  21  22
ENDBRANCH  19  20
ENDBRANCH  18  19
ENDBRANCH  16  18
ENDBRANCH   1  16
TORSDOF 11
ENDMDL
