MODEL 1
REMARK VINA RESULT:      -7.1      0.000      0.000
REMARK  19 active torsions:
REMARK  status: ('A' for Active; 'I' for Inactive)
REMARK    1  A    between atoms: C_18  and  O_1 
REMARK    2  A    between atoms: O_4  and  C_34 
REMARK    3  A    between atoms: O_5  and  C_37 
REMARK    4  A    between atoms: C_16  and  N_8 
REMARK       I    between atoms: N_8  and  C_23 
REMARK    5  A    between atoms: N_9  and  N_11 
REMARK    6  A    between atoms: N_9  and  C_20 
REMARK    7  A    between atoms: N_9  and  C_31 
REMARK    8  A    between atoms: C_17  and  N_10 
REMARK       I    between atoms: N_10  and  C_34 
REMARK       I    between atoms: N_11  and  C_27 
REMARK    9  A    between atoms: C_21  and  N_12 
REMARK       I    between atoms: N_12  and  C_37 
REMARK   10  A    between atoms: C_15  and  C_17 
REMARK   11  A    between atoms: C_16  and  C_18 
REMARK   12  A    between atoms: C_16  and  C_22 
REMARK   13  A    between atoms: C_17  and  C_23 
REMARK   14  A    between atoms: C_18  and  C_20 
REMARK   15  A    between atoms: C_19  and  C_21 
REMARK   16  A    between atoms: C_21  and  C_27 
REMARK   17  A    between atoms: C_22  and  C_32 
REMARK   18  A    between atoms: C_31  and  C_33 
REMARK   19  A    between atoms: C_45  and  C_47 
ROOT
HETATM    1  N   UNK N   1      27.938  14.451   4.543  0.00  0.00    -0.222 NA
ENDROOT
BRANCH   1   2
HETATM    2  N   UNK N   1      29.280  14.220   4.750  0.00  0.00    -0.287 N 
HETATM    3  C   UNK N   1      30.066  15.014   5.510  0.00  0.00     0.255 C 
HETATM    4  O   UNK N   1      29.615  16.005   6.065  0.00  0.00    -0.270 OA
HETATM    5  H   UNK N   1      29.688  13.433   4.321  0.00  0.00     0.184 HD
BRANCH   3   6
HETATM    6  C   UNK N   1      31.491  14.593   5.710  0.00  0.00     0.187 C 
BRANCH   6   7
HETATM    7  N   UNK N   1      31.985  15.261   6.898  0.00  0.00    -0.323 N 
HETATM    8  C   UNK N   1      32.392  14.606   8.001  0.00  0.00     0.360 C 
HETATM    9  O   UNK N   1      32.410  13.373   8.019  0.00  0.00    -0.239 OA
HETATM   10  H   UNK N   1      32.026  16.244   6.896  0.00  0.00     0.165 HD
BRANCH   8  11
HETATM   11  O   UNK N   1      32.735  15.310   9.101  0.00  0.00    -0.309 OA
HETATM   12  C   UNK N   1      33.566  14.816  10.076  0.00  0.00     0.215 C 
ENDBRANCH   8  11
ENDBRANCH   6   7
BRANCH   6  13
HETATM   13  C   UNK N   1      32.355  14.984   4.491  0.00  0.00    -0.022 C 
HETATM   14  C   UNK N   1      31.778  14.426   3.201  0.00  0.00     0.017 C 
HETATM   15  C   UNK N   1      32.460  16.501   4.355  0.00  0.00     0.017 C 
HETATM   16  C   UNK N   1      33.753  14.424   4.656  0.00  0.00     0.017 C 
ENDBRANCH   6  13
ENDBRANCH   3   6
ENDBRANCH   1   2
BRANCH   1  17
HETATM   17  C   UNK N   1      27.855  14.820   3.134  0.00  0.00     0.147 C 
BRANCH  17  18
HETATM   18  C   UNK N   1      27.834  16.326   2.949  0.00  0.00     0.156 C 
BRANCH  18  19
HETATM   19  O   UNK N   1      29.132  16.836   3.020  0.00  0.00    -0.392 OA
HETATM   20  H   UNK N   1      29.542  17.711   2.938  0.00  0.00     0.210 HD
ENDBRANCH  18  19
BRANCH  18  21
HETATM   21  C   UNK N   1      26.889  17.032   3.931  0.00  0.00     0.118 C 
BRANCH  21  22
HETATM   22  N   UNK N   1      27.272  17.485   5.244  0.00  0.00    -0.352 N 
HETATM   23  C   UNK N   1      27.808  18.680   5.553  0.00  0.00     0.241 C 
HETATM   24  O   UNK N   1      28.412  19.340   4.721  0.00  0.00    -0.271 OA
HETATM   25  H   UNK N   1      27.128  16.857   5.989  0.00  0.00     0.163 HD
BRANCH  23  26
HETATM   26  C   UNK N   1      27.261  19.333   6.785  0.00  0.00     0.186 C 
BRANCH  26  27
HETATM   27  N   UNK N   1      28.089  19.200   7.971  0.00  0.00    -0.323 N 
HETATM   28  C   UNK N   1      28.192  18.095   8.750  0.00  0.00     0.360 C 
HETATM   29  O   UNK N   1      27.567  17.080   8.479  0.00  0.00    -0.239 OA
HETATM   30  H   UNK N   1      28.624  19.983   8.233  0.00  0.00     0.165 HD
BRANCH  28  31
HETATM   31  O   UNK N   1      29.012  18.131   9.826  0.00  0.00    -0.309 OA
HETATM   32  C   UNK N   1      29.383  16.996  10.507  0.00  0.00     0.215 C 
ENDBRANCH  28  31
ENDBRANCH  26  27
BRANCH  26  33
HETATM   33  C   UNK N   1      26.695  20.747   6.455  0.00  0.00    -0.022 C 
HETATM   34  C   UNK N   1      25.901  21.349   7.611  0.00  0.00     0.017 C 
HETATM   35  C   UNK N   1      27.851  21.691   6.168  0.00  0.00     0.017 C 
HETATM   36  C   UNK N   1      25.818  20.726   5.222  0.00  0.00     0.017 C 
ENDBRANCH  26  33
ENDBRANCH  23  26
ENDBRANCH  21  22
BRANCH  21  37
HETATM   37  C   UNK N   1      25.468  17.448   3.579  0.00  0.00     0.066 C 
BRANCH  37  38
HETATM   38  C   UNK N   1      24.375  16.596   4.113  0.00  0.00    -0.056 A 
HETATM   39  C   UNK N   1      23.693  16.947   5.283  0.00  0.00     0.007 A 
HETATM   40  C   UNK N   1      22.728  16.086   5.811  0.00  0.00     0.001 A 
HETATM   41  C   UNK N   1      22.457  14.867   5.182  0.00  0.00     0.000 A 
HETATM   42  C   UNK N   1      23.146  14.511   4.019  0.00  0.00     0.001 A 
HETATM   43  C   UNK N   1      24.104  15.375   3.487  0.00  0.00     0.007 A 
ENDBRANCH  37  38
ENDBRANCH  21  37
ENDBRANCH  18  21
ENDBRANCH  17  18
ENDBRANCH   1  17
BRANCH   1  44
HETATM   44  C   UNK N   1      27.231  13.192   4.731  0.00  0.00     0.152 C 
BRANCH  44  45
HETATM   45  C   UNK N   1      26.195  13.357   5.778  0.00  0.00    -0.043 A 
HETATM   46  C   UNK N   1      25.306  12.318   6.002  0.00  0.00     0.009 A 
HETATM   47  C   UNK N   1      24.442  12.339   7.070  0.00  0.00     0.014 A 
HETATM   48  C   UNK N   1      24.484  13.396   7.971  0.00  0.00    -0.009 A 
HETATM   49  C   UNK N   1      25.339  14.486   7.731  0.00  0.00     0.014 A 
HETATM   50  C   UNK N   1      26.182  14.478   6.613  0.00  0.00     0.009 A 
BRANCH  48  51
HETATM   51  C   UNK N   1      23.943  13.145   9.305  0.00  0.00     0.042 A 
HETATM   52  N   UNK N   1      24.779  12.676  10.269  0.00  0.00    -0.365 N 
HETATM   53  C   UNK N   1      24.302  12.125  11.415  0.00  0.00     0.088 A 
ATOM     54  HN  UNK N   1      25.788  12.740  10.129  1.00  0.00     0.165 HD
HETATM   55  C   UNK N   1      22.925  12.028  11.627  0.00  0.00     0.017 A 
HETATM   56  C   UNK N   1      22.047  12.528  10.668  0.00  0.00     0.004 A 
HETATM   57  C   UNK N   1      22.552  13.070   9.492  0.00  0.00     0.030 A 
ENDBRANCH  48  51
ENDBRANCH  44  45
ENDBRANCH   1  44
TORSDOF 19
ENDMDL
MODEL 2
REMARK VINA RESULT:      -6.5      3.473      5.741
REMARK  19 active torsions:
REMARK  status: ('A' for Active; 'I' for Inactive)
REMARK    1  A    between atoms: C_18  and  O_1 
REMARK    2  A    between atoms: O_4  and  C_34 
REMARK    3  A    between atoms: O_5  and  C_37 
REMARK    4  A    between atoms: C_16  and  N_8 
REMARK       I    between atoms: N_8  and  C_23 
REMARK    5  A    between atoms: N_9  and  N_11 
REMARK    6  A    between atoms: N_9  and  C_20 
REMARK    7  A    between atoms: N_9  and  C_31 
REMARK    8  A    between atoms: C_17  and  N_10 
REMARK       I    between atoms: N_10  and  C_34 
REMARK       I    between atoms: N_11  and  C_27 
REMARK    9  A    between atoms: C_21  and  N_12 
REMARK       I    between atoms: N_12  and  C_37 
REMARK   10  A    between atoms: C_15  and  C_17 
REMARK   11  A    between atoms: C_16  and  C_18 
REMARK   12  A    between atoms: C_16  and  C_22 
REMARK   13  A    between atoms: C_17  and  C_23 
REMARK   14  A    between atoms: C_18  and  C_20 
REMARK   15  A    between atoms: C_19  and  C_21 
REMARK   16  A    between atoms: C_21  and  C_27 
REMARK   17  A    between atoms: C_22  and  C_32 
REMARK   18  A    between atoms: C_31  and  C_33 
REMARK   19  A    between atoms: C_45  and  C_47 
ROOT
HETATM    1  N   UNK N   1      25.144  14.865   3.839  0.00  0.00    -0.222 NA
ENDROOT
BRANCH   1   2
HETATM    2  N   UNK N   1      26.086  15.816   4.161  0.00  0.00    -0.287 N 
HETATM    3  C   UNK N   1      25.806  16.936   4.864  0.00  0.00     0.255 C 
HETATM    4  O   UNK N   1      24.672  17.170   5.257  0.00  0.00    -0.270 OA
HETATM    5  H   UNK N   1      27.013  15.672   3.863  0.00  0.00     0.184 HD
BRANCH   3   6
HETATM    6  C   UNK N   1      26.949  17.843   5.210  0.00  0.00     0.187 C 
BRANCH   6   7
HETATM    7  N   UNK N   1      27.007  17.947   6.654  0.00  0.00    -0.323 N 
HETATM    8  C   UNK N   1      28.119  17.697   7.371  0.00  0.00     0.360 C 
HETATM    9  O   UNK N   1      29.174  17.414   6.799  0.00  0.00    -0.239 OA
HETATM   10  H   UNK N   1      26.192  18.217   7.135  0.00  0.00     0.165 HD
BRANCH   8  11
HETATM   11  O   UNK N   1      28.055  17.714   8.720  0.00  0.00    -0.309 OA
HETATM   12  C   UNK N   1      29.060  18.215   9.509  0.00  0.00     0.215 C 
ENDBRANCH   8  11
ENDBRANCH   6   7
BRANCH   6  13
HETATM   13  C   UNK N   1      26.745  19.243   4.590  0.00  0.00    -0.022 C 
HETATM   14  C   UNK N   1      28.074  19.899   4.252  0.00  0.00     0.017 C 
HETATM   15  C   UNK N   1      25.909  19.164   3.315  0.00  0.00     0.017 C 
HETATM   16  C   UNK N   1      26.023  20.137   5.577  0.00  0.00     0.017 C 
ENDBRANCH   6  13
ENDBRANCH   3   6
ENDBRANCH   1   2
BRANCH   1  17
HETATM   17  C   UNK N   1      25.246  14.742   2.389  0.00  0.00     0.147 C 
BRANCH  17  18
HETATM   18  C   UNK N   1      24.103  13.927   1.814  0.00  0.00     0.156 C 
BRANCH  18  19
HETATM   19  O   UNK N   1      24.067  14.065   0.424  0.00  0.00    -0.392 OA
HETATM   20  H   UNK N   1      24.676  13.889  -0.310  0.00  0.00     0.210 HD
ENDBRANCH  18  19
BRANCH  18  21
HETATM   21  C   UNK N   1      22.750  14.265   2.455  0.00  0.00     0.118 C 
BRANCH  21  22
HETATM   22  N   UNK N   1      22.404  15.559   2.988  0.00  0.00    -0.352 N 
HETATM   23  C   UNK N   1      21.344  16.311   2.636  0.00  0.00     0.241 C 
HETATM   24  O   UNK N   1      20.805  16.180   1.548  0.00  0.00    -0.271 OA
HETATM   25  H   UNK N   1      23.002  15.929   3.677  0.00  0.00     0.163 HD
BRANCH  23  26
HETATM   26  C   UNK N   1      20.615  16.966   3.768  0.00  0.00     0.186 C 
BRANCH  26  27
HETATM   27  N   UNK N   1      20.593  16.208   5.007  0.00  0.00    -0.323 N 
HETATM   28  C   UNK N   1      19.484  15.842   5.695  0.00  0.00     0.360 C 
HETATM   29  O   UNK N   1      18.370  16.133   5.285  0.00  0.00    -0.239 OA
HETATM   30  H   UNK N   1      21.462  15.936   5.380  0.00  0.00     0.165 HD
BRANCH  28  31
HETATM   31  O   UNK N   1      19.632  15.133   6.839  0.00  0.00    -0.309 OA
HETATM   32  C   UNK N   1      19.866  15.734   8.053  0.00  0.00     0.215 C 
ENDBRANCH  28  31
ENDBRANCH  26  27
BRANCH  26  33
HETATM   33  C   UNK N   1      20.978  18.479   3.855  0.00  0.00    -0.022 C 
HETATM   34  C   UNK N   1      22.283  18.815   3.139  0.00  0.00     0.017 C 
HETATM   35  C   UNK N   1      19.881  19.293   3.189  0.00  0.00     0.017 C 
HETATM   36  C   UNK N   1      21.076  18.950   5.289  0.00  0.00     0.017 C 
ENDBRANCH  26  33
ENDBRANCH  23  26
ENDBRANCH  21  22
BRANCH  21  37
HETATM   37  C   UNK N   1      21.571  13.304   2.488  0.00  0.00     0.066 C 
BRANCH  37  38
HETATM   38  C   UNK N   1      21.522  12.351   3.626  0.00  0.00    -0.056 A 
HETATM   39  C   UNK N   1      22.326  11.206   3.642  0.00  0.00     0.007 A 
HETATM   40  C   UNK N   1      22.200  10.281   4.682  0.00  0.00     0.001 A 
HETATM   41  C   UNK N   1      21.258  10.489   5.694  0.00  0.00     0.000 A 
HETATM   42  C   UNK N   1      20.447  11.628   5.672  0.00  0.00     0.001 A 
HETATM   43  C   UNK N   1      20.579  12.556   4.638  0.00  0.00     0.007 A 
ENDBRANCH  37  38
ENDBRANCH  21  37
ENDBRANCH  18  21
ENDBRANCH  17  18
ENDBRANCH   1  17
BRANCH   1  44
HETATM   44  C   UNK N   1      25.556  13.604   4.437  0.00  0.00     0.152 C 
BRANCH  44  45
HETATM   45  C   UNK N   1      24.653  13.271   5.565  0.00  0.00    -0.043 A 
HETATM   46  C   UNK N   1      24.906  12.126   6.303  0.00  0.00     0.009 A 
HETATM   47  C   UNK N   1      24.215  11.859   7.460  0.00  0.00     0.014 A 
HETATM   48  C   UNK N   1      23.276  12.770   7.930  0.00  0.00    -0.009 A 
HETATM   49  C   UNK N   1      22.965  13.909   7.167  0.00  0.00     0.014 A 
HETATM   50  C   UNK N   1      23.640  14.148   5.964  0.00  0.00     0.009 A 
BRANCH  48  51
HETATM   51  C   UNK N   1      22.955  12.708   9.353  0.00  0.00     0.042 A 
HETATM   52  N   UNK N   1      23.931  12.341  10.227  0.00  0.00    -0.365 N 
HETATM   53  C   UNK N   1      23.640  11.955  11.495  0.00  0.00     0.088 A 
ATOM     54  HN  UNK N   1      24.905  12.355   9.921  1.00  0.00     0.165 HD
HETATM   55  C   UNK N   1      22.314  11.928  11.933  0.00  0.00     0.017 A 
HETATM   56  C   UNK N   1      21.298  12.328  11.068  0.00  0.00     0.004 A 
HETATM   57  C   UNK N   1      21.612  12.699   9.767  0.00  0.00     0.030 A 
ENDBRANCH  48  51
ENDBRANCH  44  45
ENDBRANCH   1  44
TORSDOF 19
ENDMDL
MODEL 3
REMARK VINA RESULT:      -6.5      1.779      2.283
REMARK  19 active torsions:
REMARK  status: ('A' for Active; 'I' for Inactive)
REMARK    1  A    between atoms: C_18  and  O_1 
REMARK    2  A    between atoms: O_4  and  C_34 
REMARK    3  A    between atoms: O_5  and  C_37 
REMARK    4  A    between atoms: C_16  and  N_8 
REMARK       I    between atoms: N_8  and  C_23 
REMARK    5  A    between atoms: N_9  and  N_11 
REMARK    6  A    between atoms: N_9  and  C_20 
REMARK    7  A    between atoms: N_9  and  C_31 
REMARK    8  A    between atoms: C_17  and  N_10 
REMARK       I    between atoms: N_10  and  C_34 
REMARK       I    between atoms: N_11  and  C_27 
REMARK    9  A    between atoms: C_21  and  N_12 
REMARK       I    between atoms: N_12  and  C_37 
REMARK   10  A    between atoms: C_15  and  C_17 
REMARK   11  A    between atoms: C_16  and  C_18 
REMARK   12  A    between atoms: C_16  and  C_22 
REMARK   13  A    between atoms: C_17  and  C_23 
REMARK   14  A    between atoms: C_18  and  C_20 
REMARK   15  A    between atoms: C_19  and  C_21 
REMARK   16  A    between atoms: C_21  and  C_27 
REMARK   17  A    between atoms: C_22  and  C_32 
REMARK   18  A    between atoms: C_31  and  C_33 
REMARK   19  A    between atoms: C_45  and  C_47 
ROOT
HETATM    1  N   UNK N   1      26.739  13.348   4.150  0.00  0.00    -0.222 NA
ENDROOT
BRANCH   1   2
HETATM    2  N   UNK N   1      28.051  13.134   3.790  0.00  0.00    -0.287 N 
HETATM    3  C   UNK N   1      29.102  13.680   4.441  0.00  0.00     0.255 C 
HETATM    4  O   UNK N   1      28.938  14.413   5.406  0.00  0.00    -0.270 OA
HETATM    5  H   UNK N   1      28.232  12.553   3.017  0.00  0.00     0.184 HD
BRANCH   3   6
HETATM    6  C   UNK N   1      30.477  13.295   3.985  0.00  0.00     0.187 C 
BRANCH   6   7
HETATM    7  N   UNK N   1      31.060  12.449   5.008  0.00  0.00    -0.323 N 
HETATM    8  C   UNK N   1      31.229  11.121   4.864  0.00  0.00     0.360 C 
HETATM    9  O   UNK N   1      30.935  10.571   3.801  0.00  0.00    -0.239 OA
HETATM   10  H   UNK N   1      31.348  12.869   5.850  0.00  0.00     0.165 HD
BRANCH   8  11
HETATM   11  O   UNK N   1      31.680  10.395   5.909  0.00  0.00    -0.309 OA
HETATM   12  C   UNK N   1      32.941  10.539   6.431  0.00  0.00     0.215 C 
ENDBRANCH   8  11
ENDBRANCH   6   7
BRANCH   6  13
HETATM   13  C   UNK N   1      31.357  14.547   3.776  0.00  0.00    -0.022 C 
HETATM   14  C   UNK N   1      30.569  15.678   3.136  0.00  0.00     0.017 C 
HETATM   15  C   UNK N   1      31.925  15.047   5.102  0.00  0.00     0.017 C 
HETATM   16  C   UNK N   1      32.515  14.209   2.860  0.00  0.00     0.017 C 
ENDBRANCH   6  13
ENDBRANCH   3   6
ENDBRANCH   1   2
BRANCH   1  17
HETATM   17  C   UNK N   1      26.047  13.526   2.879  0.00  0.00     0.147 C 
BRANCH  17  18
HETATM   18  C   UNK N   1      25.995  14.986   2.469  0.00  0.00     0.156 C 
BRANCH  18  19
HETATM   19  O   UNK N   1      27.212  15.369   1.902  0.00  0.00    -0.392 OA
HETATM   20  H   UNK N   1      28.065  15.691   2.233  0.00  0.00     0.210 HD
ENDBRANCH  18  19
BRANCH  18  21
HETATM   21  C   UNK N   1      25.587  15.913   3.622  0.00  0.00     0.118 C 
BRANCH  21  22
HETATM   22  N   UNK N   1      26.475  16.341   4.674  0.00  0.00    -0.352 N 
HETATM   23  C   UNK N   1      27.340  17.371   4.620  0.00  0.00     0.241 C 
HETATM   24  O   UNK N   1      27.770  17.785   3.554  0.00  0.00    -0.271 OA
HETATM   25  H   UNK N   1      26.445  15.829   5.515  0.00  0.00     0.163 HD
BRANCH  23  26
HETATM   26  C   UNK N   1      27.394  18.232   5.844  0.00  0.00     0.186 C 
BRANCH  26  27
HETATM   27  N   UNK N   1      28.588  18.071   6.657  0.00  0.00    -0.323 N 
HETATM   28  C   UNK N   1      28.653  17.449   7.859  0.00  0.00     0.360 C 
HETATM   29  O   UNK N   1      27.657  16.944   8.356  0.00  0.00    -0.239 OA
HETATM   30  H   UNK N   1      29.424  18.448   6.302  0.00  0.00     0.165 HD
BRANCH  28  31
HETATM   31  O   UNK N   1      29.846  17.382   8.494  0.00  0.00    -0.309 OA
HETATM   32  C   UNK N   1      30.437  18.481   9.071  0.00  0.00     0.215 C 
ENDBRANCH  28  31
ENDBRANCH  26  27
BRANCH  26  33
HETATM   33  C   UNK N   1      26.935  19.684   5.517  0.00  0.00    -0.022 C 
HETATM   34  C   UNK N   1      27.754  20.325   4.401  0.00  0.00     0.017 C 
HETATM   35  C   UNK N   1      25.490  19.656   5.050  0.00  0.00     0.017 C 
HETATM   36  C   UNK N   1      26.994  20.578   6.736  0.00  0.00     0.017 C 
ENDBRANCH  26  33
ENDBRANCH  23  26
ENDBRANCH  21  22
BRANCH  21  37
HETATM   37  C   UNK N   1      24.227  16.589   3.717  0.00  0.00     0.066 C 
BRANCH  37  38
HETATM   38  C   UNK N   1      23.240  15.971   4.640  0.00  0.00    -0.056 A 
HETATM   39  C   UNK N   1      22.927  16.568   5.865  0.00  0.00     0.007 A 
HETATM   40  C   UNK N   1      22.062  15.924   6.753  0.00  0.00     0.001 A 
HETATM   41  C   UNK N   1      21.524  14.675   6.425  0.00  0.00     0.000 A 
HETATM   42  C   UNK N   1      21.845  14.074   5.205  0.00  0.00     0.001 A 
HETATM   43  C   UNK N   1      22.704  14.721   4.315  0.00  0.00     0.007 A 
ENDBRANCH  37  38
ENDBRANCH  21  37
ENDBRANCH  18  21
ENDBRANCH  17  18
ENDBRANCH   1  17
BRANCH   1  44
HETATM   44  C   UNK N   1      26.242  12.131   4.778  0.00  0.00     0.152 C 
BRANCH  44  45
HETATM   45  C   UNK N   1      25.369  12.484   5.922  0.00  0.00    -0.043 A 
HETATM   46  C   UNK N   1      24.392  11.582   6.316  0.00  0.00     0.009 A 
HETATM   47  C   UNK N   1      23.674  11.773   7.471  0.00  0.00     0.014 A 
HETATM   48  C   UNK N   1      23.954  12.861   8.288  0.00  0.00    -0.009 A 
HETATM   49  C   UNK N   1      24.902  13.816   7.879  0.00  0.00     0.014 A 
HETATM   50  C   UNK N   1      25.595  13.639   6.676  0.00  0.00     0.009 A 
BRANCH  48  51
HETATM   51  C   UNK N   1      23.552  12.753   9.688  0.00  0.00     0.042 A 
HETATM   52  N   UNK N   1      24.501  12.456  10.617  0.00  0.00    -0.365 N 
HETATM   53  C   UNK N   1      24.166  12.030  11.862  0.00  0.00     0.088 A 
ATOM     54  HN  UNK N   1      25.486  12.556  10.373  1.00  0.00     0.165 HD
HETATM   55  C   UNK N   1      22.822  11.887  12.216  0.00  0.00     0.017 A 
HETATM   56  C   UNK N   1      21.831  12.213  11.294  0.00  0.00     0.004 A 
HETATM   57  C   UNK N   1      22.192  12.627  10.018  0.00  0.00     0.030 A 
ENDBRANCH  48  51
ENDBRANCH  44  45
ENDBRANCH   1  44
TORSDOF 19
ENDMDL
MODEL 4
REMARK VINA RESULT:      -6.3      4.324      9.656
REMARK  19 active torsions:
REMARK  status: ('A' for Active; 'I' for Inactive)
REMARK    1  A    between atoms: C_18  and  O_1 
REMARK    2  A    between atoms: O_4  and  C_34 
REMARK    3  A    between atoms: O_5  and  C_37 
REMARK    4  A    between atoms: C_16  and  N_8 
REMARK       I    between atoms: N_8  and  C_23 
REMARK    5  A    between atoms: N_9  and  N_11 
REMARK    6  A    between atoms: N_9  and  C_20 
REMARK    7  A    between atoms: N_9  and  C_31 
REMARK    8  A    between atoms: C_17  and  N_10 
REMARK       I    between atoms: N_10  and  C_34 
REMARK       I    between atoms: N_11  and  C_27 
REMARK    9  A    between atoms: C_21  and  N_12 
REMARK       I    between atoms: N_12  and  C_37 
REMARK   10  A    between atoms: C_15  and  C_17 
REMARK   11  A    between atoms: C_16  and  C_18 
REMARK   12  A    between atoms: C_16  and  C_22 
REMARK   13  A    between atoms: C_17  and  C_23 
REMARK   14  A    between atoms: C_18  and  C_20 
REMARK   15  A    between atoms: C_19  and  C_21 
REMARK   16  A    between atoms: C_21  and  C_27 
REMARK   17  A    between atoms: C_22  and  C_32 
REMARK   18  A    between atoms: C_31  and  C_33 
REMARK   19  A    between atoms: C_45  and  C_47 
ROOT
HETATM    1  N   UNK N   1      35.332  13.746  10.697  0.00  0.00    -0.222 NA
ENDROOT
BRANCH   1   2
HETATM    2  N   UNK N   1      35.871  13.340  11.897  0.00  0.00    -0.287 N 
HETATM    3  C   UNK N   1      35.460  12.240  12.566  0.00  0.00     0.255 C 
HETATM    4  O   UNK N   1      34.565  11.532  12.130  0.00  0.00    -0.270 OA
HETATM    5  H   UNK N   1      36.594  13.881  12.289  0.00  0.00     0.184 HD
BRANCH   3   6
HETATM    6  C   UNK N   1      36.194  11.876  13.822  0.00  0.00     0.187 C 
BRANCH   6   7
HETATM    7  N   UNK N   1      37.031  13.002  14.185  0.00  0.00    -0.323 N 
HETATM    8  C   UNK N   1      36.808  13.774  15.265  0.00  0.00     0.360 C 
HETATM    9  O   UNK N   1      35.885  13.506  16.038  0.00  0.00    -0.239 OA
HETATM   10  H   UNK N   1      37.804  13.212  13.613  0.00  0.00     0.165 HD
BRANCH   8  11
HETATM   11  O   UNK N   1      37.574  14.867  15.469  0.00  0.00    -0.309 OA
HETATM   12  C   UNK N   1      37.319  15.785  16.457  0.00  0.00     0.215 C 
ENDBRANCH   8  11
ENDBRANCH   6   7
BRANCH   6  13
HETATM   13  C   UNK N   1      37.069  10.622  13.602  0.00  0.00    -0.022 C 
HETATM   14  C   UNK N   1      37.559  10.532  12.166  0.00  0.00     0.017 C 
HETATM   15  C   UNK N   1      38.285  10.632  14.525  0.00  0.00     0.017 C 
HETATM   16  C   UNK N   1      36.258   9.377  13.897  0.00  0.00     0.017 C 
ENDBRANCH   6  13
ENDBRANCH   3   6
ENDBRANCH   1   2
BRANCH   1  17
HETATM   17  C   UNK N   1      34.521  14.906  11.047  0.00  0.00     0.147 C 
BRANCH  17  18
HETATM   18  C   UNK N   1      34.234  15.776   9.836  0.00  0.00     0.156 C 
BRANCH  18  19
HETATM   19  O   UNK N   1      34.254  17.125  10.199  0.00  0.00    -0.392 OA
HETATM   20  H   UNK N   1      33.629  17.747  10.601  0.00  0.00     0.210 HD
ENDBRANCH  18  19
BRANCH  18  21
HETATM   21  C   UNK N   1      32.927  15.396   9.128  0.00  0.00     0.118 C 
BRANCH  21  22
HETATM   22  N   UNK N   1      31.747  16.223   9.099  0.00  0.00    -0.352 N 
HETATM   23  C   UNK N   1      31.587  17.362   8.401  0.00  0.00     0.241 C 
HETATM   24  O   UNK N   1      32.545  18.037   8.055  0.00  0.00    -0.271 OA
HETATM   25  H   UNK N   1      30.984  15.926   9.645  0.00  0.00     0.163 HD
BRANCH  23  26
HETATM   26  C   UNK N   1      30.266  17.515   7.711  0.00  0.00     0.186 C 
BRANCH  26  27
HETATM   27  N   UNK N   1      29.847  16.368   6.923  0.00  0.00    -0.323 N 
HETATM   28  C   UNK N   1      30.105  16.171   5.607  0.00  0.00     0.360 C 
HETATM   29  O   UNK N   1      30.754  16.986   4.968  0.00  0.00    -0.239 OA
HETATM   30  H   UNK N   1      29.330  15.672   7.387  0.00  0.00     0.165 HD
BRANCH  28  31
HETATM   31  O   UNK N   1      29.644  15.045   5.015  0.00  0.00    -0.309 OA
HETATM   32  C   UNK N   1      29.592  14.899   3.649  0.00  0.00     0.215 C 
ENDBRANCH  28  31
ENDBRANCH  26  27
BRANCH  26  33
HETATM   33  C   UNK N   1      29.216  18.156   8.667  0.00  0.00    -0.022 C 
HETATM   34  C   UNK N   1      29.857  18.954   9.798  0.00  0.00     0.017 C 
HETATM   35  C   UNK N   1      28.346  19.119   7.877  0.00  0.00     0.017 C 
HETATM   36  C   UNK N   1      28.297  17.114   9.268  0.00  0.00     0.017 C 
ENDBRANCH  26  33
ENDBRANCH  23  26
ENDBRANCH  21  22
BRANCH  21  37
HETATM   37  C   UNK N   1      32.769  14.152   8.266  0.00  0.00     0.066 C 
BRANCH  37  38
HETATM   38  C   UNK N   1      33.147  14.282   6.835  0.00  0.00    -0.056 A 
HETATM   39  C   UNK N   1      33.972  15.325   6.400  0.00  0.00     0.007 A 
HETATM   40  C   UNK N   1      34.243  15.476   5.037  0.00  0.00     0.001 A 
HETATM   41  C   UNK N   1      33.677  14.597   4.109  0.00  0.00     0.000 A 
HETATM   42  C   UNK N   1      32.845  13.561   4.543  0.00  0.00     0.001 A 
HETATM   43  C   UNK N   1      32.580  13.405   5.905  0.00  0.00     0.007 A 
ENDBRANCH  37  38
ENDBRANCH  21  37
ENDBRANCH  18  21
ENDBRANCH  17  18
ENDBRANCH   1  17
BRANCH   1  44
HETATM   44  C   UNK N   1      36.424  14.190   9.842  0.00  0.00     0.152 C 
BRANCH  44  45
HETATM   45  C   UNK N   1      36.461  13.358   8.615  0.00  0.00    -0.043 A 
HETATM   46  C   UNK N   1      35.731  12.180   8.588  0.00  0.00     0.009 A 
HETATM   47  C   UNK N   1      35.585  11.461   7.427  0.00  0.00     0.014 A 
HETATM   48  C   UNK N   1      36.138  11.939   6.245  0.00  0.00    -0.009 A 
HETATM   49  C   UNK N   1      36.928  13.102   6.262  0.00  0.00     0.014 A 
HETATM   50  C   UNK N   1      37.112  13.802   7.460  0.00  0.00     0.009 A 
BRANCH  48  51
HETATM   51  C   UNK N   1      35.554  11.445   5.000  0.00  0.00     0.042 A 
HETATM   52  N   UNK N   1      34.702  10.386   5.054  0.00  0.00    -0.365 N 
HETATM   53  C   UNK N   1      34.377   9.679   3.942  0.00  0.00     0.088 A 
ATOM     54  HN  UNK N   1      34.299  10.116   5.952  1.00  0.00     0.165 HD
HETATM   55  C   UNK N   1      34.919  10.031   2.704  0.00  0.00     0.017 A 
HETATM   56  C   UNK N   1      35.771  11.129   2.615  0.00  0.00     0.004 A 
HETATM   57  C   UNK N   1      36.109  11.829   3.767  0.00  0.00     0.030 A 
ENDBRANCH  48  51
ENDBRANCH  44  45
ENDBRANCH   1  44
TORSDOF 19
ENDMDL
MODEL 5
REMARK VINA RESULT:      -6.2      2.687      5.716
REMARK  19 active torsions:
REMARK  status: ('A' for Active; 'I' for Inactive)
REMARK    1  A    between atoms: C_18  and  O_1 
REMARK    2  A    between atoms: O_4  and  C_34 
REMARK    3  A    between atoms: O_5  and  C_37 
REMARK    4  A    between atoms: C_16  and  N_8 
REMARK       I    between atoms: N_8  and  C_23 
REMARK    5  A    between atoms: N_9  and  N_11 
REMARK    6  A    between atoms: N_9  and  C_20 
REMARK    7  A    between atoms: N_9  and  C_31 
REMARK    8  A    between atoms: C_17  and  N_10 
REMARK       I    between atoms: N_10  and  C_34 
REMARK       I    between atoms: N_11  and  C_27 
REMARK    9  A    between atoms: C_21  and  N_12 
REMARK       I    between atoms: N_12  and  C_37 
REMARK   10  A    between atoms: C_15  and  C_17 
REMARK   11  A    between atoms: C_16  and  C_18 
REMARK   12  A    between atoms: C_16  and  C_22 
REMARK   13  A    between atoms: C_17  and  C_23 
REMARK   14  A    between atoms: C_18  and  C_20 
REMARK   15  A    between atoms: C_19  and  C_21 
REMARK   16  A    between atoms: C_21  and  C_27 
REMARK   17  A    between atoms: C_22  and  C_32 
REMARK   18  A    between atoms: C_31  and  C_33 
REMARK   19  A    between atoms: C_45  and  C_47 
ROOT
HETATM    1  N   UNK N   1      28.060  15.988   4.533  0.00  0.00    -0.222 NA
ENDROOT
BRANCH   1   2
HETATM    2  N   UNK N   1      29.284  16.333   5.061  0.00  0.00    -0.287 N 
HETATM    3  C   UNK N   1      30.161  15.436   5.563  0.00  0.00     0.255 C 
HETATM    4  O   UNK N   1      29.906  14.241   5.576  0.00  0.00    -0.270 OA
HETATM    5  H   UNK N   1      29.533  17.286   5.075  0.00  0.00     0.184 HD
BRANCH   3   6
HETATM    6  C   UNK N   1      31.489  15.950   6.031  0.00  0.00     0.187 C 
BRANCH   6   7
HETATM    7  N   UNK N   1      31.249  17.151   6.807  0.00  0.00    -0.323 N 
HETATM    8  C   UNK N   1      31.478  17.237   8.130  0.00  0.00     0.360 C 
HETATM    9  O   UNK N   1      31.969  16.282   8.737  0.00  0.00    -0.239 OA
HETATM   10  H   UNK N   1      30.901  17.945   6.340  0.00  0.00     0.165 HD
BRANCH   8  11
HETATM   11  O   UNK N   1      31.125  18.359   8.792  0.00  0.00    -0.309 OA
HETATM   12  C   UNK N   1      29.875  18.549   9.328  0.00  0.00     0.215 C 
ENDBRANCH   8  11
ENDBRANCH   6   7
BRANCH   6  13
HETATM   13  C   UNK N   1      32.406  16.276   4.831  0.00  0.00    -0.022 C 
HETATM   14  C   UNK N   1      32.191  15.297   3.688  0.00  0.00     0.017 C 
HETATM   15  C   UNK N   1      32.149  17.688   4.311  0.00  0.00     0.017 C 
HETATM   16  C   UNK N   1      33.856  16.183   5.258  0.00  0.00     0.017 C 
ENDBRANCH   6  13
ENDBRANCH   3   6
ENDBRANCH   1   2
BRANCH   1  17
HETATM   17  C   UNK N   1      27.175  17.069   4.951  0.00  0.00     0.147 C 
BRANCH  17  18
HETATM   18  C   UNK N   1      26.280  16.647   6.102  0.00  0.00     0.156 C 
BRANCH  18  19
HETATM   19  O   UNK N   1      27.039  16.473   7.261  0.00  0.00    -0.392 OA
HETATM   20  H   UNK N   1      27.708  15.841   7.568  0.00  0.00     0.210 HD
ENDBRANCH  18  19
BRANCH  18  21
HETATM   21  C   UNK N   1      25.441  15.404   5.778  0.00  0.00     0.118 C 
BRANCH  21  22
HETATM   22  N   UNK N   1      24.186  15.433   5.071  0.00  0.00    -0.352 N 
HETATM   23  C   UNK N   1      22.996  15.816   5.570  0.00  0.00     0.241 C 
HETATM   24  O   UNK N   1      22.768  15.778   6.770  0.00  0.00    -0.271 OA
HETATM   25  H   UNK N   1      24.200  15.143   4.130  0.00  0.00     0.163 HD
BRANCH  23  26
HETATM   26  C   UNK N   1      22.165  16.676   4.670  0.00  0.00     0.186 C 
BRANCH  26  27
HETATM   27  N   UNK N   1      22.894  17.726   3.977  0.00  0.00    -0.323 N 
HETATM   28  C   UNK N   1      22.513  19.022   3.872  0.00  0.00     0.360 C 
HETATM   29  O   UNK N   1      21.479  19.414   4.393  0.00  0.00    -0.239 OA
HETATM   30  H   UNK N   1      23.741  17.472   3.546  0.00  0.00     0.165 HD
BRANCH  28  31
HETATM   31  O   UNK N   1      23.307  19.881   3.191  0.00  0.00    -0.309 OA
HETATM   32  C   UNK N   1      24.625  20.086   3.521  0.00  0.00     0.215 C 
ENDBRANCH  28  31
ENDBRANCH  26  27
BRANCH  26  33
HETATM   33  C   UNK N   1      21.181  15.808   3.830  0.00  0.00    -0.022 C 
HETATM   34  C   UNK N   1      21.612  15.671   2.373  0.00  0.00     0.017 C 
HETATM   35  C   UNK N   1      21.131  14.407   4.414  0.00  0.00     0.017 C 
HETATM   36  C   UNK N   1      19.773  16.360   3.870  0.00  0.00     0.017 C 
ENDBRANCH  26  33
ENDBRANCH  23  26
ENDBRANCH  21  22
BRANCH  21  37
HETATM   37  C   UNK N   1      25.903  13.981   6.057  0.00  0.00     0.066 C 
BRANCH  37  38
HETATM   38  C   UNK N   1      25.109  13.206   7.044  0.00  0.00    -0.056 A 
HETATM   39  C   UNK N   1      25.103  13.556   8.399  0.00  0.00     0.007 A 
HETATM   40  C   UNK N   1      24.417  12.760   9.321  0.00  0.00     0.001 A 
HETATM   41  C   UNK N   1      23.754  11.607   8.892  0.00  0.00     0.000 A 
HETATM   42  C   UNK N   1      23.768  11.251   7.540  0.00  0.00     0.001 A 
HETATM   43  C   UNK N   1      24.446  12.051   6.619  0.00  0.00     0.007 A 
ENDBRANCH  37  38
ENDBRANCH  21  37
ENDBRANCH  18  21
ENDBRANCH  17  18
ENDBRANCH   1  17
BRANCH   1  44
HETATM   44  C   UNK N   1      28.173  16.021   3.082  0.00  0.00     0.152 C 
BRANCH  44  45
HETATM   45  C   UNK N   1      27.174  15.102   2.486  0.00  0.00    -0.043 A 
HETATM   46  C   UNK N   1      27.313  13.740   2.701  0.00  0.00     0.009 A 
HETATM   47  C   UNK N   1      26.330  12.857   2.327  0.00  0.00     0.014 A 
HETATM   48  C   UNK N   1      25.153  13.332   1.763  0.00  0.00    -0.009 A 
HETATM   49  C   UNK N   1      25.015  14.704   1.486  0.00  0.00     0.014 A 
HETATM   50  C   UNK N   1      26.043  15.591   1.826  0.00  0.00     0.009 A 
BRANCH  48  51
HETATM   51  C   UNK N   1      23.982  12.462   1.851  0.00  0.00     0.042 A 
HETATM   52  N   UNK N   1      22.984  12.619   0.940  0.00  0.00    -0.365 N 
HETATM   53  C   UNK N   1      21.752  12.085   1.140  0.00  0.00     0.088 A 
ATOM     54  HN  UNK N   1      23.166  13.149   0.088  1.00  0.00     0.165 HD
HETATM   55  C   UNK N   1      21.482  11.357   2.301  0.00  0.00     0.017 A 
HETATM   56  C   UNK N   1      22.496  11.156   3.236  0.00  0.00     0.004 A 
HETATM   57  C   UNK N   1      23.745  11.727   3.024  0.00  0.00     0.030 A 
ENDBRANCH  48  51
ENDBRANCH  44  45
ENDBRANCH   1  44
TORSDOF 19
ENDMDL
MODEL 6
REMARK VINA RESULT:      -6.2      4.142      8.167
REMARK  19 active torsions:
REMARK  status: ('A' for Active; 'I' for Inactive)
REMARK    1  A    between atoms: C_18  and  O_1 
REMARK    2  A    between atoms: O_4  and  C_34 
REMARK    3  A    between atoms: O_5  and  C_37 
REMARK    4  A    between atoms: C_16  and  N_8 
REMARK       I    between atoms: N_8  and  C_23 
REMARK    5  A    between atoms: N_9  and  N_11 
REMARK    6  A    between atoms: N_9  and  C_20 
REMARK    7  A    between atoms: N_9  and  C_31 
REMARK    8  A    between atoms: C_17  and  N_10 
REMARK       I    between atoms: N_10  and  C_34 
REMARK       I    between atoms: N_11  and  C_27 
REMARK    9  A    between atoms: C_21  and  N_12 
REMARK       I    between atoms: N_12  and  C_37 
REMARK   10  A    between atoms: C_15  and  C_17 
REMARK   11  A    between atoms: C_16  and  C_18 
REMARK   12  A    between atoms: C_16  and  C_22 
REMARK   13  A    between atoms: C_17  and  C_23 
REMARK   14  A    between atoms: C_18  and  C_20 
REMARK   15  A    between atoms: C_19  and  C_21 
REMARK   16  A    between atoms: C_21  and  C_27 
REMARK   17  A    between atoms: C_22  and  C_32 
REMARK   18  A    between atoms: C_31  and  C_33 
REMARK   19  A    between atoms: C_45  and  C_47 
ROOT
HETATM    1  N   UNK N   1      21.256  16.476   4.491  0.00  0.00    -0.222 NA
ENDROOT
BRANCH   1   2
HETATM    2  N   UNK N   1      20.244  15.808   3.839  0.00  0.00    -0.287 N 
HETATM    3  C   UNK N   1      20.447  14.725   3.057  0.00  0.00     0.255 C 
HETATM    4  O   UNK N   1      21.569  14.272   2.881  0.00  0.00    -0.270 OA
HETATM    5  H   UNK N   1      19.323  16.138   3.948  0.00  0.00     0.184 HD
BRANCH   3   6
HETATM    6  C   UNK N   1      19.239  14.053   2.475  0.00  0.00     0.187 C 
BRANCH   6   7
HETATM    7  N   UNK N   1      19.191  12.702   2.999  0.00  0.00    -0.323 N 
HETATM    8  C   UNK N   1      18.441  12.345   4.058  0.00  0.00     0.360 C 
HETATM    9  O   UNK N   1      17.702  13.170   4.601  0.00  0.00    -0.239 OA
HETATM   10  H   UNK N   1      19.734  12.011   2.557  0.00  0.00     0.165 HD
BRANCH   8  11
HETATM   11  O   UNK N   1      18.539  11.090   4.546  0.00  0.00    -0.309 OA
HETATM   12  C   UNK N   1      19.025  10.038   3.810  0.00  0.00     0.215 C 
ENDBRANCH   8  11
ENDBRANCH   6   7
BRANCH   6  13
HETATM   13  C   UNK N   1      19.323  14.014   0.933  0.00  0.00    -0.022 C 
HETATM   14  C   UNK N   1      17.984  13.650   0.314  0.00  0.00     0.017 C 
HETATM   15  C   UNK N   1      19.762  15.364   0.372  0.00  0.00     0.017 C 
HETATM   16  C   UNK N   1      20.333  12.970   0.504  0.00  0.00     0.017 C 
ENDBRANCH   6  13
ENDBRANCH   3   6
ENDBRANCH   1   2
BRANCH   1  17
HETATM   17  C   UNK N   1      21.483  17.662   3.673  0.00  0.00     0.147 C 
BRANCH  17  18
HETATM   18  C   UNK N   1      22.478  18.608   4.319  0.00  0.00     0.156 C 
BRANCH  18  19
HETATM   19  O   UNK N   1      22.365  19.882   3.758  0.00  0.00    -0.392 OA
HETATM   20  H   UNK N   1      22.412  20.794   4.084  0.00  0.00     0.210 HD
ENDBRANCH  18  19
BRANCH  18  21
HETATM   21  C   UNK N   1      23.920  18.085   4.259  0.00  0.00     0.118 C 
BRANCH  21  22
HETATM   22  N   UNK N   1      24.357  16.837   4.833  0.00  0.00    -0.352 N 
HETATM   23  C   UNK N   1      24.890  15.794   4.169  0.00  0.00     0.241 C 
HETATM   24  O   UNK N   1      24.675  15.622   2.979  0.00  0.00    -0.271 OA
HETATM   25  H   UNK N   1      24.255  16.737   5.807  0.00  0.00     0.163 HD
BRANCH  23  26
HETATM   26  C   UNK N   1      26.066  15.144   4.827  0.00  0.00     0.186 C 
BRANCH  26  27
HETATM   27  N   UNK N   1      26.856  16.018   5.678  0.00  0.00    -0.323 N 
HETATM   28  C   UNK N   1      28.206  16.140   5.658  0.00  0.00     0.360 C 
HETATM   29  O   UNK N   1      28.880  15.494   4.869  0.00  0.00    -0.239 OA
HETATM   30  H   UNK N   1      26.366  16.571   6.328  0.00  0.00     0.165 HD
BRANCH  28  31
HETATM   31  O   UNK N   1      28.795  17.002   6.519  0.00  0.00    -0.309 OA
HETATM   32  C   UNK N   1      28.136  17.520   7.609  0.00  0.00     0.215 C 
ENDBRANCH  28  31
ENDBRANCH  26  27
BRANCH  26  33
HETATM   33  C   UNK N   1      25.679  13.745   5.393  0.00  0.00    -0.022 C 
HETATM   34  C   UNK N   1      25.412  13.769   6.894  0.00  0.00     0.017 C 
HETATM   35  C   UNK N   1      24.402  13.272   4.719  0.00  0.00     0.017 C 
HETATM   36  C   UNK N   1      26.745  12.710   5.106  0.00  0.00     0.017 C 
ENDBRANCH  26  33
ENDBRANCH  23  26
ENDBRANCH  21  22
BRANCH  21  37
HETATM   37  C   UNK N   1      25.030  18.768   3.474  0.00  0.00     0.066 C 
BRANCH  37  38
HETATM   38  C   UNK N   1      26.024  19.540   4.263  0.00  0.00    -0.056 A 
HETATM   39  C   UNK N   1      27.397  19.387   4.041  0.00  0.00     0.007 A 
HETATM   40  C   UNK N   1      28.313  20.060   4.853  0.00  0.00     0.001 A 
HETATM   41  C   UNK N   1      27.859  20.870   5.899  0.00  0.00     0.000 A 
HETATM   42  C   UNK N   1      26.487  21.015   6.127  0.00  0.00     0.001 A 
HETATM   43  C   UNK N   1      25.572  20.349   5.310  0.00  0.00     0.007 A 
ENDBRANCH  37  38
ENDBRANCH  21  37
ENDBRANCH  18  21
ENDBRANCH  17  18
ENDBRANCH   1  17
BRANCH   1  44
HETATM   44  C   UNK N   1      20.751  16.902   5.788  0.00  0.00     0.152 C 
BRANCH  44  45
HETATM   45  C   UNK N   1      20.760  15.754   6.725  0.00  0.00    -0.043 A 
HETATM   46  C   UNK N   1      21.512  14.636   6.398  0.00  0.00     0.009 A 
HETATM   47  C   UNK N   1      21.701  13.618   7.301  0.00  0.00     0.014 A 
HETATM   48  C   UNK N   1      21.171  13.722   8.581  0.00  0.00    -0.009 A 
HETATM   49  C   UNK N   1      20.360  14.822   8.914  0.00  0.00     0.014 A 
HETATM   50  C   UNK N   1      20.133  15.831   7.971  0.00  0.00     0.009 A 
BRANCH  48  51
HETATM   51  C   UNK N   1      21.796  12.907   9.620  0.00  0.00     0.042 A 
HETATM   52  N   UNK N   1      21.057  12.560  10.708  0.00  0.00    -0.365 N 
HETATM   53  C   UNK N   1      21.639  12.090  11.840  0.00  0.00     0.088 A 
ATOM     54  HN  UNK N   1      20.042  12.655  10.671  1.00  0.00     0.165 HD
HETATM   55  C   UNK N   1      23.027  11.953  11.911  0.00  0.00     0.017 A 
HETATM   56  C   UNK N   1      23.805  12.273  10.800  0.00  0.00     0.004 A 
HETATM   57  C   UNK N   1      23.194  12.772   9.657  0.00  0.00     0.030 A 
ENDBRANCH  48  51
ENDBRANCH  44  45
ENDBRANCH   1  44
TORSDOF 19
ENDMDL
MODEL 7
REMARK VINA RESULT:      -6.2      3.966      7.977
REMARK  19 active torsions:
REMARK  status: ('A' for Active; 'I' for Inactive)
REMARK    1  A    between atoms: C_18  and  O_1 
REMARK    2  A    between atoms: O_4  and  C_34 
REMARK    3  A    between atoms: O_5  and  C_37 
REMARK    4  A    between atoms: C_16  and  N_8 
REMARK       I    between atoms: N_8  and  C_23 
REMARK    5  A    between atoms: N_9  and  N_11 
REMARK    6  A    between atoms: N_9  and  C_20 
REMARK    7  A    between atoms: N_9  and  C_31 
REMARK    8  A    between atoms: C_17  and  N_10 
REMARK       I    between atoms: N_10  and  C_34 
REMARK       I    between atoms: N_11  and  C_27 
REMARK    9  A    between atoms: C_21  and  N_12 
REMARK       I    between atoms: N_12  and  C_37 
REMARK   10  A    between atoms: C_15  and  C_17 
REMARK   11  A    between atoms: C_16  and  C_18 
REMARK   12  A    between atoms: C_16  and  C_22 
REMARK   13  A    between atoms: C_17  and  C_23 
REMARK   14  A    between atoms: C_18  and  C_20 
REMARK   15  A    between atoms: C_19  and  C_21 
REMARK   16  A    between atoms: C_21  and  C_27 
REMARK   17  A    between atoms: C_22  and  C_32 
REMARK   18  A    between atoms: C_31  and  C_33 
REMARK   19  A    between atoms: C_45  and  C_47 
ROOT
HETATM    1  N   UNK N   1      24.694  15.461   6.086  0.00  0.00    -0.222 NA
ENDROOT
BRANCH   1   2
HETATM    2  N   UNK N   1      25.590  16.493   6.253  0.00  0.00    -0.287 N 
HETATM    3  C   UNK N   1      26.477  16.873   5.307  0.00  0.00     0.255 C 
HETATM    4  O   UNK N   1      26.532  16.303   4.226  0.00  0.00    -0.270 OA
HETATM    5  H   UNK N   1      25.585  16.980   7.108  0.00  0.00     0.184 HD
BRANCH   3   6
HETATM    6  C   UNK N   1      27.337  18.066   5.599  0.00  0.00     0.187 C 
BRANCH   6   7
HETATM    7  N   UNK N   1      27.533  18.128   7.034  0.00  0.00    -0.323 N 
HETATM    8  C   UNK N   1      28.618  17.630   7.655  0.00  0.00     0.360 C 
HETATM    9  O   UNK N   1      29.538  17.139   6.997  0.00  0.00    -0.239 OA
HETATM   10  H   UNK N   1      26.836  18.557   7.581  0.00  0.00     0.165 HD
BRANCH   8  11
HETATM   11  O   UNK N   1      28.668  17.635   9.005  0.00  0.00    -0.309 OA
HETATM   12  C   UNK N   1      29.446  18.511   9.721  0.00  0.00     0.215 C 
ENDBRANCH   8  11
ENDBRANCH   6   7
BRANCH   6  13
HETATM   13  C   UNK N   1      26.659  19.364   5.106  0.00  0.00    -0.022 C 
HETATM   14  C   UNK N   1      27.254  19.834   3.789  0.00  0.00     0.017 C 
HETATM   15  C   UNK N   1      25.159  19.161   4.911  0.00  0.00     0.017 C 
HETATM   16  C   UNK N   1      26.861  20.464   6.127  0.00  0.00     0.017 C 
ENDBRANCH   6  13
ENDBRANCH   3   6
ENDBRANCH   1   2
BRANCH   1  17
HETATM   17  C   UNK N   1      25.115  14.465   7.064  0.00  0.00     0.147 C 
BRANCH  17  18
HETATM   18  C   UNK N   1      25.461  13.142   6.405  0.00  0.00     0.156 C 
BRANCH  18  19
HETATM   19  O   UNK N   1      26.520  13.315   5.511  0.00  0.00    -0.392 OA
HETATM   20  H   UNK N   1      27.236  13.959   5.394  0.00  0.00     0.210 HD
ENDBRANCH  18  19
BRANCH  18  21
HETATM   21  C   UNK N   1      24.252  12.478   5.735  0.00  0.00     0.118 C 
BRANCH  21  22
HETATM   22  N   UNK N   1      23.868  12.686   4.361  0.00  0.00    -0.352 N 
HETATM   23  C   UNK N   1      24.225  11.928   3.308  0.00  0.00     0.241 C 
HETATM   24  O   UNK N   1      25.237  11.244   3.331  0.00  0.00    -0.271 OA
HETATM   25  H   UNK N   1      23.287  13.459   4.175  0.00  0.00     0.163 HD
BRANCH  23  26
HETATM   26  C   UNK N   1      23.133  11.630   2.328  0.00  0.00     0.186 C 
BRANCH  26  27
HETATM   27  N   UNK N   1      21.784  11.725   2.861  0.00  0.00    -0.323 N 
HETATM   28  C   UNK N   1      21.088  10.720   3.446  0.00  0.00     0.360 C 
HETATM   29  O   UNK N   1      21.584   9.611   3.579  0.00  0.00    -0.239 OA
HETATM   30  H   UNK N   1      21.337  12.598   2.792  0.00  0.00     0.165 HD
BRANCH  28  31
HETATM   31  O   UNK N   1      19.836  10.970   3.894  0.00  0.00    -0.309 OA
HETATM   32  C   UNK N   1      19.524  12.097   4.618  0.00  0.00     0.215 C 
ENDBRANCH  28  31
ENDBRANCH  26  27
BRANCH  26  33
HETATM   33  C   UNK N   1      23.416  12.319   0.959  0.00  0.00    -0.022 C 
HETATM   34  C   UNK N   1      23.872  11.335  -0.113  0.00  0.00     0.017 C 
HETATM   35  C   UNK N   1      22.140  12.969   0.455  0.00  0.00     0.017 C 
HETATM   36  C   UNK N   1      24.454  13.413   1.087  0.00  0.00     0.017 C 
ENDBRANCH  26  33
ENDBRANCH  23  26
ENDBRANCH  21  22
BRANCH  21  37
HETATM   37  C   UNK N   1      23.390  11.422   6.411  0.00  0.00     0.066 C 
BRANCH  37  38
HETATM   38  C   UNK N   1      22.831  11.773   7.742  0.00  0.00    -0.056 A 
HETATM   39  C   UNK N   1      21.822  12.734   7.869  0.00  0.00     0.007 A 
HETATM   40  C   UNK N   1      21.373  13.109   9.138  0.00  0.00     0.001 A 
HETATM   41  C   UNK N   1      21.944  12.538  10.280  0.00  0.00     0.000 A 
HETATM   42  C   UNK N   1      22.960  11.586  10.153  0.00  0.00     0.001 A 
HETATM   43  C   UNK N   1      23.402  11.205   8.885  0.00  0.00     0.007 A 
ENDBRANCH  37  38
ENDBRANCH  21  37
ENDBRANCH  18  21
ENDBRANCH  17  18
ENDBRANCH   1  17
BRANCH   1  44
HETATM   44  C   UNK N   1      23.375  15.947   6.462  0.00  0.00     0.152 C 
BRANCH  44  45
HETATM   45  C   UNK N   1      22.580  16.221   5.241  0.00  0.00    -0.043 A 
HETATM   46  C   UNK N   1      22.954  15.610   4.055  0.00  0.00     0.009 A 
HETATM   47  C   UNK N   1      22.160  15.685   2.936  0.00  0.00     0.014 A 
HETATM   48  C   UNK N   1      20.939  16.343   2.999  0.00  0.00    -0.009 A 
HETATM   49  C   UNK N   1      20.567  17.016   4.176  0.00  0.00     0.014 A 
HETATM   50  C   UNK N   1      21.405  16.976   5.296  0.00  0.00     0.009 A 
BRANCH  48  51
HETATM   51  C   UNK N   1      19.941  15.977   1.996  0.00  0.00     0.042 A 
HETATM   52  N   UNK N   1      19.396  14.731   2.045  0.00  0.00    -0.365 N 
HETATM   53  C   UNK N   1      18.720  14.211   0.989  0.00  0.00     0.088 A 
ATOM     54  HN  UNK N   1      19.497  14.176   2.895  1.00  0.00     0.165 HD
HETATM   55  C   UNK N   1      18.570  14.955  -0.184  0.00  0.00     0.017 A 
HETATM   56  C   UNK N   1      19.094  16.244  -0.249  0.00  0.00     0.004 A 
HETATM   57  C   UNK N   1      19.800  16.753   0.834  0.00  0.00     0.030 A 
ENDBRANCH  48  51
ENDBRANCH  44  45
ENDBRANCH   1  44
TORSDOF 19
ENDMDL
MODEL 8
REMARK VINA RESULT:      -6.1      3.435      7.189
REMARK  19 active torsions:
REMARK  status: ('A' for Active; 'I' for Inactive)
REMARK    1  A    between atoms: C_18  and  O_1 
REMARK    2  A    between atoms: O_4  and  C_34 
REMARK    3  A    between atoms: O_5  and  C_37 
REMARK    4  A    between atoms: C_16  and  N_8 
REMARK       I    between atoms: N_8  and  C_23 
REMARK    5  A    between atoms: N_9  and  N_11 
REMARK    6  A    between atoms: N_9  and  C_20 
REMARK    7  A    between atoms: N_9  and  C_31 
REMARK    8  A    between atoms: C_17  and  N_10 
REMARK       I    between atoms: N_10  and  C_34 
REMARK       I    between atoms: N_11  and  C_27 
REMARK    9  A    between atoms: C_21  and  N_12 
REMARK       I    between atoms: N_12  and  C_37 
REMARK   10  A    between atoms: C_15  and  C_17 
REMARK   11  A    between atoms: C_16  and  C_18 
REMARK   12  A    between atoms: C_16  and  C_22 
REMARK   13  A    between atoms: C_17  and  C_23 
REMARK   14  A    between atoms: C_18  and  C_20 
REMARK   15  A    between atoms: C_19  and  C_21 
REMARK   16  A    between atoms: C_21  and  C_27 
REMARK   17  A    between atoms: C_22  and  C_32 
REMARK   18  A    between atoms: C_31  and  C_33 
REMARK   19  A    between atoms: C_45  and  C_47 
ROOT
HETATM    1  N   UNK N   1      23.768  13.957   3.114  0.00  0.00    -0.222 NA
ENDROOT
BRANCH   1   2
HETATM    2  N   UNK N   1      22.597  14.467   2.597  0.00  0.00    -0.287 N 
HETATM    3  C   UNK N   1      22.269  14.406   1.288  0.00  0.00     0.255 C 
HETATM    4  O   UNK N   1      23.016  13.883   0.473  0.00  0.00    -0.270 OA
HETATM    5  H   UNK N   1      21.965  14.899   3.216  0.00  0.00     0.184 HD
BRANCH   3   6
HETATM    6  C   UNK N   1      20.925  14.931   0.883  0.00  0.00     0.187 C 
BRANCH   6   7
HETATM    7  N   UNK N   1      20.684  16.150   1.630  0.00  0.00    -0.323 N 
HETATM    8  C   UNK N   1      20.432  17.338   1.049  0.00  0.00     0.360 C 
HETATM    9  O   UNK N   1      20.338  17.420  -0.178  0.00  0.00    -0.239 OA
HETATM   10  H   UNK N   1      20.705  16.105   2.613  0.00  0.00     0.165 HD
BRANCH   8  11
HETATM   11  O   UNK N   1      20.326  18.442   1.819  0.00  0.00    -0.309 OA
HETATM   12  C   UNK N   1      19.279  18.656   2.680  0.00  0.00     0.215 C 
ENDBRANCH   8  11
ENDBRANCH   6   7
BRANCH   6  13
HETATM   13  C   UNK N   1      19.817  13.900   1.191  0.00  0.00    -0.022 C 
HETATM   14  C   UNK N   1      18.596  14.118   0.313  0.00  0.00     0.017 C 
HETATM   15  C   UNK N   1      20.318  12.474   0.974  0.00  0.00     0.017 C 
HETATM   16  C   UNK N   1      19.382  14.036   2.636  0.00  0.00     0.017 C 
ENDBRANCH   6  13
ENDBRANCH   3   6
ENDBRANCH   1   2
BRANCH   1  17
HETATM   17  C   UNK N   1      24.247  15.005   4.008  0.00  0.00     0.147 C 
BRANCH  17  18
HETATM   18  C   UNK N   1      25.627  15.494   3.609  0.00  0.00     0.156 C 
BRANCH  18  19
HETATM   19  O   UNK N   1      26.436  14.413   3.254  0.00  0.00    -0.392 OA
HETATM   20  H   UNK N   1      27.316  14.090   3.502  0.00  0.00     0.210 HD
ENDBRANCH  18  19
BRANCH  18  21
HETATM   21  C   UNK N   1      26.282  16.367   4.688  0.00  0.00     0.118 C 
BRANCH  21  22
HETATM   22  N   UNK N   1      27.661  16.259   5.094  0.00  0.00    -0.352 N 
HETATM   23  C   UNK N   1      28.711  16.886   4.533  0.00  0.00     0.241 C 
HETATM   24  O   UNK N   1      28.674  17.276   3.375  0.00  0.00    -0.271 OA
HETATM   25  H   UNK N   1      27.853  15.667   5.857  0.00  0.00     0.163 HD
BRANCH  23  26
HETATM   26  C   UNK N   1      29.709  17.457   5.491  0.00  0.00     0.186 C 
BRANCH  26  27
HETATM   27  N   UNK N   1      29.257  17.546   6.870  0.00  0.00    -0.323 N 
HETATM   28  C   UNK N   1      28.537  18.560   7.407  0.00  0.00     0.360 C 
HETATM   29  O   UNK N   1      28.192  19.513   6.723  0.00  0.00    -0.239 OA
HETATM   30  H   UNK N   1      29.496  16.801   7.467  0.00  0.00     0.165 HD
BRANCH  28  31
HETATM   31  O   UNK N   1      28.192  18.493   8.714  0.00  0.00    -0.309 OA
HETATM   32  C   UNK N   1      29.116  18.292   9.711  0.00  0.00     0.215 C 
ENDBRANCH  28  31
ENDBRANCH  26  27
BRANCH  26  33
HETATM   33  C   UNK N   1      31.125  16.861   5.234  0.00  0.00    -0.022 C 
HETATM   34  C   UNK N   1      31.994  16.844   6.488  0.00  0.00     0.017 C 
HETATM   35  C   UNK N   1      30.983  15.422   4.769  0.00  0.00     0.017 C 
HETATM   36  C   UNK N   1      31.860  17.612   4.144  0.00  0.00     0.017 C 
ENDBRANCH  26  33
ENDBRANCH  23  26
ENDBRANCH  21  22
BRANCH  21  37
HETATM   37  C   UNK N   1      25.580  17.534   5.367  0.00  0.00     0.066 C 
BRANCH  37  38
HETATM   38  C   UNK N   1      25.132  18.643   4.487  0.00  0.00    -0.056 A 
HETATM   39  C   UNK N   1      23.775  18.845   4.216  0.00  0.00     0.007 A 
HETATM   40  C   UNK N   1      23.384  19.841   3.317  0.00  0.00     0.001 A 
HETATM   41  C   UNK N   1      24.350  20.623   2.676  0.00  0.00     0.000 A 
HETATM   42  C   UNK N   1      25.707  20.414   2.939  0.00  0.00     0.001 A 
HETATM   43  C   UNK N   1      26.096  19.425   3.843  0.00  0.00     0.007 A 
ENDBRANCH  37  38
ENDBRANCH  21  37
ENDBRANCH  18  21
ENDBRANCH  17  18
ENDBRANCH   1  17
BRANCH   1  44
HETATM   44  C   UNK N   1      23.433  12.788   3.914  0.00  0.00     0.152 C 
BRANCH  44  45
HETATM   45  C   UNK N   1      23.577  13.114   5.353  0.00  0.00    -0.043 A 
HETATM   46  C   UNK N   1      22.476  13.610   6.034  0.00  0.00     0.009 A 
HETATM   47  C   UNK N   1      22.495  13.764   7.399  0.00  0.00     0.014 A 
HETATM   48  C   UNK N   1      23.616  13.376   8.122  0.00  0.00    -0.009 A 
HETATM   49  C   UNK N   1      24.762  12.923   7.445  0.00  0.00     0.014 A 
HETATM   50  C   UNK N   1      24.751  12.815   6.049  0.00  0.00     0.009 A 
BRANCH  48  51
HETATM   51  C   UNK N   1      23.416  13.084   9.539  0.00  0.00     0.042 A 
HETATM   52  N   UNK N   1      24.493  12.724  10.288  0.00  0.00    -0.365 N 
HETATM   53  C   UNK N   1      24.347  12.138  11.505  0.00  0.00     0.088 A 
ATOM     54  HN  UNK N   1      25.432  12.897   9.928  1.00  0.00     0.165 HD
HETATM   55  C   UNK N   1      23.071  11.891  12.016  0.00  0.00     0.017 A 
HETATM   56  C   UNK N   1      21.952  12.278  11.282  0.00  0.00     0.004 A 
HETATM   57  C   UNK N   1      22.120  12.857  10.030  0.00  0.00     0.030 A 
ENDBRANCH  48  51
ENDBRANCH  44  45
ENDBRANCH   1  44
TORSDOF 19
ENDMDL
MODEL 9
REMARK VINA RESULT:      -6.1      2.560      4.370
REMARK  19 active torsions:
REMARK  status: ('A' for Active; 'I' for Inactive)
REMARK    1  A    between atoms: C_18  and  O_1 
REMARK    2  A    between atoms: O_4  and  C_34 
REMARK    3  A    between atoms: O_5  and  C_37 
REMARK    4  A    between atoms: C_16  and  N_8 
REMARK       I    between atoms: N_8  and  C_23 
REMARK    5  A    between atoms: N_9  and  N_11 
REMARK    6  A    between atoms: N_9  and  C_20 
REMARK    7  A    between atoms: N_9  and  C_31 
REMARK    8  A    between atoms: C_17  and  N_10 
REMARK       I    between atoms: N_10  and  C_34 
REMARK       I    between atoms: N_11  and  C_27 
REMARK    9  A    between atoms: C_21  and  N_12 
REMARK       I    between atoms: N_12  and  C_37 
REMARK   10  A    between atoms: C_15  and  C_17 
REMARK   11  A    between atoms: C_16  and  C_18 
REMARK   12  A    between atoms: C_16  and  C_22 
REMARK   13  A    between atoms: C_17  and  C_23 
REMARK   14  A    between atoms: C_18  and  C_20 
REMARK   15  A    between atoms: C_19  and  C_21 
REMARK   16  A    between atoms: C_21  and  C_27 
REMARK   17  A    between atoms: C_22  and  C_32 
REMARK   18  A    between atoms: C_31  and  C_33 
REMARK   19  A    between atoms: C_45  and  C_47 
ROOT
HETATM    1  N   UNK N   1      28.027  14.324   3.827  0.00  0.00    -0.222 NA
ENDROOT
BRANCH   1   2
HETATM    2  N   UNK N   1      29.037  13.430   3.547  0.00  0.00    -0.287 N 
HETATM    3  C   UNK N   1      30.033  13.134   4.411  0.00  0.00     0.255 C 
HETATM    4  O   UNK N   1      30.092  13.661   5.513  0.00  0.00    -0.270 OA
HETATM    5  H   UNK N   1      29.032  12.983   2.670  0.00  0.00     0.184 HD
BRANCH   3   6
HETATM    6  C   UNK N   1      31.018  12.082   4.000  0.00  0.00     0.187 C 
BRANCH   6   7
HETATM    7  N   UNK N   1      31.200  11.185   5.125  0.00  0.00    -0.323 N 
HETATM    8  C   UNK N   1      30.590   9.989   5.225  0.00  0.00     0.360 C 
HETATM    9  O   UNK N   1      29.876   9.579   4.307  0.00  0.00    -0.239 OA
HETATM   10  H   UNK N   1      31.802  11.465   5.851  0.00  0.00     0.165 HD
BRANCH   8  11
HETATM   11  O   UNK N   1      30.731   9.266   6.357  0.00  0.00    -0.309 OA
HETATM   12  C   UNK N   1      30.686   7.894   6.377  0.00  0.00     0.215 C 
ENDBRANCH   8  11
ENDBRANCH   6   7
BRANCH   6  13
HETATM   13  C   UNK N   1      32.372  12.718   3.614  0.00  0.00    -0.022 C 
HETATM   14  C   UNK N   1      32.195  14.151   3.138  0.00  0.00     0.017 C 
HETATM   15  C   UNK N   1      33.337  12.720   4.797  0.00  0.00     0.017 C 
HETATM   16  C   UNK N   1      33.004  11.928   2.487  0.00  0.00     0.017 C 
ENDBRANCH   6  13
ENDBRANCH   3   6
ENDBRANCH   1   2
BRANCH   1  17
HETATM   17  C   UNK N   1      28.028  15.229   2.684  0.00  0.00     0.147 C 
BRANCH  17  18
HETATM   18  C   UNK N   1      28.617  16.581   3.040  0.00  0.00     0.156 C 
BRANCH  18  19
HETATM   19  O   UNK N   1      29.882  16.721   2.464  0.00  0.00    -0.392 OA
HETATM   20  H   UNK N   1      30.722  16.238   2.501  0.00  0.00     0.210 HD
ENDBRANCH  18  19
BRANCH  18  21
HETATM   21  C   UNK N   1      28.649  16.836   4.552  0.00  0.00     0.118 C 
BRANCH  21  22
HETATM   22  N   UNK N   1      29.736  16.453   5.419  0.00  0.00    -0.352 N 
HETATM   23  C   UNK N   1      30.898  17.112   5.583  0.00  0.00     0.241 C 
HETATM   24  O   UNK N   1      31.332  17.860   4.719  0.00  0.00    -0.271 OA
HETATM   25  H   UNK N   1      29.616  15.628   5.942  0.00  0.00     0.163 HD
BRANCH  23  26
HETATM   26  C   UNK N   1      31.380  17.227   6.995  0.00  0.00     0.186 C 
BRANCH  26  27
HETATM   27  N   UNK N   1      30.347  17.109   8.010  0.00  0.00    -0.323 N 
HETATM   28  C   UNK N   1      30.082  18.013   8.984  0.00  0.00     0.360 C 
HETATM   29  O   UNK N   1      30.725  19.049   9.067  0.00  0.00    -0.239 OA
HETATM   30  H   UNK N   1      29.789  16.299   7.987  0.00  0.00     0.165 HD
BRANCH  28  31
HETATM   31  O   UNK N   1      29.081  17.755   9.857  0.00  0.00    -0.309 OA
HETATM   32  C   UNK N   1      27.879  17.217   9.462  0.00  0.00     0.215 C 
ENDBRANCH  28  31
ENDBRANCH  26  27
BRANCH  26  33
HETATM   33  C   UNK N   1      32.689  16.407   7.200  0.00  0.00    -0.022 C 
HETATM   34  C   UNK N   1      32.423  14.976   7.656  0.00  0.00     0.017 C 
HETATM   35  C   UNK N   1      33.436  16.324   5.880  0.00  0.00     0.017 C 
HETATM   36  C   UNK N   1      33.615  17.070   8.197  0.00  0.00     0.017 C 
ENDBRANCH  26  33
ENDBRANCH  23  26
ENDBRANCH  21  22
BRANCH  21  37
HETATM   37  C   UNK N   1      27.588  17.637   5.293  0.00  0.00     0.066 C 
BRANCH  37  38
HETATM   38  C   UNK N   1      26.745  18.543   4.472  0.00  0.00    -0.056 A 
HETATM   39  C   UNK N   1      27.277  19.706   3.905  0.00  0.00     0.007 A 
HETATM   40  C   UNK N   1      26.444  20.586   3.210  0.00  0.00     0.001 A 
HETATM   41  C   UNK N   1      25.077  20.314   3.096  0.00  0.00     0.000 A 
HETATM   42  C   UNK N   1      24.543  19.157   3.671  0.00  0.00     0.001 A 
HETATM   43  C   UNK N   1      25.378  18.274   4.359  0.00  0.00     0.007 A 
ENDBRANCH  37  38
ENDBRANCH  21  37
ENDBRANCH  18  21
ENDBRANCH  17  18
ENDBRANCH   1  17
BRANCH   1  44
HETATM   44  C   UNK N   1      26.769  13.592   3.833  0.00  0.00     0.152 C 
BRANCH  44  45
HETATM   45  C   UNK N   1      25.761  14.345   4.616  0.00  0.00    -0.043 A 
HETATM   46  C   UNK N   1      24.586  14.731   3.990  0.00  0.00     0.009 A 
HETATM   47  C   UNK N   1      23.545  15.273   4.705  0.00  0.00     0.014 A 
HETATM   48  C   UNK N   1      23.646  15.398   6.085  0.00  0.00    -0.009 A 
HETATM   49  C   UNK N   1      24.849  15.064   6.731  0.00  0.00     0.014 A 
HETATM   50  C   UNK N   1      25.922  14.558   5.988  0.00  0.00     0.009 A 
BRANCH  48  51
HETATM   51  C   UNK N   1      22.392  15.489   6.830  0.00  0.00     0.042 A 
HETATM   52  N   UNK N   1      21.652  16.625   6.724  0.00  0.00    -0.365 N 
HETATM   53  C   UNK N   1      20.665  16.914   7.610  0.00  0.00     0.088 A 
ATOM     54  HN  UNK N   1      21.843  17.275   5.961  1.00  0.00     0.165 HD
HETATM   55  C   UNK N   1      20.388  16.038   8.662  0.00  0.00     0.017 A 
HETATM   56  C   UNK N   1      21.111  14.854   8.776  0.00  0.00     0.004 A 
HETATM   57  C   UNK N   1      22.132  14.584   7.873  0.00  0.00     0.030 A 
ENDBRANCH  48  51
ENDBRANCH  44  45
ENDBRANCH   1  44
TORSDOF 19
ENDMDL
