MODEL 1
REMARK VINA RESULT:      -6.7      0.000      0.000
REMARK  3 active torsions:
REMARK  status: ('A' for Active; 'I' for Inactive)
REMARK    1  A    between atoms: N_6  and  C_9 
REMARK       I    between atoms: N_6  and  C_16 
REMARK    2  A    between atoms: C_10  and  C_18 
REMARK    3  A    between atoms: C_11  and  C_16 
ROOT
HETATM    1  O   UNK N   1      20.469  17.280   4.094  0.00  0.00    -0.267 OA
HETATM    2  N   UNK N   1      21.563  18.140   5.861  0.00  0.00    -0.323 N 
HETATM    3  C   UNK N   1      21.104  18.206   4.578  0.00  0.00     0.260 C 
HETATM    4  H   UNK N   1      22.046  18.921   6.214  0.00  0.00     0.169 HD
ENDROOT
BRANCH   2   5
HETATM    5  C   UNK N   1      21.395  17.018   6.729  0.00  0.00     0.035 A 
HETATM    6  C   UNK N   1      22.257  15.921   6.612  0.00  0.00     0.030 A 
HETATM    7  C   UNK N   1      22.149  14.840   7.498  0.00  0.00     0.018 A 
HETATM    8  C   UNK N   1      21.166  14.843   8.500  0.00  0.00     0.048 A 
HETATM    9  C   UNK N   1      20.284  15.923   8.595  0.00  0.00     0.018 A 
HETATM   10  C   UNK N   1      20.401  17.000   7.722  0.00  0.00     0.030 A 
BRANCH   8  11
HETATM   11  C   UNK N   1      21.056  13.724   9.494  0.00  0.00     0.417 C 
HETATM   12  F   UNK N   1      21.062  12.516   8.818  0.00  0.00    -0.166 F 
HETATM   13  F   UNK N   1      19.887  13.816  10.228  0.00  0.00    -0.166 F 
HETATM   14  F   UNK N   1      22.136  13.761  10.358  0.00  0.00    -0.166 F 
ENDBRANCH   8  11
ENDBRANCH   2   5
BRANCH   3  15
HETATM   15  C   UNK N   1      21.340  19.410   3.764  0.00  0.00     0.081 A 
HETATM   16  C   UNK N   1      22.550  19.917   3.341  0.00  0.00     0.089 A 
HETATM   17  O   UNK N   1      22.322  20.997   2.640  0.00  0.00    -0.242 OA
HETATM   18  C   UNK N   1      23.908  19.363   3.611  0.00  0.00     0.080 C 
HETATM   19  N   UNK N   1      21.042  21.240   2.569  0.00  0.00    -0.271 N 
HETATM   20  C   UNK N   1      20.391  20.276   3.255  0.00  0.00     0.134 A 
ATOM     21  HN  UNK N   1      20.608  22.023   2.079  1.00  0.00     0.194 HD
ENDBRANCH   3  15
TORSDOF 3
ENDMDL
MODEL 2
REMARK VINA RESULT:      -6.6     16.456     17.787
REMARK  3 active torsions:
REMARK  status: ('A' for Active; 'I' for Inactive)
REMARK    1  A    between atoms: N_6  and  C_9 
REMARK       I    between atoms: N_6  and  C_16 
REMARK    2  A    between atoms: C_10  and  C_18 
REMARK    3  A    between atoms: C_11  and  C_16 
ROOT
HETATM    1  O   UNK N   1      34.494  13.036  13.639  0.00  0.00    -0.267 OA
HETATM    2  N   UNK N   1      36.407  13.444  14.752  0.00  0.00    -0.323 N 
HETATM    3  C   UNK N   1      35.629  13.492  13.632  0.00  0.00     0.260 C 
HETATM    4  H   UNK N   1      37.303  13.848  14.703  0.00  0.00     0.169 HD
ENDROOT
BRANCH   2   5
HETATM    5  C   UNK N   1      36.014  12.849  15.989  0.00  0.00     0.035 A 
HETATM    6  C   UNK N   1      36.185  11.472  16.176  0.00  0.00     0.030 A 
HETATM    7  C   UNK N   1      35.867  10.881  17.407  0.00  0.00     0.018 A 
HETATM    8  C   UNK N   1      35.362  11.664  18.458  0.00  0.00     0.048 A 
HETATM    9  C   UNK N   1      35.161  13.032  18.259  0.00  0.00     0.018 A 
HETATM   10  C   UNK N   1      35.488  13.618  17.040  0.00  0.00     0.030 A 
BRANCH   8  11
HETATM   11  C   UNK N   1      35.059  11.070  19.802  0.00  0.00     0.417 C 
HETATM   12  F   UNK N   1      36.250  10.788  20.450  0.00  0.00    -0.166 F 
HETATM   13  F   UNK N   1      34.331   9.900  19.682  0.00  0.00    -0.166 F 
HETATM   14  F   UNK N   1      34.339  11.975  20.559  0.00  0.00    -0.166 F 
ENDBRANCH   8  11
ENDBRANCH   2   5
BRANCH   3  15
HETATM   15  C   UNK N   1      36.135  14.124  12.401  0.00  0.00     0.081 A 
HETATM   16  C   UNK N   1      36.949  13.563  11.440  0.00  0.00     0.089 A 
HETATM   17  O   UNK N   1      37.163  14.457  10.510  0.00  0.00    -0.242 OA
HETATM   18  C   UNK N   1      37.512  12.182  11.423  0.00  0.00     0.080 C 
HETATM   19  N   UNK N   1      36.545  15.571  10.788  0.00  0.00    -0.271 N 
HETATM   20  C   UNK N   1      35.890  15.410  11.958  0.00  0.00     0.134 A 
ATOM     21  HN  UNK N   1      36.554  16.419  10.220  1.00  0.00     0.194 HD
ENDBRANCH   3  15
TORSDOF 3
ENDMDL
MODEL 3
REMARK VINA RESULT:      -6.3     10.990     12.412
REMARK  3 active torsions:
REMARK  status: ('A' for Active; 'I' for Inactive)
REMARK    1  A    between atoms: N_6  and  C_9 
REMARK       I    between atoms: N_6  and  C_16 
REMARK    2  A    between atoms: C_10  and  C_18 
REMARK    3  A    between atoms: C_11  and  C_16 
ROOT
HETATM    1  O   UNK N   1      33.869  18.052   8.221  0.00  0.00    -0.267 OA
HETATM    2  N   UNK N   1      32.401  16.542   9.012  0.00  0.00    -0.323 N 
HETATM    3  C   UNK N   1      33.663  17.043   8.880  0.00  0.00     0.260 C 
HETATM    4  H   UNK N   1      32.283  15.743   9.574  0.00  0.00     0.169 HD
ENDROOT
BRANCH   2   5
HETATM    5  C   UNK N   1      31.239  17.093   8.391  0.00  0.00     0.035 A 
HETATM    6  C   UNK N   1      30.459  18.021   9.092  0.00  0.00     0.030 A 
HETATM    7  C   UNK N   1      29.352  18.622   8.476  0.00  0.00     0.018 A 
HETATM    8  C   UNK N   1      29.010  18.287   7.156  0.00  0.00     0.048 A 
HETATM    9  C   UNK N   1      29.769  17.337   6.470  0.00  0.00     0.018 A 
HETATM   10  C   UNK N   1      30.874  16.750   7.079  0.00  0.00     0.030 A 
BRANCH   8  11
HETATM   11  C   UNK N   1      27.861  18.949   6.453  0.00  0.00     0.417 C 
HETATM   12  F   UNK N   1      27.272  19.864   7.310  0.00  0.00    -0.166 F 
HETATM   13  F   UNK N   1      26.908  18.024   6.067  0.00  0.00    -0.166 F 
HETATM   14  F   UNK N   1      28.323  19.616   5.333  0.00  0.00    -0.166 F 
ENDBRANCH   8  11
ENDBRANCH   2   5
BRANCH   3  15
HETATM   15  C   UNK N   1      34.798  16.391   9.558  0.00  0.00     0.081 A 
HETATM   16  C   UNK N   1      35.492  15.272   9.149  0.00  0.00     0.089 A 
HETATM   17  O   UNK N   1      36.425  15.024  10.031  0.00  0.00    -0.242 OA
HETATM   18  C   UNK N   1      35.256  14.457   7.924  0.00  0.00     0.080 C 
HETATM   19  N   UNK N   1      36.397  15.901  10.995  0.00  0.00    -0.271 N 
HETATM   20  C   UNK N   1      35.398  16.774  10.742  0.00  0.00     0.134 A 
ATOM     21  HN  UNK N   1      37.021  15.925  11.802  1.00  0.00     0.194 HD
ENDBRANCH   3  15
TORSDOF 3
ENDMDL
MODEL 4
REMARK VINA RESULT:      -6.3     14.556     15.153
REMARK  3 active torsions:
REMARK  status: ('A' for Active; 'I' for Inactive)
REMARK    1  A    between atoms: N_6  and  C_9 
REMARK       I    between atoms: N_6  and  C_16 
REMARK    2  A    between atoms: C_10  and  C_18 
REMARK    3  A    between atoms: C_11  and  C_16 
ROOT
HETATM    1  O   UNK N   1      26.884  24.358  -2.989  0.00  0.00    -0.267 OA
HETATM    2  N   UNK N   1      28.528  25.192  -4.278  0.00  0.00    -0.323 N 
HETATM    3  C   UNK N   1      27.305  25.276  -3.679  0.00  0.00     0.260 C 
HETATM    4  H   UNK N   1      28.834  25.967  -4.801  0.00  0.00     0.169 HD
ENDROOT
BRANCH   2   5
HETATM    5  C   UNK N   1      29.395  24.060  -4.202  0.00  0.00     0.035 A 
HETATM    6  C   UNK N   1      29.253  23.019  -5.128  0.00  0.00     0.030 A 
HETATM    7  C   UNK N   1      30.137  21.932  -5.110  0.00  0.00     0.018 A 
HETATM    8  C   UNK N   1      31.164  21.871  -4.154  0.00  0.00     0.048 A 
HETATM    9  C   UNK N   1      31.284  22.894  -3.210  0.00  0.00     0.018 A 
HETATM   10  C   UNK N   1      30.413  23.978  -3.237  0.00  0.00     0.030 A 
BRANCH   8  11
HETATM   11  C   UNK N   1      32.156  20.745  -4.140  0.00  0.00     0.417 C 
HETATM   12  F   UNK N   1      33.032  20.901  -5.201  0.00  0.00    -0.166 F 
HETATM   13  F   UNK N   1      31.526  19.519  -4.261  0.00  0.00    -0.166 F 
HETATM   14  F   UNK N   1      32.872  20.770  -2.958  0.00  0.00    -0.166 F 
ENDBRANCH   8  11
ENDBRANCH   2   5
BRANCH   3  15
HETATM   15  C   UNK N   1      26.484  26.490  -3.828  0.00  0.00     0.081 A 
HETATM   16  C   UNK N   1      25.647  26.816  -4.874  0.00  0.00     0.089 A 
HETATM   17  O   UNK N   1      25.103  27.978  -4.618  0.00  0.00    -0.242 OA
HETATM   18  C   UNK N   1      25.378  26.016  -6.103  0.00  0.00     0.080 C 
HETATM   19  N   UNK N   1      25.522  28.442  -3.473  0.00  0.00    -0.271 N 
HETATM   20  C   UNK N   1      26.384  27.547  -2.944  0.00  0.00     0.134 A 
ATOM     21  HN  UNK N   1      25.246  29.329  -3.050  1.00  0.00     0.194 HD
ENDBRANCH   3  15
TORSDOF 3
ENDMDL
MODEL 5
REMARK VINA RESULT:      -6.1     16.700     18.426
REMARK  3 active torsions:
REMARK  status: ('A' for Active; 'I' for Inactive)
REMARK    1  A    between atoms: N_6  and  C_9 
REMARK       I    between atoms: N_6  and  C_16 
REMARK    2  A    between atoms: C_10  and  C_18 
REMARK    3  A    between atoms: C_11  and  C_16 
ROOT
HETATM    1  O   UNK N   1      34.212  12.694  15.151  0.00  0.00    -0.267 OA
HETATM    2  N   UNK N   1      36.334  13.438  15.085  0.00  0.00    -0.323 N 
HETATM    3  C   UNK N   1      35.220  13.029  15.757  0.00  0.00     0.260 C 
HETATM    4  H   UNK N   1      37.129  13.672  15.617  0.00  0.00     0.169 HD
ENDROOT
BRANCH   2   5
HETATM    5  C   UNK N   1      36.431  13.552  13.665  0.00  0.00     0.035 A 
HETATM    6  C   UNK N   1      36.004  14.730  13.038  0.00  0.00     0.030 A 
HETATM    7  C   UNK N   1      36.152  14.886  11.653  0.00  0.00     0.018 A 
HETATM    8  C   UNK N   1      36.717  13.858  10.882  0.00  0.00     0.048 A 
HETATM    9  C   UNK N   1      37.112  12.671  11.503  0.00  0.00     0.018 A 
HETATM   10  C   UNK N   1      36.975  12.522  12.880  0.00  0.00     0.030 A 
BRANCH   8  11
HETATM   11  C   UNK N   1      36.934  14.015   9.405  0.00  0.00     0.417 C 
HETATM   12  F   UNK N   1      38.249  14.386   9.178  0.00  0.00    -0.166 F 
HETATM   13  F   UNK N   1      36.101  14.984   8.875  0.00  0.00    -0.166 F 
HETATM   14  F   UNK N   1      36.690  12.812   8.768  0.00  0.00    -0.166 F 
ENDBRANCH   8  11
ENDBRANCH   2   5
BRANCH   3  15
HETATM   15  C   UNK N   1      35.223  12.954  17.229  0.00  0.00     0.081 A 
HETATM   16  C   UNK N   1      35.261  11.821  18.013  0.00  0.00     0.089 A 
HETATM   17  O   UNK N   1      35.252  12.190  19.268  0.00  0.00    -0.242 OA
HETATM   18  C   UNK N   1      35.306  10.403  17.556  0.00  0.00     0.080 C 
HETATM   19  N   UNK N   1      35.211  13.490  19.368  0.00  0.00    -0.271 N 
HETATM   20  C   UNK N   1      35.193  14.008  18.121  0.00  0.00     0.134 A 
ATOM     21  HN  UNK N   1      35.196  14.023  20.238  1.00  0.00     0.194 HD
ENDBRANCH   3  15
TORSDOF 3
ENDMDL
MODEL 6
REMARK VINA RESULT:      -6.0     15.870     17.324
REMARK  3 active torsions:
REMARK  status: ('A' for Active; 'I' for Inactive)
REMARK    1  A    between atoms: N_6  and  C_9 
REMARK       I    between atoms: N_6  and  C_16 
REMARK    2  A    between atoms: C_10  and  C_18 
REMARK    3  A    between atoms: C_11  and  C_16 
ROOT
HETATM    1  O   UNK N   1      27.128  24.038  -6.275  0.00  0.00    -0.267 OA
HETATM    2  N   UNK N   1      25.503  25.343  -7.123  0.00  0.00    -0.323 N 
HETATM    3  C   UNK N   1      26.180  24.161  -7.038  0.00  0.00     0.260 C 
HETATM    4  H   UNK N   1      24.732  25.385  -7.732  0.00  0.00     0.169 HD
ENDROOT
BRANCH   2   5
HETATM    5  C   UNK N   1      25.834  26.524  -6.391  0.00  0.00     0.035 A 
HETATM    6  C   UNK N   1      25.110  26.844  -5.236  0.00  0.00     0.030 A 
HETATM    7  C   UNK N   1      25.463  27.963  -4.469  0.00  0.00     0.018 A 
HETATM    8  C   UNK N   1      26.536  28.779  -4.860  0.00  0.00     0.048 A 
HETATM    9  C   UNK N   1      27.237  28.477  -6.031  0.00  0.00     0.018 A 
HETATM   10  C   UNK N   1      26.892  27.360  -6.785  0.00  0.00     0.030 A 
BRANCH   8  11
HETATM   11  C   UNK N   1      26.969  29.954  -4.034  0.00  0.00     0.417 C 
HETATM   12  F   UNK N   1      28.156  30.453  -4.543  0.00  0.00    -0.166 F 
HETATM   13  F   UNK N   1      27.170  29.593  -2.713  0.00  0.00    -0.166 F 
HETATM   14  F   UNK N   1      26.004  30.943  -4.090  0.00  0.00    -0.166 F 
ENDBRANCH   8  11
ENDBRANCH   2   5
BRANCH   3  15
HETATM   15  C   UNK N   1      25.760  23.003  -7.845  0.00  0.00     0.081 A 
HETATM   16  C   UNK N   1      25.889  22.835  -9.207  0.00  0.00     0.089 A 
HETATM   17  O   UNK N   1      25.393  21.667  -9.526  0.00  0.00    -0.242 OA
HETATM   18  C   UNK N   1      26.485  23.789 -10.186  0.00  0.00     0.080 C 
HETATM   19  N   UNK N   1      24.944  21.051  -8.468  0.00  0.00    -0.271 N 
HETATM   20  C   UNK N   1      25.153  21.846  -7.396  0.00  0.00     0.134 A 
ATOM     21  HN  UNK N   1      24.510  20.127  -8.452  1.00  0.00     0.194 HD
ENDBRANCH   3  15
TORSDOF 3
ENDMDL
MODEL 7
REMARK VINA RESULT:      -5.9      4.958      7.833
REMARK  3 active torsions:
REMARK  status: ('A' for Active; 'I' for Inactive)
REMARK    1  A    between atoms: N_6  and  C_9 
REMARK       I    between atoms: N_6  and  C_16 
REMARK    2  A    between atoms: C_10  and  C_18 
REMARK    3  A    between atoms: C_11  and  C_16 
ROOT
HETATM    1  O   UNK N   1      21.110  12.535   8.098  0.00  0.00    -0.267 OA
HETATM    2  N   UNK N   1      21.775  14.570   8.790  0.00  0.00    -0.323 N 
HETATM    3  C   UNK N   1      21.562  13.238   8.991  0.00  0.00     0.260 C 
HETATM    4  H   UNK N   1      22.165  15.088   9.531  0.00  0.00     0.169 HD
ENDROOT
BRANCH   2   5
HETATM    5  C   UNK N   1      21.472  15.269   7.582  0.00  0.00     0.035 A 
HETATM    6  C   UNK N   1      20.152  15.658   7.323  0.00  0.00     0.030 A 
HETATM    7  C   UNK N   1      19.847  16.402   6.175  0.00  0.00     0.018 A 
HETATM    8  C   UNK N   1      20.861  16.750   5.268  0.00  0.00     0.048 A 
HETATM    9  C   UNK N   1      22.172  16.333   5.510  0.00  0.00     0.018 A 
HETATM   10  C   UNK N   1      22.475  15.604   6.656  0.00  0.00     0.030 A 
BRANCH   8  11
HETATM   11  C   UNK N   1      20.575  17.587   4.056  0.00  0.00     0.417 C 
HETATM   12  F   UNK N   1      19.256  17.401   3.679  0.00  0.00    -0.166 F 
HETATM   13  F   UNK N   1      21.393  17.235   2.997  0.00  0.00    -0.166 F 
HETATM   14  F   UNK N   1      20.772  18.923   4.355  0.00  0.00    -0.166 F 
ENDBRANCH   8  11
ENDBRANCH   2   5
BRANCH   3  15
HETATM   15  C   UNK N   1      21.903  12.616  10.282  0.00  0.00     0.081 A 
HETATM   16  C   UNK N   1      23.158  12.320  10.768  0.00  0.00     0.089 A 
HETATM   17  O   UNK N   1      23.024  11.777  11.951  0.00  0.00    -0.242 OA
HETATM   18  C   UNK N   1      24.469  12.560  10.099  0.00  0.00     0.080 C 
HETATM   19  N   UNK N   1      21.765  11.693  12.281  0.00  0.00    -0.271 N 
HETATM   20  C   UNK N   1      21.029  12.205  11.271  0.00  0.00     0.134 A 
ATOM     21  HN  UNK N   1      21.399  11.308  13.152  1.00  0.00     0.194 HD
ENDBRANCH   3  15
TORSDOF 3
ENDMDL
MODEL 8
REMARK VINA RESULT:      -5.9     14.945     16.731
REMARK  3 active torsions:
REMARK  status: ('A' for Active; 'I' for Inactive)
REMARK    1  A    between atoms: N_6  and  C_9 
REMARK       I    between atoms: N_6  and  C_16 
REMARK    2  A    between atoms: C_10  and  C_18 
REMARK    3  A    between atoms: C_11  and  C_16 
ROOT
HETATM    1  O   UNK N   1      37.091  13.301  11.515  0.00  0.00    -0.267 OA
HETATM    2  N   UNK N   1      35.133  14.101  12.282  0.00  0.00    -0.323 N 
HETATM    3  C   UNK N   1      36.210  13.267  12.362  0.00  0.00     0.260 C 
HETATM    4  H   UNK N   1      34.464  14.054  13.002  0.00  0.00     0.169 HD
ENDROOT
BRANCH   2   5
HETATM    5  C   UNK N   1      34.906  15.037  11.227  0.00  0.00     0.035 A 
HETATM    6  C   UNK N   1      33.984  14.729  10.219  0.00  0.00     0.030 A 
HETATM    7  C   UNK N   1      33.700  15.663   9.213  0.00  0.00     0.018 A 
HETATM    8  C   UNK N   1      34.348  16.908   9.200  0.00  0.00     0.048 A 
HETATM    9  C   UNK N   1      35.292  17.201  10.187  0.00  0.00     0.018 A 
HETATM   10  C   UNK N   1      35.564  16.278  11.191  0.00  0.00     0.030 A 
BRANCH   8  11
HETATM   11  C   UNK N   1      34.028  17.947   8.165  0.00  0.00     0.417 C 
HETATM   12  F   UNK N   1      34.171  17.389   6.906  0.00  0.00    -0.166 F 
HETATM   13  F   UNK N   1      34.876  19.036   8.267  0.00  0.00    -0.166 F 
HETATM   14  F   UNK N   1      32.723  18.375   8.322  0.00  0.00    -0.166 F 
ENDBRANCH   8  11
ENDBRANCH   2   5
BRANCH   3  15
HETATM   15  C   UNK N   1      36.344  12.331  13.491  0.00  0.00     0.081 A 
HETATM   16  C   UNK N   1      36.652  12.631  14.801  0.00  0.00     0.089 A 
HETATM   17  O   UNK N   1      36.671  11.516  15.485  0.00  0.00    -0.242 OA
HETATM   18  C   UNK N   1      36.923  13.977  15.383  0.00  0.00     0.080 C 
HETATM   19  N   UNK N   1      36.396  10.498  14.717  0.00  0.00    -0.271 N 
HETATM   20  C   UNK N   1      36.185  10.959  13.465  0.00  0.00     0.134 A 
ATOM     21  HN  UNK N   1      36.349   9.522  15.011  1.00  0.00     0.194 HD
ENDBRANCH   3  15
TORSDOF 3
ENDMDL
MODEL 9
REMARK VINA RESULT:      -5.8     14.882     16.205
REMARK  3 active torsions:
REMARK  status: ('A' for Active; 'I' for Inactive)
REMARK    1  A    between atoms: N_6  and  C_9 
REMARK       I    between atoms: N_6  and  C_16 
REMARK    2  A    between atoms: C_10  and  C_18 
REMARK    3  A    between atoms: C_11  and  C_16 
ROOT
HETATM    1  O   UNK N   1      30.730  24.067  -4.698  0.00  0.00    -0.267 OA
HETATM    2  N   UNK N   1      28.812  22.922  -4.428  0.00  0.00    -0.323 N 
HETATM    3  C   UNK N   1      30.172  22.995  -4.508  0.00  0.00     0.260 C 
HETATM    4  H   UNK N   1      28.412  22.041  -4.247  0.00  0.00     0.169 HD
ENDROOT
BRANCH   2   5
HETATM    5  C   UNK N   1      27.927  24.032  -4.587  0.00  0.00     0.035 A 
HETATM    6  C   UNK N   1      27.384  24.649  -3.453  0.00  0.00     0.030 A 
HETATM    7  C   UNK N   1      26.567  25.779  -3.588  0.00  0.00     0.018 A 
HETATM    8  C   UNK N   1      26.275  26.293  -4.861  0.00  0.00     0.048 A 
HETATM    9  C   UNK N   1      26.789  25.658  -5.993  0.00  0.00     0.018 A 
HETATM   10  C   UNK N   1      27.610  24.542  -5.857  0.00  0.00     0.030 A 
BRANCH   8  11
HETATM   11  C   UNK N   1      25.443  27.531  -5.035  0.00  0.00     0.417 C 
HETATM   12  F   UNK N   1      25.137  28.049  -3.788  0.00  0.00    -0.166 F 
HETATM   13  F   UNK N   1      24.264  27.254  -5.702  0.00  0.00    -0.166 F 
HETATM   14  F   UNK N   1      26.157  28.474  -5.751  0.00  0.00    -0.166 F 
ENDBRANCH   8  11
ENDBRANCH   2   5
BRANCH   3  15
HETATM   15  C   UNK N   1      30.995  21.786  -4.336  0.00  0.00     0.081 A 
HETATM   16  C   UNK N   1      31.062  20.688  -5.167  0.00  0.00     0.089 A 
HETATM   17  O   UNK N   1      31.912  19.836  -4.655  0.00  0.00    -0.242 OA
HETATM   18  C   UNK N   1      30.315  20.467  -6.439  0.00  0.00     0.080 C 
HETATM   19  N   UNK N   1      32.413  20.295  -3.542  0.00  0.00    -0.271 N 
HETATM   20  C   UNK N   1      31.870  21.508  -3.303  0.00  0.00     0.134 A 
ATOM     21  HN  UNK N   1      33.097  19.819  -2.952  1.00  0.00     0.194 HD
ENDBRANCH   3  15
TORSDOF 3
ENDMDL
