MODEL 1
REMARK VINA RESULT:      -7.1      0.000      0.000
REMARK  9 active torsions:
REMARK  status: ('A' for Active; 'I' for Inactive)
REMARK    1  A    between atoms: C_12  and  O_3 
REMARK    2  A    between atoms: C_13  and  O_4 
REMARK    3  A    between atoms: O_6  and  C_24 
REMARK    4  A    between atoms: O_6  and  C_25 
REMARK    5  A    between atoms: C_14  and  N_8 
REMARK    6  A    between atoms: N_11  and  C_20 
REMARK       I    between atoms: N_11  and  C_25 
REMARK    7  A    between atoms: C_21  and  C_22 
REMARK    8  A    between atoms: C_21  and  C_23 
REMARK    9  A    between atoms: C_22  and  C_24 
ROOT
HETATM    1  F   UNK N   1      35.129  12.444  10.593  0.00  0.00    -0.201 F 
HETATM    2  O   UNK N   1      35.762  17.733  10.529  0.00  0.00    -0.246 OA
HETATM    3  N   UNK N   1      34.714  15.933   9.632  0.00  0.00    -0.277 N 
HETATM    4  N   UNK N   1      36.338  15.760  11.369  0.00  0.00    -0.292 N 
ATOM      5  HN  UNK N   1      37.002  16.216  11.995  1.00  0.00     0.172 HD
HETATM    6  C   UNK N   1      34.580  14.571   9.656  0.00  0.00     0.144 A 
HETATM    7  C   UNK N   1      35.614  16.527  10.503  0.00  0.00     0.330 A 
HETATM    8  C   UNK N   1      35.319  13.786  10.548  0.00  0.00     0.176 A 
HETATM    9  C   UNK N   1      36.204  14.413  11.424  0.00  0.00     0.154 A 
ENDROOT
BRANCH   3  10
HETATM   10  C   UNK N   1      33.800  16.725   8.768  0.00  0.00     0.263 C 
HETATM   11  O   UNK N   1      32.698  15.953   8.317  0.00  0.00    -0.356 OA
HETATM   12  C   UNK N   1      32.518  16.289   6.959  0.00  0.00     0.151 C 
HETATM   13  C   UNK N   1      33.211  17.602   6.738  0.00  0.00     0.179 C 
HETATM   14  C   UNK N   1      31.043  16.434   6.639  0.00  0.00     0.042 C 
HETATM   15  C   UNK N   1      34.430  17.393   7.552  0.00  0.00     0.198 C 
BRANCH  13  16
HETATM   16  O   UNK N   1      33.523  17.816   5.395  0.00  0.00    -0.390 OA
HETATM   17  H   UNK N   1      33.226  17.444   4.551  0.00  0.00     0.210 HD
ENDBRANCH  13  16
BRANCH  15  18
HETATM   18  O   UNK N   1      34.960  18.643   7.877  0.00  0.00    -0.388 OA
HETATM   19  H   UNK N   1      35.776  19.063   7.563  0.00  0.00     0.210 HD
ENDBRANCH  15  18
ENDBRANCH   3  10
BRANCH   9  20
HETATM   20  N   UNK N   1      36.903  13.655  12.412  0.00  0.00    -0.286 N 
HETATM   21  C   UNK N   1      36.404  13.387  13.653  0.00  0.00     0.366 C 
HETATM   22  O   UNK N   1      35.318  13.836  13.999  0.00  0.00    -0.238 OA
HETATM   23  H   UNK N   1      37.794  13.305  12.185  0.00  0.00     0.172 HD
BRANCH  21  24
HETATM   24  O   UNK N   1      37.083  12.559  14.484  0.00  0.00    -0.304 OA
BRANCH  24  25
HETATM   25  C   UNK N   1      36.437  11.923  15.522  0.00  0.00     0.180 C 
BRANCH  25  26
HETATM   26  C   UNK N   1      36.053  10.505  15.162  0.00  0.00     0.027 C 
BRANCH  26  27
HETATM   27  C   UNK N   1      34.631  10.283  15.638  0.00  0.00     0.002 C 
BRANCH  27  28
HETATM   28  C   UNK N   1      33.641  10.872  14.657  0.00  0.00    -0.004 C 
HETATM   29  C   UNK N   1      33.988  10.400  13.260  0.00  0.00     0.005 C 
ENDBRANCH  27  28
ENDBRANCH  26  27
ENDBRANCH  25  26
ENDBRANCH  24  25
ENDBRANCH  21  24
ENDBRANCH   9  20
TORSDOF 9
ENDMDL
MODEL 2
REMARK VINA RESULT:      -6.7      1.055      1.605
REMARK  9 active torsions:
REMARK  status: ('A' for Active; 'I' for Inactive)
REMARK    1  A    between atoms: C_12  and  O_3 
REMARK    2  A    between atoms: C_13  and  O_4 
REMARK    3  A    between atoms: O_6  and  C_24 
REMARK    4  A    between atoms: O_6  and  C_25 
REMARK    5  A    between atoms: C_14  and  N_8 
REMARK    6  A    between atoms: N_11  and  C_20 
REMARK       I    between atoms: N_11  and  C_25 
REMARK    7  A    between atoms: C_21  and  C_22 
REMARK    8  A    between atoms: C_21  and  C_23 
REMARK    9  A    between atoms: C_22  and  C_24 
ROOT
HETATM    1  F   UNK N   1      34.880  12.326  10.422  0.00  0.00    -0.201 F 
HETATM    2  O   UNK N   1      35.776  17.577  10.499  0.00  0.00    -0.246 OA
HETATM    3  N   UNK N   1      34.623  15.859   9.570  0.00  0.00    -0.277 N 
HETATM    4  N   UNK N   1      36.266  15.554  11.271  0.00  0.00    -0.292 N 
ATOM      5  HN  UNK N   1      36.963  15.957  11.898  1.00  0.00     0.172 HD
HETATM    6  C   UNK N   1      34.422  14.505   9.557  0.00  0.00     0.144 A 
HETATM    7  C   UNK N   1      35.567  16.382  10.441  0.00  0.00     0.330 A 
HETATM    8  C   UNK N   1      35.135  13.658  10.412  0.00  0.00     0.176 A 
HETATM    9  C   UNK N   1      36.066  14.214  11.289  0.00  0.00     0.154 A 
ENDROOT
BRANCH   3  10
HETATM   10  C   UNK N   1      33.736  16.720   8.746  0.00  0.00     0.263 C 
HETATM   11  O   UNK N   1      32.580  16.023   8.307  0.00  0.00    -0.356 OA
HETATM   12  C   UNK N   1      32.387  16.398   6.962  0.00  0.00     0.151 C 
HETATM   13  C   UNK N   1      33.149  17.675   6.750  0.00  0.00     0.179 C 
HETATM   14  C   UNK N   1      30.915  16.635   6.683  0.00  0.00     0.042 C 
HETATM   15  C   UNK N   1      34.374  17.378   7.529  0.00  0.00     0.198 C 
BRANCH  13  16
HETATM   16  O   UNK N   1      33.439  17.900   5.405  0.00  0.00    -0.390 OA
HETATM   17  H   UNK N   1      34.127  17.605   4.789  0.00  0.00     0.210 HD
ENDBRANCH  13  16
BRANCH  15  18
HETATM   18  O   UNK N   1      34.982  18.589   7.866  0.00  0.00    -0.388 OA
HETATM   19  H   UNK N   1      35.385  18.858   8.706  0.00  0.00     0.210 HD
ENDBRANCH  15  18
ENDBRANCH   3  10
BRANCH   9  20
HETATM   20  N   UNK N   1      36.742  13.393  12.241  0.00  0.00    -0.286 N 
HETATM   21  C   UNK N   1      36.315  13.213  13.524  0.00  0.00     0.366 C 
HETATM   22  O   UNK N   1      35.323  13.800  13.940  0.00  0.00    -0.238 OA
HETATM   23  H   UNK N   1      37.563  12.931  11.957  0.00  0.00     0.172 HD
BRANCH  21  24
HETATM   24  O   UNK N   1      36.951  12.322  14.324  0.00  0.00    -0.304 OA
BRANCH  24  25
HETATM   25  C   UNK N   1      36.292  11.206  14.794  0.00  0.00     0.180 C 
BRANCH  25  26
HETATM   26  C   UNK N   1      36.283  11.154  16.306  0.00  0.00     0.027 C 
BRANCH  26  27
HETATM   27  C   UNK N   1      35.083  11.949  16.782  0.00  0.00     0.002 C 
BRANCH  27  28
HETATM   28  C   UNK N   1      35.293  12.435  18.200  0.00  0.00    -0.004 C 
HETATM   29  C   UNK N   1      35.209  13.947  18.221  0.00  0.00     0.005 C 
ENDBRANCH  27  28
ENDBRANCH  26  27
ENDBRANCH  25  26
ENDBRANCH  24  25
ENDBRANCH  21  24
ENDBRANCH   9  20
TORSDOF 9
ENDMDL
MODEL 3
REMARK VINA RESULT:      -6.4      2.109      3.161
REMARK  9 active torsions:
REMARK  status: ('A' for Active; 'I' for Inactive)
REMARK    1  A    between atoms: C_12  and  O_3 
REMARK    2  A    between atoms: C_13  and  O_4 
REMARK    3  A    between atoms: O_6  and  C_24 
REMARK    4  A    between atoms: O_6  and  C_25 
REMARK    5  A    between atoms: C_14  and  N_8 
REMARK    6  A    between atoms: N_11  and  C_20 
REMARK       I    between atoms: N_11  and  C_25 
REMARK    7  A    between atoms: C_21  and  C_22 
REMARK    8  A    between atoms: C_21  and  C_23 
REMARK    9  A    between atoms: C_22  and  C_24 
ROOT
HETATM    1  F   UNK N   1      32.364  13.176   9.035  0.00  0.00    -0.201 F 
HETATM    2  O   UNK N   1      33.677  18.326   8.657  0.00  0.00    -0.246 OA
HETATM    3  N   UNK N   1      32.629  16.556   7.701  0.00  0.00    -0.277 N 
HETATM    4  N   UNK N   1      33.790  16.414   9.779  0.00  0.00    -0.292 N 
ATOM      5  HN  UNK N   1      34.352  16.865  10.501  1.00  0.00     0.172 HD
HETATM    6  C   UNK N   1      32.318  15.227   7.813  0.00  0.00     0.144 A 
HETATM    7  C   UNK N   1      33.383  17.148   8.703  0.00  0.00     0.330 A 
HETATM    8  C   UNK N   1      32.731  14.477   8.918  0.00  0.00     0.176 A 
HETATM    9  C   UNK N   1      33.474  15.104   9.919  0.00  0.00     0.154 A 
ENDROOT
BRANCH   3  10
HETATM   10  C   UNK N   1      32.042  17.335   6.580  0.00  0.00     0.263 C 
HETATM   11  O   UNK N   1      30.648  17.100   6.446  0.00  0.00    -0.356 OA
HETATM   12  C   UNK N   1      30.406  16.984   5.062  0.00  0.00     0.151 C 
HETATM   13  C   UNK N   1      31.570  17.618   4.359  0.00  0.00     0.179 C 
HETATM   14  C   UNK N   1      29.129  17.710   4.684  0.00  0.00     0.042 C 
HETATM   15  C   UNK N   1      32.682  17.138   5.212  0.00  0.00     0.198 C 
BRANCH  13  16
HETATM   16  O   UNK N   1      31.703  17.170   3.045  0.00  0.00    -0.390 OA
HETATM   17  H   UNK N   1      31.821  17.593   2.181  0.00  0.00     0.210 HD
ENDBRANCH  13  16
BRANCH  15  18
HETATM   18  O   UNK N   1      33.772  17.992   5.033  0.00  0.00    -0.388 OA
HETATM   19  H   UNK N   1      34.250  18.212   4.218  0.00  0.00     0.210 HD
ENDBRANCH  15  18
ENDBRANCH   3  10
BRANCH   9  20
HETATM   20  N   UNK N   1      33.830  14.394  11.106  0.00  0.00    -0.286 N 
HETATM   21  C   UNK N   1      35.016  14.560  11.759  0.00  0.00     0.366 C 
HETATM   22  O   UNK N   1      35.870  15.320  11.319  0.00  0.00    -0.238 OA
HETATM   23  H   UNK N   1      33.185  13.748  11.473  0.00  0.00     0.172 HD
BRANCH  21  24
HETATM   24  O   UNK N   1      35.223  13.934  12.944  0.00  0.00    -0.304 OA
BRANCH  24  25
HETATM   25  C   UNK N   1      36.447  14.007  13.572  0.00  0.00     0.180 C 
BRANCH  25  26
HETATM   26  C   UNK N   1      36.320  13.856  15.072  0.00  0.00     0.027 C 
BRANCH  26  27
HETATM   27  C   UNK N   1      35.108  12.985  15.342  0.00  0.00     0.002 C 
BRANCH  27  28
HETATM   28  C   UNK N   1      35.097  12.515  16.780  0.00  0.00    -0.004 C 
HETATM   29  C   UNK N   1      35.187  13.719  17.694  0.00  0.00     0.005 C 
ENDBRANCH  27  28
ENDBRANCH  26  27
ENDBRANCH  25  26
ENDBRANCH  24  25
ENDBRANCH  21  24
ENDBRANCH   9  20
TORSDOF 9
ENDMDL
MODEL 4
REMARK VINA RESULT:      -6.2      9.155     12.661
REMARK  9 active torsions:
REMARK  status: ('A' for Active; 'I' for Inactive)
REMARK    1  A    between atoms: C_12  and  O_3 
REMARK    2  A    between atoms: C_13  and  O_4 
REMARK    3  A    between atoms: O_6  and  C_24 
REMARK    4  A    between atoms: O_6  and  C_25 
REMARK    5  A    between atoms: C_14  and  N_8 
REMARK    6  A    between atoms: N_11  and  C_20 
REMARK       I    between atoms: N_11  and  C_25 
REMARK    7  A    between atoms: C_21  and  C_22 
REMARK    8  A    between atoms: C_21  and  C_23 
REMARK    9  A    between atoms: C_22  and  C_24 
ROOT
HETATM    1  F   UNK N   1      26.951  20.550   2.749  0.00  0.00    -0.201 F 
HETATM    2  O   UNK N   1      23.308  17.661   5.352  0.00  0.00    -0.246 OA
HETATM    3  N   UNK N   1      23.707  19.372   3.918  0.00  0.00    -0.277 N 
HETATM    4  N   UNK N   1      25.445  18.094   4.933  0.00  0.00    -0.292 N 
ATOM      5  HN  UNK N   1      25.726  17.346   5.568  1.00  0.00     0.172 HD
HETATM    6  C   UNK N   1      24.662  20.111   3.272  0.00  0.00     0.144 A 
HETATM    7  C   UNK N   1      24.116  18.353   4.764  0.00  0.00     0.330 A 
HETATM    8  C   UNK N   1      26.024  19.841   3.442  0.00  0.00     0.176 A 
HETATM    9  C   UNK N   1      26.405  18.799   4.286  0.00  0.00     0.154 A 
ENDROOT
BRANCH   3  10
HETATM   10  C   UNK N   1      22.278  19.609   3.587  0.00  0.00     0.263 C 
HETATM   11  O   UNK N   1      21.589  18.396   3.320  0.00  0.00    -0.356 OA
HETATM   12  C   UNK N   1      20.768  18.655   2.203  0.00  0.00     0.151 C 
HETATM   13  C   UNK N   1      20.619  20.146   2.105  0.00  0.00     0.179 C 
HETATM   14  C   UNK N   1      19.403  18.020   2.389  0.00  0.00     0.042 C 
HETATM   15  C   UNK N   1      21.999  20.567   2.436  0.00  0.00     0.198 C 
BRANCH  13  16
HETATM   16  O   UNK N   1      20.251  20.557   0.824  0.00  0.00    -0.390 OA
HETATM   17  H   UNK N   1      20.430  20.249  -0.077  0.00  0.00     0.210 HD
ENDBRANCH  13  16
BRANCH  15  18
HETATM   18  O   UNK N   1      21.959  21.892   2.876  0.00  0.00    -0.388 OA
HETATM   19  H   UNK N   1      22.559  22.353   3.483  0.00  0.00     0.210 HD
ENDBRANCH  15  18
ENDBRANCH   3  10
BRANCH   9  20
HETATM   20  N   UNK N   1      27.780  18.434   4.409  0.00  0.00    -0.286 N 
HETATM   21  C   UNK N   1      28.412  18.257   5.605  0.00  0.00     0.366 C 
HETATM   22  O   UNK N   1      27.818  18.450   6.659  0.00  0.00    -0.238 OA
HETATM   23  H   UNK N   1      28.302  18.304   3.585  0.00  0.00     0.172 HD
BRANCH  21  24
HETATM   24  O   UNK N   1      29.686  17.795   5.628  0.00  0.00    -0.304 OA
BRANCH  24  25
HETATM   25  C   UNK N   1      30.096  16.915   6.607  0.00  0.00     0.180 C 
BRANCH  25  26
HETATM   26  C   UNK N   1      31.516  17.189   7.050  0.00  0.00     0.027 C 
BRANCH  26  27
HETATM   27  C   UNK N   1      31.459  17.687   8.481  0.00  0.00     0.002 C 
BRANCH  27  28
HETATM   28  C   UNK N   1      30.105  17.402   9.094  0.00  0.00    -0.004 C 
HETATM   29  C   UNK N   1      29.607  18.649   9.794  0.00  0.00     0.005 C 
ENDBRANCH  27  28
ENDBRANCH  26  27
ENDBRANCH  25  26
ENDBRANCH  24  25
ENDBRANCH  21  24
ENDBRANCH   9  20
TORSDOF 9
ENDMDL
MODEL 5
REMARK VINA RESULT:      -6.2      3.912      6.179
REMARK  9 active torsions:
REMARK  status: ('A' for Active; 'I' for Inactive)
REMARK    1  A    between atoms: C_12  and  O_3 
REMARK    2  A    between atoms: C_13  and  O_4 
REMARK    3  A    between atoms: O_6  and  C_24 
REMARK    4  A    between atoms: O_6  and  C_25 
REMARK    5  A    between atoms: C_14  and  N_8 
REMARK    6  A    between atoms: N_11  and  C_20 
REMARK       I    between atoms: N_11  and  C_25 
REMARK    7  A    between atoms: C_21  and  C_22 
REMARK    8  A    between atoms: C_21  and  C_23 
REMARK    9  A    between atoms: C_22  and  C_24 
ROOT
HETATM    1  F   UNK N   1      32.581  16.062   6.363  0.00  0.00    -0.201 F 
HETATM    2  O   UNK N   1      29.066  18.614   9.447  0.00  0.00    -0.246 OA
HETATM    3  N   UNK N   1      29.538  17.780   7.391  0.00  0.00    -0.277 N 
HETATM    4  N   UNK N   1      31.066  17.678   9.219  0.00  0.00    -0.292 N 
ATOM      5  HN  UNK N   1      31.285  17.898  10.191  1.00  0.00     0.172 HD
HETATM    6  C   UNK N   1      30.463  17.137   6.614  0.00  0.00     0.144 A 
HETATM    7  C   UNK N   1      29.856  18.055   8.712  0.00  0.00     0.330 A 
HETATM    8  C   UNK N   1      31.701  16.747   7.135  0.00  0.00     0.176 A 
HETATM    9  C   UNK N   1      31.987  17.022   8.473  0.00  0.00     0.154 A 
ENDROOT
BRANCH   3  10
HETATM   10  C   UNK N   1      28.188  18.040   6.826  0.00  0.00     0.263 C 
HETATM   11  O   UNK N   1      28.036  17.468   5.536  0.00  0.00    -0.356 OA
HETATM   12  C   UNK N   1      27.358  18.431   4.761  0.00  0.00     0.151 C 
HETATM   13  C   UNK N   1      26.695  19.377   5.721  0.00  0.00     0.179 C 
HETATM   14  C   UNK N   1      26.305  17.769   3.893  0.00  0.00     0.042 C 
HETATM   15  C   UNK N   1      27.761  19.500   6.742  0.00  0.00     0.198 C 
BRANCH  13  16
HETATM   16  O   UNK N   1      26.404  20.608   5.134  0.00  0.00    -0.390 OA
HETATM   17  H   UNK N   1      26.672  21.066   4.322  0.00  0.00     0.210 HD
ENDBRANCH  13  16
BRANCH  15  18
HETATM   18  O   UNK N   1      27.177  19.929   7.935  0.00  0.00    -0.388 OA
HETATM   19  H   UNK N   1      26.239  20.069   8.142  0.00  0.00     0.210 HD
ENDBRANCH  15  18
ENDBRANCH   3  10
BRANCH   9  20
HETATM   20  N   UNK N   1      33.200  16.554   9.063  0.00  0.00    -0.286 N 
HETATM   21  C   UNK N   1      34.353  17.280   9.099  0.00  0.00     0.366 C 
HETATM   22  O   UNK N   1      34.411  18.385   8.573  0.00  0.00    -0.238 OA
HETATM   23  H   UNK N   1      33.204  15.656   9.467  0.00  0.00     0.172 HD
BRANCH  21  24
HETATM   24  O   UNK N   1      35.423  16.807   9.785  0.00  0.00    -0.304 OA
BRANCH  24  25
HETATM   25  C   UNK N   1      35.331  16.545  11.135  0.00  0.00     0.180 C 
BRANCH  25  26
HETATM   26  C   UNK N   1      36.036  15.261  11.508  0.00  0.00     0.027 C 
BRANCH  26  27
HETATM   27  C   UNK N   1      34.973  14.200  11.717  0.00  0.00     0.002 C 
BRANCH  27  28
HETATM   28  C   UNK N   1      35.225  13.434  12.997  0.00  0.00    -0.004 C 
HETATM   29  C   UNK N   1      36.413  14.044  13.711  0.00  0.00     0.005 C 
ENDBRANCH  27  28
ENDBRANCH  26  27
ENDBRANCH  25  26
ENDBRANCH  24  25
ENDBRANCH  21  24
ENDBRANCH   9  20
TORSDOF 9
ENDMDL
MODEL 6
REMARK VINA RESULT:      -6.0      3.156      8.501
REMARK  9 active torsions:
REMARK  status: ('A' for Active; 'I' for Inactive)
REMARK    1  A    between atoms: C_12  and  O_3 
REMARK    2  A    between atoms: C_13  and  O_4 
REMARK    3  A    between atoms: O_6  and  C_24 
REMARK    4  A    between atoms: O_6  and  C_25 
REMARK    5  A    between atoms: C_14  and  N_8 
REMARK    6  A    between atoms: N_11  and  C_20 
REMARK       I    between atoms: N_11  and  C_25 
REMARK    7  A    between atoms: C_21  and  C_22 
REMARK    8  A    between atoms: C_21  and  C_23 
REMARK    9  A    between atoms: C_22  and  C_24 
ROOT
HETATM    1  F   UNK N   1      32.308  14.415   7.534  0.00  0.00    -0.201 F 
HETATM    2  O   UNK N   1      35.562  17.535  10.372  0.00  0.00    -0.246 OA
HETATM    3  N   UNK N   1      35.131  15.450   9.590  0.00  0.00    -0.277 N 
HETATM    4  N   UNK N   1      33.697  17.313   9.188  0.00  0.00    -0.292 N 
ATOM      5  HN  UNK N   1      33.486  18.301   9.326  1.00  0.00     0.172 HD
HETATM    6  C   UNK N   1      34.271  14.665   8.870  0.00  0.00     0.144 A 
HETATM    7  C   UNK N   1      34.827  16.793   9.751  0.00  0.00     0.330 A 
HETATM    8  C   UNK N   1      33.116  15.199   8.290  0.00  0.00     0.176 A 
HETATM    9  C   UNK N   1      32.845  16.558   8.454  0.00  0.00     0.154 A 
ENDROOT
BRANCH   3  10
HETATM   10  C   UNK N   1      36.412  14.862  10.060  0.00  0.00     0.263 C 
HETATM   11  O   UNK N   1      37.008  14.036   9.071  0.00  0.00    -0.356 OA
HETATM   12  C   UNK N   1      37.487  12.899   9.752  0.00  0.00     0.151 C 
HETATM   13  C   UNK N   1      37.594  13.270  11.203  0.00  0.00     0.179 C 
HETATM   14  C   UNK N   1      38.855  12.503   9.228  0.00  0.00     0.042 C 
HETATM   15  C   UNK N   1      36.355  14.067  11.358  0.00  0.00     0.198 C 
BRANCH  13  16
HETATM   16  O   UNK N   1      37.591  12.152  12.036  0.00  0.00    -0.390 OA
HETATM   17  H   UNK N   1      37.580  11.192  11.902  0.00  0.00     0.210 HD
ENDBRANCH  13  16
BRANCH  15  18
HETATM   18  O   UNK N   1      36.506  14.898  12.470  0.00  0.00    -0.388 OA
HETATM   19  H   UNK N   1      37.317  15.270  12.850  0.00  0.00     0.210 HD
ENDBRANCH  15  18
ENDBRANCH   3  10
BRANCH   9  20
HETATM   20  N   UNK N   1      31.728  17.156   7.796  0.00  0.00    -0.286 N 
HETATM   21  C   UNK N   1      30.505  17.318   8.378  0.00  0.00     0.366 C 
HETATM   22  O   UNK N   1      30.295  16.907   9.513  0.00  0.00    -0.238 OA
HETATM   23  H   UNK N   1      31.845  17.469   6.870  0.00  0.00     0.172 HD
BRANCH  21  24
HETATM   24  O   UNK N   1      29.536  18.004   7.724  0.00  0.00    -0.304 OA
BRANCH  24  25
HETATM   25  C   UNK N   1      29.004  17.517   6.549  0.00  0.00     0.180 C 
BRANCH  25  26
HETATM   26  C   UNK N   1      27.774  18.289   6.126  0.00  0.00     0.027 C 
BRANCH  26  27
HETATM   27  C   UNK N   1      27.775  19.601   6.887  0.00  0.00     0.002 C 
BRANCH  27  28
HETATM   28  C   UNK N   1      27.577  20.767   5.943  0.00  0.00    -0.004 C 
HETATM   29  C   UNK N   1      26.540  21.705   6.526  0.00  0.00     0.005 C 
ENDBRANCH  27  28
ENDBRANCH  26  27
ENDBRANCH  25  26
ENDBRANCH  24  25
ENDBRANCH  21  24
ENDBRANCH   9  20
TORSDOF 9
ENDMDL
MODEL 7
REMARK VINA RESULT:      -6.0      3.797      9.201
REMARK  9 active torsions:
REMARK  status: ('A' for Active; 'I' for Inactive)
REMARK    1  A    between atoms: C_12  and  O_3 
REMARK    2  A    between atoms: C_13  and  O_4 
REMARK    3  A    between atoms: O_6  and  C_24 
REMARK    4  A    between atoms: O_6  and  C_25 
REMARK    5  A    between atoms: C_14  and  N_8 
REMARK    6  A    between atoms: N_11  and  C_20 
REMARK       I    between atoms: N_11  and  C_25 
REMARK    7  A    between atoms: C_21  and  C_22 
REMARK    8  A    between atoms: C_21  and  C_23 
REMARK    9  A    between atoms: C_22  and  C_24 
ROOT
HETATM    1  F   UNK N   1      32.620  18.753   8.175  0.00  0.00    -0.201 F 
HETATM    2  O   UNK N   1      32.510  13.426   8.158  0.00  0.00    -0.246 OA
HETATM    3  N   UNK N   1      33.541  15.304   8.903  0.00  0.00    -0.277 N 
HETATM    4  N   UNK N   1      31.661  15.347   7.438  0.00  0.00    -0.292 N 
ATOM      5  HN  UNK N   1      30.964  14.839   6.892  1.00  0.00     0.172 HD
HETATM    6  C   UNK N   1      33.559  16.673   8.879  0.00  0.00     0.144 A 
HETATM    7  C   UNK N   1      32.576  14.640   8.162  0.00  0.00     0.330 A 
HETATM    8  C   UNK N   1      32.618  17.397   8.140  0.00  0.00     0.176 A 
HETATM    9  C   UNK N   1      31.647  16.701   7.418  0.00  0.00     0.154 A 
ENDROOT
BRANCH   3  10
HETATM   10  C   UNK N   1      34.472  14.594   9.818  0.00  0.00     0.263 C 
HETATM   11  O   UNK N   1      34.525  15.205  11.097  0.00  0.00    -0.356 OA
HETATM   12  C   UNK N   1      35.885  15.210  11.470  0.00  0.00     0.151 C 
HETATM   13  C   UNK N   1      36.574  14.180  10.623  0.00  0.00     0.179 C 
HETATM   14  C   UNK N   1      36.035  14.845  12.935  0.00  0.00     0.042 C 
HETATM   15  C   UNK N   1      35.903  14.421   9.325  0.00  0.00     0.198 C 
BRANCH  13  16
HETATM   16  O   UNK N   1      37.949  14.400  10.538  0.00  0.00    -0.390 OA
HETATM   17  H   UNK N   1      38.698  14.329  11.149  0.00  0.00     0.210 HD
ENDBRANCH  13  16
BRANCH  15  18
HETATM   18  O   UNK N   1      36.036  13.271   8.544  0.00  0.00    -0.388 OA
HETATM   19  H   UNK N   1      35.924  12.342   8.799  0.00  0.00     0.210 HD
ENDBRANCH  15  18
ENDBRANCH   3  10
BRANCH   9  20
HETATM   20  N   UNK N   1      30.614  17.407   6.731  0.00  0.00    -0.286 N 
HETATM   21  C   UNK N   1      29.368  17.616   7.246  0.00  0.00     0.366 C 
HETATM   22  O   UNK N   1      29.061  17.156   8.340  0.00  0.00    -0.238 OA
HETATM   23  H   UNK N   1      30.810  17.763   5.834  0.00  0.00     0.172 HD
BRANCH  21  24
HETATM   24  O   UNK N   1      28.488  18.399   6.576  0.00  0.00    -0.304 OA
BRANCH  24  25
HETATM   25  C   UNK N   1      27.914  19.492   7.188  0.00  0.00     0.180 C 
BRANCH  25  26
HETATM   26  C   UNK N   1      27.417  20.505   6.180  0.00  0.00     0.027 C 
BRANCH  26  27
HETATM   27  C   UNK N   1      27.927  20.080   4.817  0.00  0.00     0.002 C 
BRANCH  27  28
HETATM   28  C   UNK N   1      26.843  20.224   3.772  0.00  0.00    -0.004 C 
HETATM   29  C   UNK N   1      26.027  18.948   3.726  0.00  0.00     0.005 C 
ENDBRANCH  27  28
ENDBRANCH  26  27
ENDBRANCH  25  26
ENDBRANCH  24  25
ENDBRANCH  21  24
ENDBRANCH   9  20
TORSDOF 9
ENDMDL
MODEL 8
REMARK VINA RESULT:      -5.9      2.129      8.324
REMARK  9 active torsions:
REMARK  status: ('A' for Active; 'I' for Inactive)
REMARK    1  A    between atoms: C_12  and  O_3 
REMARK    2  A    between atoms: C_13  and  O_4 
REMARK    3  A    between atoms: O_6  and  C_24 
REMARK    4  A    between atoms: O_6  and  C_25 
REMARK    5  A    between atoms: C_14  and  N_8 
REMARK    6  A    between atoms: N_11  and  C_20 
REMARK       I    between atoms: N_11  and  C_25 
REMARK    7  A    between atoms: C_21  and  C_22 
REMARK    8  A    between atoms: C_21  and  C_23 
REMARK    9  A    between atoms: C_22  and  C_24 
ROOT
HETATM    1  F   UNK N   1      34.480  12.878  10.020  0.00  0.00    -0.201 F 
HETATM    2  O   UNK N   1      36.747  14.266  14.637  0.00  0.00    -0.246 OA
HETATM    3  N   UNK N   1      36.296  12.600  13.166  0.00  0.00    -0.277 N 
HETATM    4  N   UNK N   1      35.561  14.847  12.852  0.00  0.00    -0.292 N 
ATOM      5  HN  UNK N   1      35.507  15.807  13.194  1.00  0.00     0.172 HD
HETATM    6  C   UNK N   1      35.692  12.264  11.984  0.00  0.00     0.144 A 
HETATM    7  C   UNK N   1      36.219  13.914  13.601  0.00  0.00     0.330 A 
HETATM    8  C   UNK N   1      35.023  13.222  11.215  0.00  0.00     0.176 A 
HETATM    9  C   UNK N   1      34.976  14.540  11.669  0.00  0.00     0.154 A 
ENDROOT
BRANCH   3  10
HETATM   10  C   UNK N   1      37.114  11.576  13.866  0.00  0.00     0.263 C 
HETATM   11  O   UNK N   1      37.687  10.647  12.959  0.00  0.00    -0.356 OA
HETATM   12  C   UNK N   1      37.545   9.379  13.561  0.00  0.00     0.151 C 
HETATM   13  C   UNK N   1      37.316   9.613  15.026  0.00  0.00     0.179 C 
HETATM   14  C   UNK N   1      38.806   8.557  13.370  0.00  0.00     0.042 C 
HETATM   15  C   UNK N   1      36.412  10.785  14.963  0.00  0.00     0.198 C 
BRANCH  13  16
HETATM   16  O   UNK N   1      36.701   8.525  15.645  0.00  0.00    -0.390 OA
HETATM   17  H   UNK N   1      36.986   7.827  16.254  0.00  0.00     0.210 HD
ENDBRANCH  13  16
BRANCH  15  18
HETATM   18  O   UNK N   1      36.473  11.451  16.188  0.00  0.00    -0.388 OA
HETATM   19  H   UNK N   1      36.679  12.382  16.369  0.00  0.00     0.210 HD
ENDBRANCH  15  18
ENDBRANCH   3  10
BRANCH   9  20
HETATM   20  N   UNK N   1      34.385  15.561  10.865  0.00  0.00    -0.286 N 
HETATM   21  C   UNK N   1      35.083  16.609  10.341  0.00  0.00     0.366 C 
HETATM   22  O   UNK N   1      36.277  16.746  10.579  0.00  0.00    -0.238 OA
HETATM   23  H   UNK N   1      33.421  15.507  10.679  0.00  0.00     0.172 HD
BRANCH  21  24
HETATM   24  O   UNK N   1      34.467  17.466   9.491  0.00  0.00    -0.304 OA
BRANCH  24  25
HETATM   25  C   UNK N   1      33.441  17.033   8.678  0.00  0.00     0.180 C 
BRANCH  25  26
HETATM   26  C   UNK N   1      32.460  18.142   8.370  0.00  0.00     0.027 C 
BRANCH  26  27
HETATM   27  C   UNK N   1      31.067  17.608   8.639  0.00  0.00     0.002 C 
BRANCH  27  28
HETATM   28  C   UNK N   1      30.186  18.685   9.233  0.00  0.00    -0.004 C 
HETATM   29  C   UNK N   1      28.757  18.457   8.787  0.00  0.00     0.005 C 
ENDBRANCH  27  28
ENDBRANCH  26  27
ENDBRANCH  25  26
ENDBRANCH  24  25
ENDBRANCH  21  24
ENDBRANCH   9  20
TORSDOF 9
ENDMDL
MODEL 9
REMARK VINA RESULT:      -5.9      4.625     10.136
REMARK  9 active torsions:
REMARK  status: ('A' for Active; 'I' for Inactive)
REMARK    1  A    between atoms: C_12  and  O_3 
REMARK    2  A    between atoms: C_13  and  O_4 
REMARK    3  A    between atoms: O_6  and  C_24 
REMARK    4  A    between atoms: O_6  and  C_25 
REMARK    5  A    between atoms: C_14  and  N_8 
REMARK    6  A    between atoms: N_11  and  C_20 
REMARK       I    between atoms: N_11  and  C_25 
REMARK    7  A    between atoms: C_21  and  C_22 
REMARK    8  A    between atoms: C_21  and  C_23 
REMARK    9  A    between atoms: C_22  and  C_24 
ROOT
HETATM    1  F   UNK N   1      28.976  18.541   7.633  0.00  0.00    -0.201 F 
HETATM    2  O   UNK N   1      31.858  14.462   5.779  0.00  0.00    -0.246 OA
HETATM    3  N   UNK N   1      31.790  16.282   7.131  0.00  0.00    -0.277 N 
HETATM    4  N   UNK N   1      29.958  15.610   5.760  0.00  0.00    -0.292 N 
ATOM      5  HN  UNK N   1      29.571  14.967   5.069  1.00  0.00     0.172 HD
HETATM    6  C   UNK N   1      31.035  17.332   7.581  0.00  0.00     0.144 A 
HETATM    7  C   UNK N   1      31.235  15.416   6.202  0.00  0.00     0.330 A 
HETATM    8  C   UNK N   1      29.725  17.527   7.132  0.00  0.00     0.176 A 
HETATM    9  C   UNK N   1      29.187  16.629   6.209  0.00  0.00     0.154 A 
ENDROOT
BRANCH   3  10
HETATM   10  C   UNK N   1      33.119  16.041   7.751  0.00  0.00     0.263 C 
HETATM   11  O   UNK N   1      33.034  15.157   8.858  0.00  0.00    -0.356 OA
HETATM   12  C   UNK N   1      33.875  15.698   9.852  0.00  0.00     0.151 C 
HETATM   13  C   UNK N   1      34.818  16.642   9.161  0.00  0.00     0.179 C 
HETATM   14  C   UNK N   1      34.668  14.599  10.533  0.00  0.00     0.042 C 
HETATM   15  C   UNK N   1      33.890  17.277   8.198  0.00  0.00     0.198 C 
BRANCH  13  16
HETATM   16  O   UNK N   1      35.366  17.578  10.038  0.00  0.00    -0.390 OA
HETATM   17  H   UNK N   1      35.973  18.329   9.953  0.00  0.00     0.210 HD
ENDBRANCH  13  16
BRANCH  15  18
HETATM   18  O   UNK N   1      34.644  17.811   7.151  0.00  0.00    -0.388 OA
HETATM   19  H   UNK N   1      35.348  18.477   7.182  0.00  0.00     0.210 HD
ENDBRANCH  15  18
ENDBRANCH   3  10
BRANCH   9  20
HETATM   20  N   UNK N   1      27.823  16.742   5.802  0.00  0.00    -0.286 N 
HETATM   21  C   UNK N   1      27.434  16.939   4.509  0.00  0.00     0.366 C 
HETATM   22  O   UNK N   1      28.266  17.072   3.620  0.00  0.00    -0.238 OA
HETATM   23  H   UNK N   1      27.125  16.676   6.492  0.00  0.00     0.172 HD
BRANCH  21  24
HETATM   24  O   UNK N   1      26.115  16.915   4.196  0.00  0.00    -0.304 OA
BRANCH  24  25
HETATM   25  C   UNK N   1      25.500  18.026   3.660  0.00  0.00     0.180 C 
BRANCH  25  26
HETATM   26  C   UNK N   1      25.423  19.161   4.656  0.00  0.00     0.027 C 
BRANCH  26  27
HETATM   27  C   UNK N   1      26.299  20.285   4.138  0.00  0.00     0.002 C 
BRANCH  27  28
HETATM   28  C   UNK N   1      27.461  20.533   5.075  0.00  0.00    -0.004 C 
HETATM   29  C   UNK N   1      26.991  21.397   6.226  0.00  0.00     0.005 C 
ENDBRANCH  27  28
ENDBRANCH  26  27
ENDBRANCH  25  26
ENDBRANCH  24  25
ENDBRANCH  21  24
ENDBRANCH   9  20
TORSDOF 9
ENDMDL
