REMARK  9 active torsions:
REMARK  status: ('A' for Active; 'I' for Inactive)
REMARK    1  A    between atoms: C_12  and  O_3 
REMARK    2  A    between atoms: C_13  and  O_4 
REMARK    3  A    between atoms: O_6  and  C_24 
REMARK    4  A    between atoms: O_6  and  C_25 
REMARK    5  A    between atoms: C_14  and  N_8 
REMARK    6  A    between atoms: N_11  and  C_20 
REMARK       I    between atoms: N_11  and  C_25 
REMARK    7  A    between atoms: C_21  and  C_22 
REMARK    8  A    between atoms: C_21  and  C_23 
REMARK    9  A    between atoms: C_22  and  C_24 
ROOT
HETATM    1  F   UNK N   1       7.314  -0.033  -0.202  0.00  0.00    -0.201 F 
HETATM    2  O   UNK N   1       2.448  -2.144   0.297  0.00  0.00    -0.246 OA
HETATM    3  N   UNK N   1       4.682  -2.521   0.191  0.00  0.00    -0.277 N 
HETATM    4  N   UNK N   1       3.719  -0.348  -0.000  0.00  0.00    -0.292 N 
ATOM      5  HN  UNK N   1       2.887   0.242  -0.029  1.00  0.00     0.172 HD
HETATM    6  C   UNK N   1       5.921  -1.957   0.045  0.00  0.00     0.144 A 
HETATM    7  C   UNK N   1       3.569  -1.695   0.161  0.00  0.00     0.330 A 
HETATM    8  C   UNK N   1       6.074  -0.576  -0.115  0.00  0.00     0.176 A 
HETATM    9  C   UNK N   1       4.937   0.232  -0.124  0.00  0.00     0.154 A 
ENDROOT
BRANCH   3  10
HETATM   10  C   UNK N   1       4.590  -3.971   0.502  0.00  0.00     0.263 C 
HETATM   11  O   UNK N   1       5.813  -4.645   0.248  0.00  0.00    -0.356 OA
HETATM   12  C   UNK N   1       5.464  -5.862  -0.373  0.00  0.00     0.151 C 
HETATM   13  C   UNK N   1       4.018  -6.115  -0.058  0.00  0.00     0.179 C 
HETATM   14  C   UNK N   1       6.308  -6.998   0.173  0.00  0.00     0.042 C 
HETATM   15  C   UNK N   1       3.478  -4.743  -0.197  0.00  0.00     0.198 C 
BRANCH  13  16
HETATM   16  O   UNK N   1       3.425  -6.993  -0.965  0.00  0.00    -0.390 OA
HETATM   17  H   UNK N   1       2.690  -6.941  -1.595  0.00  0.00     0.210 HD
ENDBRANCH  13  16
BRANCH  15  18
HETATM   18  O   UNK N   1       2.281  -4.669   0.518  0.00  0.00    -0.388 OA
HETATM   19  H   UNK N   1       1.910  -3.923   1.015  0.00  0.00     0.210 HD
ENDBRANCH  15  18
ENDBRANCH   3  10
BRANCH   9  20
HETATM   20  N   UNK N   1       5.061   1.653  -0.189  0.00  0.00    -0.286 N 
HETATM   21  C   UNK N   1       4.021   2.513   0.009  0.00  0.00     0.366 C 
HETATM   22  O   UNK N   1       2.891   2.088   0.218  0.00  0.00    -0.238 OA
HETATM   23  H   UNK N   1       5.946   2.034  -0.389  0.00  0.00     0.172 HD
BRANCH  21  24
HETATM   24  O   UNK N   1       4.253   3.848   0.047  0.00  0.00    -0.304 OA
BRANCH  24  25
HETATM   25  C   UNK N   1       3.331   4.705   0.609  0.00  0.00     0.180 C 
BRANCH  25  26
HETATM   26  C   UNK N   1       2.756   5.661  -0.412  0.00  0.00     0.027 C 
BRANCH  26  27
HETATM   27  C   UNK N   1       1.339   5.989   0.017  0.00  0.00     0.002 C 
BRANCH  27  28
HETATM   28  C   UNK N   1       0.967   7.396  -0.397  0.00  0.00    -0.004 C 
HETATM   29  C   UNK N   1      -0.472   7.662  -0.006  0.00  0.00     0.005 C 
ENDBRANCH  27  28
ENDBRANCH  26  27
ENDBRANCH  25  26
ENDBRANCH  24  25
ENDBRANCH  21  24
ENDBRANCH   9  20
TORSDOF 9
