MODEL 1
REMARK VINA RESULT:      -5.3      0.000      0.000
REMARK  5 active torsions:
REMARK  status: ('A' for Active; 'I' for Inactive)
REMARK    1  A    between atoms: N_2  and  C_6 
REMARK    2  A    between atoms: C_3  and  C_6 
REMARK    3  A    between atoms: C_3  and  C_8 
REMARK    4  A    between atoms: C_6  and  C_9 
REMARK    5  A    between atoms: C_9  and  C_10 
ROOT
HETATM    1  C   UNK N   1      27.823  24.482  -4.649  0.00  0.00     0.018 A 
HETATM    2  C   UNK N   1      26.999  24.383  -3.368  0.00  0.00     0.016 A 
HETATM    3  C   UNK N   1      28.990  23.799  -3.955  0.00  0.00     0.016 A 
HETATM    4  C   UNK N   1      28.156  23.663  -2.692  0.00  0.00     0.002 A 
ENDROOT
BRANCH   1   5
HETATM    5  C   UNK N   1      28.119  25.963  -5.073  0.00  0.00     0.235 C 
BRANCH   5   6
HETATM    6  N   UNK N   1      29.459  26.432  -4.649  0.00  0.00     0.085 N 
HETATM    7  C   UNK N   1      29.362  27.642  -3.840  0.00  0.00     0.309 C 
HETATM    8  C   UNK N   1      30.243  26.825  -5.810  0.00  0.00     0.309 C 
ENDBRANCH   5   6
BRANCH   5   9
HETATM    9  C   UNK N   1      27.017  26.903  -4.550  0.00  0.00     0.041 C 
BRANCH   9  10
HETATM   10  C   UNK N   1      26.217  27.459  -5.722  0.00  0.00    -0.021 C 
HETATM   11  C   UNK N   1      26.813  26.985  -7.028  0.00  0.00     0.009 C 
HETATM   12  C   UNK N   1      24.767  27.013  -5.642  0.00  0.00     0.009 C 
ENDBRANCH   9  10
ENDBRANCH   5   9
ENDBRANCH   1   5
BRANCH   1  13
HETATM   13  C   UNK N   1      27.291  23.600  -5.767  0.00  0.00    -0.047 A 
HETATM   14  C   UNK N   1      28.174  22.888  -6.601  0.00  0.00     0.010 A 
HETATM   15  C   UNK N   1      27.688  22.057  -7.608  0.00  0.00     0.024 A 
HETATM   16  C   UNK N   1      26.311  21.920  -7.796  0.00  0.00     0.034 A 
HETATM   17 Cl   UNK N   1      25.705  20.866  -9.053  0.00  0.00    -0.084 Cl
HETATM   18  C   UNK N   1      25.422  22.624  -6.977  0.00  0.00     0.024 A 
HETATM   19  C   UNK N   1      25.907  23.460  -5.968  0.00  0.00     0.010 A 
ENDBRANCH   1  13
TORSDOF 5
ENDMDL
MODEL 2
REMARK VINA RESULT:      -5.2     13.800     16.215
REMARK  5 active torsions:
REMARK  status: ('A' for Active; 'I' for Inactive)
REMARK    1  A    between atoms: N_2  and  C_6 
REMARK    2  A    between atoms: C_3  and  C_6 
REMARK    3  A    between atoms: C_3  and  C_8 
REMARK    4  A    between atoms: C_6  and  C_9 
REMARK    5  A    between atoms: C_9  and  C_10 
ROOT
HETATM    1  C   UNK N   1      31.800  16.507   5.730  0.00  0.00     0.018 A 
HETATM    2  C   UNK N   1      32.047  17.606   4.700  0.00  0.00     0.016 A 
HETATM    3  C   UNK N   1      32.308  15.466   4.745  0.00  0.00     0.016 A 
HETATM    4  C   UNK N   1      32.594  16.566   3.735  0.00  0.00     0.002 A 
ENDROOT
BRANCH   1   5
HETATM    5  C   UNK N   1      30.284  16.342   6.096  0.00  0.00     0.235 C 
BRANCH   5   6
HETATM    6  N   UNK N   1      29.446  15.948   4.939  0.00  0.00     0.085 N 
HETATM    7  C   UNK N   1      28.442  16.966   4.646  0.00  0.00     0.309 C 
HETATM    8  C   UNK N   1      28.679  14.754   5.259  0.00  0.00     0.309 C 
ENDBRANCH   5   6
BRANCH   5   9
HETATM    9  C   UNK N   1      29.746  17.627   6.753  0.00  0.00     0.041 C 
BRANCH   9  10
HETATM   10  C   UNK N   1      29.581  17.408   8.252  0.00  0.00    -0.021 C 
HETATM   11  C   UNK N   1      30.319  18.483   9.017  0.00  0.00     0.009 C 
HETATM   12  C   UNK N   1      28.113  17.436   8.640  0.00  0.00     0.009 C 
ENDBRANCH   9  10
ENDBRANCH   5   9
ENDBRANCH   1   5
BRANCH   1  13
HETATM   13  C   UNK N   1      32.733  16.593   6.928  0.00  0.00    -0.047 A 
HETATM   14  C   UNK N   1      33.530  17.735   7.135  0.00  0.00     0.010 A 
HETATM   15  C   UNK N   1      34.363  17.828   8.249  0.00  0.00     0.024 A 
HETATM   16  C   UNK N   1      34.411  16.783   9.174  0.00  0.00     0.034 A 
HETATM   17 Cl   UNK N   1      35.449  16.910  10.576  0.00  0.00    -0.084 Cl
HETATM   18  C   UNK N   1      33.626  15.642   8.978  0.00  0.00     0.024 A 
HETATM   19  C   UNK N   1      32.792  15.545   7.862  0.00  0.00     0.010 A 
ENDBRANCH   1  13
TORSDOF 5
ENDMDL
MODEL 3
REMARK VINA RESULT:      -5.2      3.165      4.657
REMARK  5 active torsions:
REMARK  status: ('A' for Active; 'I' for Inactive)
REMARK    1  A    between atoms: N_2  and  C_6 
REMARK    2  A    between atoms: C_3  and  C_6 
REMARK    3  A    between atoms: C_3  and  C_8 
REMARK    4  A    between atoms: C_6  and  C_9 
REMARK    5  A    between atoms: C_9  and  C_10 
ROOT
HETATM    1  C   UNK N   1      26.784  27.418  -4.650  0.00  0.00     0.018 A 
HETATM    2  C   UNK N   1      26.343  27.313  -6.107  0.00  0.00     0.016 A 
HETATM    3  C   UNK N   1      25.332  27.357  -4.202  0.00  0.00     0.016 A 
HETATM    4  C   UNK N   1      24.895  27.209  -5.651  0.00  0.00     0.002 A 
ENDROOT
BRANCH   1   5
HETATM    5  C   UNK N   1      27.488  28.781  -4.321  0.00  0.00     0.235 C 
BRANCH   5   6
HETATM    6  N   UNK N   1      26.918  29.459  -3.133  0.00  0.00     0.085 N 
HETATM    7  C   UNK N   1      26.581  30.847  -3.430  0.00  0.00     0.309 C 
HETATM    8  C   UNK N   1      27.912  29.538  -2.075  0.00  0.00     0.309 C 
ENDBRANCH   5   6
BRANCH   5   9
HETATM    9  C   UNK N   1      27.463  29.710  -5.549  0.00  0.00     0.041 C 
BRANCH   9  10
HETATM   10  C   UNK N   1      28.881  29.911  -6.071  0.00  0.00    -0.021 C 
HETATM   11  C   UNK N   1      29.882  29.393  -5.064  0.00  0.00     0.009 C 
HETATM   12  C   UNK N   1      29.075  29.183  -7.390  0.00  0.00     0.009 C 
ENDBRANCH   9  10
ENDBRANCH   5   9
ENDBRANCH   1   5
BRANCH   1  13
HETATM   13  C   UNK N   1      27.534  26.188  -4.165  0.00  0.00    -0.047 A 
HETATM   14  C   UNK N   1      26.847  25.131  -3.537  0.00  0.00     0.010 A 
HETATM   15  C   UNK N   1      27.528  23.989  -3.118  0.00  0.00     0.024 A 
HETATM   16  C   UNK N   1      28.905  23.884  -3.323  0.00  0.00     0.034 A 
HETATM   17 Cl   UNK N   1      29.754  22.444  -2.807  0.00  0.00    -0.084 Cl
HETATM   18  C   UNK N   1      29.601  24.928  -3.943  0.00  0.00     0.024 A 
HETATM   19  C   UNK N   1      28.921  26.075  -4.361  0.00  0.00     0.010 A 
ENDBRANCH   1  13
TORSDOF 5
ENDMDL
MODEL 4
REMARK VINA RESULT:      -5.1      2.467      3.760
REMARK  5 active torsions:
REMARK  status: ('A' for Active; 'I' for Inactive)
REMARK    1  A    between atoms: N_2  and  C_6 
REMARK    2  A    between atoms: C_3  and  C_6 
REMARK    3  A    between atoms: C_3  and  C_8 
REMARK    4  A    between atoms: C_6  and  C_9 
REMARK    5  A    between atoms: C_9  and  C_10 
ROOT
HETATM    1  C   UNK N   1      27.911  24.715  -4.763  0.00  0.00     0.018 A 
HETATM    2  C   UNK N   1      27.222  24.061  -5.956  0.00  0.00     0.016 A 
HETATM    3  C   UNK N   1      26.684  24.452  -3.905  0.00  0.00     0.016 A 
HETATM    4  C   UNK N   1      26.013  23.763  -5.082  0.00  0.00     0.002 A 
ENDROOT
BRANCH   1   5
HETATM    5  C   UNK N   1      28.209  26.238  -4.988  0.00  0.00     0.235 C 
BRANCH   5   6
HETATM    6  N   UNK N   1      29.527  26.658  -4.458  0.00  0.00     0.085 N 
HETATM    7  C   UNK N   1      29.399  27.824  -3.590  0.00  0.00     0.309 C 
HETATM    8  C   UNK N   1      30.388  27.099  -5.544  0.00  0.00     0.309 C 
ENDBRANCH   5   6
BRANCH   5   9
HETATM    9  C   UNK N   1      27.079  27.101  -4.398  0.00  0.00     0.041 C 
BRANCH   9  10
HETATM   10  C   UNK N   1      26.297  27.766  -5.525  0.00  0.00    -0.021 C 
HETATM   11  C   UNK N   1      27.030  27.594  -6.836  0.00  0.00     0.009 C 
HETATM   12  C   UNK N   1      24.909  27.163  -5.645  0.00  0.00     0.009 C 
ENDBRANCH   9  10
ENDBRANCH   5   9
ENDBRANCH   1   5
BRANCH   1  13
HETATM   13  C   UNK N   1      29.094  23.911  -4.245  0.00  0.00    -0.047 A 
HETATM   14  C   UNK N   1      29.220  23.625  -2.872  0.00  0.00     0.010 A 
HETATM   15  C   UNK N   1      30.287  22.863  -2.399  0.00  0.00     0.024 A 
HETATM   16  C   UNK N   1      31.243  22.373  -3.290  0.00  0.00     0.034 A 
HETATM   17 Cl   UNK N   1      32.574  21.407  -2.693  0.00  0.00    -0.084 Cl
HETATM   18  C   UNK N   1      31.132  22.651  -4.656  0.00  0.00     0.024 A 
HETATM   19  C   UNK N   1      30.064  23.417  -5.133  0.00  0.00     0.010 A 
ENDBRANCH   1  13
TORSDOF 5
ENDMDL
MODEL 5
REMARK VINA RESULT:      -5.1      2.645      4.831
REMARK  5 active torsions:
REMARK  status: ('A' for Active; 'I' for Inactive)
REMARK    1  A    between atoms: N_2  and  C_6 
REMARK    2  A    between atoms: C_3  and  C_6 
REMARK    3  A    between atoms: C_3  and  C_8 
REMARK    4  A    between atoms: C_6  and  C_9 
REMARK    5  A    between atoms: C_9  and  C_10 
ROOT
HETATM    1  C   UNK N   1      26.563  25.714  -6.142  0.00  0.00     0.018 A 
HETATM    2  C   UNK N   1      25.120  25.973  -5.716  0.00  0.00     0.016 A 
HETATM    3  C   UNK N   1      26.845  27.207  -6.108  0.00  0.00     0.016 A 
HETATM    4  C   UNK N   1      25.420  27.462  -5.643  0.00  0.00     0.002 A 
ENDROOT
BRANCH   1   5
HETATM    5  C   UNK N   1      26.673  25.084  -7.574  0.00  0.00     0.235 C 
BRANCH   5   6
HETATM    6  N   UNK N   1      26.740  26.097  -8.652  0.00  0.00     0.085 N 
HETATM    7  C   UNK N   1      25.638  25.938  -9.594  0.00  0.00     0.309 C 
HETATM    8  C   UNK N   1      27.940  25.902  -9.451  0.00  0.00     0.309 C 
ENDBRANCH   5   6
BRANCH   5   9
HETATM    9  C   UNK N   1      25.517  24.096  -7.818  0.00  0.00     0.041 C 
BRANCH   9  10
HETATM   10  C   UNK N   1      25.880  22.728  -7.252  0.00  0.00    -0.021 C 
HETATM   11  C   UNK N   1      24.897  21.688  -7.739  0.00  0.00     0.009 C 
HETATM   12  C   UNK N   1      27.283  22.328  -7.673  0.00  0.00     0.009 C 
ENDBRANCH   9  10
ENDBRANCH   5   9
ENDBRANCH   1   5
BRANCH   1  13
HETATM   13  C   UNK N   1      27.379  25.003  -5.075  0.00  0.00    -0.047 A 
HETATM   14  C   UNK N   1      28.776  24.882  -5.203  0.00  0.00     0.010 A 
HETATM   15  C   UNK N   1      29.530  24.256  -4.212  0.00  0.00     0.024 A 
HETATM   16  C   UNK N   1      28.901  23.744  -3.075  0.00  0.00     0.034 A 
HETATM   17 Cl   UNK N   1      29.853  22.970  -1.828  0.00  0.00    -0.084 Cl
HETATM   18  C   UNK N   1      27.513  23.854  -2.936  0.00  0.00     0.024 A 
HETATM   19  C   UNK N   1      26.755  24.479  -3.930  0.00  0.00     0.010 A 
ENDBRANCH   1  13
TORSDOF 5
ENDMDL
MODEL 6
REMARK VINA RESULT:      -5.1     15.000     17.766
REMARK  5 active torsions:
REMARK  status: ('A' for Active; 'I' for Inactive)
REMARK    1  A    between atoms: N_2  and  C_6 
REMARK    2  A    between atoms: C_3  and  C_6 
REMARK    3  A    between atoms: C_3  and  C_8 
REMARK    4  A    between atoms: C_6  and  C_9 
REMARK    5  A    between atoms: C_9  and  C_10 
ROOT
HETATM    1  C   UNK N   1      32.686  16.703   8.128  0.00  0.00     0.018 A 
HETATM    2  C   UNK N   1      31.208  16.623   8.497  0.00  0.00     0.016 A 
HETATM    3  C   UNK N   1      32.621  18.221   8.181  0.00  0.00     0.016 A 
HETATM    4  C   UNK N   1      31.159  18.141   8.589  0.00  0.00     0.002 A 
ENDROOT
BRANCH   1   5
HETATM    5  C   UNK N   1      32.991  16.133   6.699  0.00  0.00     0.235 C 
BRANCH   5   6
HETATM    6  N   UNK N   1      33.899  14.963   6.721  0.00  0.00     0.085 N 
HETATM    7  C   UNK N   1      35.159  15.261   6.049  0.00  0.00     0.309 C 
HETATM    8  C   UNK N   1      33.323  13.867   5.957  0.00  0.00     0.309 C 
ENDBRANCH   5   6
BRANCH   5   9
HETATM    9  C   UNK N   1      33.545  17.242   5.785  0.00  0.00     0.041 C 
BRANCH   9  10
HETATM   10  C   UNK N   1      32.588  17.476   4.622  0.00  0.00    -0.021 C 
HETATM   11  C   UNK N   1      33.107  16.790   3.378  0.00  0.00     0.009 C 
HETATM   12  C   UNK N   1      31.205  16.942   4.949  0.00  0.00     0.009 C 
ENDBRANCH   9  10
ENDBRANCH   5   9
ENDBRANCH   1   5
BRANCH   1  13
HETATM   13  C   UNK N   1      33.601  16.180   9.224  0.00  0.00    -0.047 A 
HETATM   14  C   UNK N   1      34.737  16.911   9.620  0.00  0.00     0.010 A 
HETATM   15  C   UNK N   1      35.561  16.448  10.644  0.00  0.00     0.024 A 
HETATM   16  C   UNK N   1      35.261  15.249  11.292  0.00  0.00     0.034 A 
HETATM   17 Cl   UNK N   1      36.291  14.678  12.586  0.00  0.00    -0.084 Cl
HETATM   18  C   UNK N   1      34.137  14.510  10.908  0.00  0.00     0.024 A 
HETATM   19  C   UNK N   1      33.311  14.971   9.879  0.00  0.00     0.010 A 
ENDBRANCH   1  13
TORSDOF 5
ENDMDL
MODEL 7
REMARK VINA RESULT:      -5.1      3.214      5.621
REMARK  5 active torsions:
REMARK  status: ('A' for Active; 'I' for Inactive)
REMARK    1  A    between atoms: N_2  and  C_6 
REMARK    2  A    between atoms: C_3  and  C_6 
REMARK    3  A    between atoms: C_3  and  C_8 
REMARK    4  A    between atoms: C_6  and  C_9 
REMARK    5  A    between atoms: C_9  and  C_10 
ROOT
HETATM    1  C   UNK N   1      27.044  26.176  -7.056  0.00  0.00     0.018 A 
HETATM    2  C   UNK N   1      25.710  25.520  -7.397  0.00  0.00     0.016 A 
HETATM    3  C   UNK N   1      27.174  26.666  -8.489  0.00  0.00     0.016 A 
HETATM    4  C   UNK N   1      25.825  26.048  -8.819  0.00  0.00     0.002 A 
ENDROOT
BRANCH   1   5
HETATM    5  C   UNK N   1      28.146  25.140  -6.640  0.00  0.00     0.235 C 
BRANCH   5   6
HETATM    6  N   UNK N   1      28.908  24.608  -7.794  0.00  0.00     0.085 N 
HETATM    7  C   UNK N   1      28.659  23.182  -7.975  0.00  0.00     0.309 C 
HETATM    8  C   UNK N   1      30.337  24.704  -7.540  0.00  0.00     0.309 C 
ENDBRANCH   5   6
BRANCH   5   9
HETATM    9  C   UNK N   1      27.527  23.998  -5.815  0.00  0.00     0.041 C 
BRANCH   9  10
HETATM   10  C   UNK N   1      28.027  24.072  -4.377  0.00  0.00    -0.021 C 
HETATM   11  C   UNK N   1      29.001  25.218  -4.225  0.00  0.00     0.009 C 
HETATM   12  C   UNK N   1      26.868  24.270  -3.416  0.00  0.00     0.009 C 
ENDBRANCH   9  10
ENDBRANCH   5   9
ENDBRANCH   1   5
BRANCH   1  13
HETATM   13  C   UNK N   1      26.901  27.358  -6.110  0.00  0.00    -0.047 A 
HETATM   14  C   UNK N   1      27.726  28.490  -6.247  0.00  0.00     0.010 A 
HETATM   15  C   UNK N   1      27.576  29.587  -5.400  0.00  0.00     0.024 A 
HETATM   16  C   UNK N   1      26.598  29.571  -4.404  0.00  0.00     0.034 A 
HETATM   17 Cl   UNK N   1      26.406  30.954  -3.351  0.00  0.00    -0.084 Cl
HETATM   18  C   UNK N   1      25.773  28.451  -4.254  0.00  0.00     0.024 A 
HETATM   19  C   UNK N   1      25.923  27.349  -5.101  0.00  0.00     0.010 A 
ENDBRANCH   1  13
TORSDOF 5
ENDMDL
MODEL 8
REMARK VINA RESULT:      -5.1     12.011     14.250
REMARK  5 active torsions:
REMARK  status: ('A' for Active; 'I' for Inactive)
REMARK    1  A    between atoms: N_2  and  C_6 
REMARK    2  A    between atoms: C_3  and  C_6 
REMARK    3  A    between atoms: C_3  and  C_8 
REMARK    4  A    between atoms: C_6  and  C_9 
REMARK    5  A    between atoms: C_9  and  C_10 
ROOT
HETATM    1  C   UNK N   1      29.367  16.842   4.939  0.00  0.00     0.018 A 
HETATM    2  C   UNK N   1      28.898  15.602   5.695  0.00  0.00     0.016 A 
HETATM    3  C   UNK N   1      28.699  16.327   3.674  0.00  0.00     0.016 A 
HETATM    4  C   UNK N   1      28.197  15.112   4.437  0.00  0.00     0.002 A 
ENDROOT
BRANCH   1   5
HETATM    5  C   UNK N   1      30.929  16.940   4.833  0.00  0.00     0.235 C 
BRANCH   5   6
HETATM    6  N   UNK N   1      31.475  16.254   3.639  0.00  0.00     0.085 N 
HETATM    7  C   UNK N   1      32.173  15.028   4.010  0.00  0.00     0.309 C 
HETATM    8  C   UNK N   1      32.491  17.081   3.007  0.00  0.00     0.309 C 
ENDBRANCH   5   6
BRANCH   5   9
HETATM    9  C   UNK N   1      31.589  16.413   6.121  0.00  0.00     0.041 C 
BRANCH   9  10
HETATM   10  C   UNK N   1      32.309  17.552   6.833  0.00  0.00    -0.021 C 
HETATM   11  C   UNK N   1      31.890  17.602   8.285  0.00  0.00     0.009 C 
HETATM   12  C   UNK N   1      33.814  17.369   6.753  0.00  0.00     0.009 C 
ENDBRANCH   9  10
ENDBRANCH   5   9
ENDBRANCH   1   5
BRANCH   1  13
HETATM   13  C   UNK N   1      28.685  18.118   5.407  0.00  0.00    -0.047 A 
HETATM   14  C   UNK N   1      28.202  19.056   4.476  0.00  0.00     0.010 A 
HETATM   15  C   UNK N   1      27.550  20.212   4.903  0.00  0.00     0.024 A 
HETATM   16  C   UNK N   1      27.369  20.447   6.267  0.00  0.00     0.034 A 
HETATM   17 Cl   UNK N   1      26.540  21.893   6.797  0.00  0.00    -0.084 Cl
HETATM   18  C   UNK N   1      27.846  19.525   7.204  0.00  0.00     0.024 A 
HETATM   19  C   UNK N   1      28.502  18.366   6.778  0.00  0.00     0.010 A 
ENDBRANCH   1  13
TORSDOF 5
ENDMDL
MODEL 9
REMARK VINA RESULT:      -5.0     11.747     14.541
REMARK  5 active torsions:
REMARK  status: ('A' for Active; 'I' for Inactive)
REMARK    1  A    between atoms: N_2  and  C_6 
REMARK    2  A    between atoms: C_3  and  C_6 
REMARK    3  A    between atoms: C_3  and  C_8 
REMARK    4  A    between atoms: C_6  and  C_9 
REMARK    5  A    between atoms: C_9  and  C_10 
ROOT
HETATM    1  C   UNK N   1      29.877  16.314   4.935  0.00  0.00     0.018 A 
HETATM    2  C   UNK N   1      30.139  16.393   3.434  0.00  0.00     0.016 A 
HETATM    3  C   UNK N   1      29.905  14.796   4.864  0.00  0.00     0.016 A 
HETATM    4  C   UNK N   1      30.207  14.874   3.376  0.00  0.00     0.002 A 
ENDROOT
BRANCH   1   5
HETATM    5  C   UNK N   1      28.482  16.902   5.344  0.00  0.00     0.235 C 
BRANCH   5   6
HETATM    6  N   UNK N   1      27.477  15.857   5.647  0.00  0.00     0.085 N 
HETATM    7  C   UNK N   1      26.324  15.962   4.759  0.00  0.00     0.309 C 
HETATM    8  C   UNK N   1      26.934  16.055   6.982  0.00  0.00     0.309 C 
ENDBRANCH   5   6
BRANCH   5   9
HETATM    9  C   UNK N   1      27.965  17.865   4.259  0.00  0.00     0.041 C 
BRANCH   9  10
HETATM   10  C   UNK N   1      28.122  19.306   4.732  0.00  0.00    -0.021 C 
HETATM   11  C   UNK N   1      27.167  20.205   3.980  0.00  0.00     0.009 C 
HETATM   12  C   UNK N   1      27.846  19.415   6.221  0.00  0.00     0.009 C 
ENDBRANCH   9  10
ENDBRANCH   5   9
ENDBRANCH   1   5
BRANCH   1  13
HETATM   13  C   UNK N   1      31.044  16.820   5.769  0.00  0.00    -0.047 A 
HETATM   14  C   UNK N   1      32.296  17.069   5.175  0.00  0.00     0.010 A 
HETATM   15  C   UNK N   1      33.358  17.560   5.932  0.00  0.00     0.024 A 
HETATM   16  C   UNK N   1      33.185  17.814   7.294  0.00  0.00     0.034 A 
HETATM   17 Cl   UNK N   1      34.517  18.443   8.237  0.00  0.00    -0.084 Cl
HETATM   18  C   UNK N   1      31.947  17.569   7.898  0.00  0.00     0.024 A 
HETATM   19  C   UNK N   1      30.882  17.074   7.142  0.00  0.00     0.010 A 
ENDBRANCH   1  13
TORSDOF 5
ENDMDL
