REMARK  5 active torsions:
REMARK  status: ('A' for Active; 'I' for Inactive)
REMARK    1  A    between atoms: N_2  and  C_6 
REMARK    2  A    between atoms: C_3  and  C_6 
REMARK    3  A    between atoms: C_3  and  C_8 
REMARK    4  A    between atoms: C_6  and  C_9 
REMARK    5  A    between atoms: C_9  and  C_10 
ROOT
HETATM    1  C   UNK N   1       4.379   1.335   0.049  0.00  0.00     0.018 A 
HETATM    2  C   UNK N   1       5.076   2.006   1.229  0.00  0.00     0.016 A 
HETATM    3  C   UNK N   1       5.297   2.069  -0.915  0.00  0.00     0.016 A 
HETATM    4  C   UNK N   1       6.019   2.705   0.262  0.00  0.00     0.002 A 
ENDROOT
BRANCH   1   5
HETATM    5  C   UNK N   1       2.870   1.743  -0.082  0.00  0.00     0.235 C 
BRANCH   5   6
HETATM    6  N   UNK N   1       2.607   3.140   0.335  0.00  0.00     0.085 N 
HETATM    7  C   UNK N   1       1.176   3.423   0.354  0.00  0.00     0.309 C 
HETATM    8  C   UNK N   1       3.154   4.067  -0.643  0.00  0.00     0.309 C 
ENDBRANCH   5   6
BRANCH   5   9
HETATM    9  C   UNK N   1       1.977   0.759   0.696  0.00  0.00     0.041 C 
BRANCH   9  10
HETATM   10  C   UNK N   1       1.298  -0.199  -0.276  0.00  0.00    -0.021 C 
HETATM   11  C   UNK N   1       0.685  -1.356   0.480  0.00  0.00     0.009 C 
HETATM   12  C   UNK N   1       0.214   0.515  -1.064  0.00  0.00     0.009 C 
ENDBRANCH   9  10
ENDBRANCH   5   9
ENDBRANCH   1   5
BRANCH   1  13
HETATM   13  C   UNK N   1       4.636  -0.162  -0.021  0.00  0.00    -0.047 A 
HETATM   14  C   UNK N   1       5.198  -0.845   1.074  0.00  0.00     0.010 A 
HETATM   15  C   UNK N   1       5.407  -2.222   1.023  0.00  0.00     0.024 A 
HETATM   16  C   UNK N   1       5.055  -2.939  -0.122  0.00  0.00     0.034 A 
HETATM   17 Cl   UNK N   1       5.308  -4.669  -0.177  0.00  0.00    -0.084 Cl
HETATM   18  C   UNK N   1       4.498  -2.273  -1.219  0.00  0.00     0.024 A 
HETATM   19  C   UNK N   1       4.290  -0.892  -1.171  0.00  0.00     0.010 A 
ENDBRANCH   1  13
TORSDOF 5
