REMARK  2 active torsions:
REMARK  status: ('A' for Active; 'I' for Inactive)
REMARK    1  A    between atoms: C_18  and  O_2 
REMARK    2  A    between atoms: O_3  and  C_21 
ROOT
HETATM    1  O   UNK N   1       5.439  -2.770  -1.301  0.00  0.00    -0.361 OA
HETATM    2  N   UNK N   1       0.227  -4.125  -0.072  0.00  0.00    -0.192 NA
HETATM    3  C   UNK N   1       3.527  -1.294  -0.394  0.00  0.00    -0.001 C 
HETATM    4  C   UNK N   1       5.025  -1.794  -0.381  0.00  0.00     0.102 A 
HETATM    5  C   UNK N   1       3.490   0.177  -0.222  0.00  0.00     0.001 C 
HETATM    6  C   UNK N   1       4.356   0.675   0.988  0.00  0.00    -0.005 C 
HETATM    7  C   UNK N   1       4.713   2.103   0.593  0.00  0.00     0.001 C 
HETATM    8  C   UNK N   1       3.462   2.986   0.437  0.00  0.00    -0.014 C 
HETATM    9  C   UNK N   1       5.104  -3.259  -0.019  0.00  0.00     0.215 A 
HETATM   10  C   UNK N   1       6.144  -0.915   0.175  0.00  0.00     0.042 C 
HETATM   11  C   UNK N   1       5.591  -0.159   1.360  0.00  0.00     0.008 C 
HETATM   12  C   UNK N   1       2.111   0.827  -0.105  0.00  0.00     0.007 C 
HETATM   13  C   UNK N   1       2.285   2.332  -0.333  0.00  0.00     0.012 C 
HETATM   14  C   UNK N   1       2.796  -1.962   0.775  0.00  0.00     0.065 C 
HETATM   15  C   UNK N   1       5.953   2.801   0.095  0.00  0.00     0.008 C 
HETATM   16  C   UNK N   1       3.959   4.153  -0.406  0.00  0.00     0.126 C 
HETATM   17  C   UNK N   1       2.856  -1.591  -1.764  0.00  0.00     0.019 C 
HETATM   18  C   UNK N   1       5.480   4.162  -0.406  0.00  0.00     0.033 C 
HETATM   19  C   UNK N   1       3.781  -3.985  -0.128  0.00  0.00     0.091 C 
HETATM   20  C   UNK N   1       2.973   3.389   1.829  0.00  0.00     0.018 C 
HETATM   21  C   UNK N   1       2.666  -3.353   0.305  0.00  0.00     0.055 C 
HETATM   22  C   UNK N   1       1.330  -3.817   0.079  0.00  0.00     0.097 C 
ENDROOT
BRANCH  19  23
HETATM   23  O   UNK N   1       3.706  -5.145  -0.801  0.00  0.00    -0.361 OA
HETATM   24  H   UNK N   1       2.979  -5.504  -1.270  0.00  0.00     0.217 HD
ENDBRANCH  19  23
BRANCH  16  25
HETATM   25  O   UNK N   1       3.472   5.379   0.042  0.00  0.00    -0.395 OA
HETATM   26  H   UNK N   1       4.042   6.099   0.354  0.00  0.00     0.210 HD
ENDBRANCH  16  25
TORSDOF 2
