MODEL 1
REMARK VINA RESULT:      -7.9      0.000      0.000
REMARK  2 active torsions:
REMARK  status: ('A' for Active; 'I' for Inactive)
REMARK    1  A    between atoms: C_18  and  O_2 
REMARK    2  A    between atoms: O_3  and  C_21 
ROOT
HETATM    1  O   UNK N   1      34.271  17.779   6.845  0.00  0.00    -0.361 OA
HETATM    2  N   UNK N   1      34.131  13.777   3.040  0.00  0.00    -0.192 NA
HETATM    3  C   UNK N   1      32.248  16.736   5.630  0.00  0.00    -0.001 C 
HETATM    4  C   UNK N   1      32.975  17.247   6.935  0.00  0.00     0.102 A 
HETATM    5  C   UNK N   1      30.831  17.166   5.647  0.00  0.00     0.001 C 
HETATM    6  C   UNK N   1      30.105  16.833   6.998  0.00  0.00    -0.005 C 
HETATM    7  C   UNK N   1      28.998  17.879   7.063  0.00  0.00     0.001 C 
HETATM    8  C   UNK N   1      28.015  17.750   5.886  0.00  0.00    -0.014 C 
HETATM    9  C   UNK N   1      34.207  16.421   7.228  0.00  0.00     0.215 A 
HETATM   10  C   UNK N   1      32.177  17.698   8.157  0.00  0.00     0.042 C 
HETATM   11  C   UNK N   1      30.964  16.804   8.271  0.00  0.00     0.008 C 
HETATM   12  C   UNK N   1      29.941  16.670   4.507  0.00  0.00     0.007 C 
HETATM   13  C   UNK N   1      28.672  17.528   4.499  0.00  0.00     0.012 C 
HETATM   14  C   UNK N   1      32.315  15.205   5.621  0.00  0.00     0.065 C 
HETATM   15  C   UNK N   1      28.760  19.141   7.853  0.00  0.00     0.008 C 
HETATM   16  C   UNK N   1      27.332  19.111   5.849  0.00  0.00     0.126 C 
HETATM   17  C   UNK N   1      32.881  17.368   4.360  0.00  0.00     0.019 C 
HETATM   18  C   UNK N   1      27.601  19.845   7.154  0.00  0.00     0.033 C 
HETATM   19  C   UNK N   1      34.670  15.583   6.057  0.00  0.00     0.091 C 
HETATM   20  C   UNK N   1      27.065  16.586   6.170  0.00  0.00     0.018 C 
HETATM   21  C   UNK N   1      33.734  14.959   5.305  0.00  0.00     0.055 C 
HETATM   22  C   UNK N   1      33.996  14.311   4.056  0.00  0.00     0.097 C 
ENDROOT
BRANCH  19  23
HETATM   23  O   UNK N   1      35.959  15.614   5.678  0.00  0.00    -0.361 OA
HETATM   24  H   UNK N   1      36.645  15.013   5.887  0.00  0.00     0.217 HD
ENDBRANCH  19  23
BRANCH  16  25
HETATM   25  O   UNK N   1      25.960  19.012   5.628  0.00  0.00    -0.395 OA
HETATM   26  H   UNK N   1      25.345  19.753   5.744  0.00  0.00     0.210 HD
ENDBRANCH  16  25
TORSDOF 2
ENDMDL
MODEL 2
REMARK VINA RESULT:      -7.4      1.992      3.417
REMARK  2 active torsions:
REMARK  status: ('A' for Active; 'I' for Inactive)
REMARK    1  A    between atoms: C_18  and  O_2 
REMARK    2  A    between atoms: O_3  and  C_21 
ROOT
HETATM    1  O   UNK N   1      33.337  14.376   5.257  0.00  0.00    -0.361 OA
HETATM    2  N   UNK N   1      34.746  17.365   9.683  0.00  0.00    -0.192 NA
HETATM    3  C   UNK N   1      32.051  16.279   6.432  0.00  0.00    -0.001 C 
HETATM    4  C   UNK N   1      32.597  15.563   5.135  0.00  0.00     0.102 A 
HETATM    5  C   UNK N   1      30.665  16.748   6.199  0.00  0.00     0.001 C 
HETATM    6  C   UNK N   1      30.508  17.559   4.865  0.00  0.00    -0.005 C 
HETATM    7  C   UNK N   1      29.042  17.351   4.504  0.00  0.00     0.001 C 
HETATM    8  C   UNK N   1      28.100  17.916   5.582  0.00  0.00    -0.014 C 
HETATM    9  C   UNK N   1      34.108  15.552   5.118  0.00  0.00     0.215 A 
HETATM   10  C   UNK N   1      31.922  15.767   3.780  0.00  0.00     0.042 C 
HETATM   11  C   UNK N   1      31.455  17.202   3.709  0.00  0.00     0.008 C 
HETATM   12  C   UNK N   1      30.010  17.560   7.316  0.00  0.00     0.007 C 
HETATM   13  C   UNK N   1      28.502  17.593   7.045  0.00  0.00     0.012 C 
HETATM   14  C   UNK N   1      32.953  17.483   6.722  0.00  0.00     0.065 C 
HETATM   15  C   UNK N   1      28.293  16.535   3.482  0.00  0.00     0.008 C 
HETATM   16  C   UNK N   1      26.784  17.201   5.308  0.00  0.00     0.126 C 
HETATM   17  C   UNK N   1      31.982  15.286   7.626  0.00  0.00     0.019 C 
HETATM   18  C   UNK N   1      26.834  16.567   3.926  0.00  0.00     0.033 C 
HETATM   19  C   UNK N   1      34.734  15.859   6.460  0.00  0.00     0.091 C 
HETATM   20  C   UNK N   1      28.027  19.435   5.419  0.00  0.00     0.018 C 
HETATM   21  C   UNK N   1      34.183  16.838   7.215  0.00  0.00     0.055 C 
HETATM   22  C   UNK N   1      34.527  17.101   8.580  0.00  0.00     0.097 C 
ENDROOT
BRANCH  19  23
HETATM   23  O   UNK N   1      35.693  15.058   6.952  0.00  0.00    -0.361 OA
HETATM   24  H   UNK N   1      35.756  14.125   6.909  0.00  0.00     0.217 HD
ENDBRANCH  19  23
BRANCH  16  25
HETATM   25  O   UNK N   1      25.685  18.051   5.407  0.00  0.00    -0.395 OA
HETATM   26  H   UNK N   1      25.186  18.371   4.639  0.00  0.00     0.210 HD
ENDBRANCH  16  25
TORSDOF 2
ENDMDL
MODEL 3
REMARK VINA RESULT:      -7.1     12.902     15.187
REMARK  2 active torsions:
REMARK  status: ('A' for Active; 'I' for Inactive)
REMARK    1  A    between atoms: C_18  and  O_2 
REMARK    2  A    between atoms: O_3  and  C_21 
ROOT
HETATM    1  O   UNK N   1      25.080  22.260  -7.906  0.00  0.00    -0.361 OA
HETATM    2  N   UNK N   1      29.231  21.751 -11.514  0.00  0.00    -0.192 NA
HETATM    3  C   UNK N   1      27.620  22.520  -7.536  0.00  0.00    -0.001 C 
HETATM    4  C   UNK N   1      26.129  23.007  -7.348  0.00  0.00     0.102 A 
HETATM    5  C   UNK N   1      28.362  22.683  -6.265  0.00  0.00     0.001 C 
HETATM    6  C   UNK N   1      28.194  24.110  -5.634  0.00  0.00    -0.005 C 
HETATM    7  C   UNK N   1      28.423  23.860  -4.148  0.00  0.00     0.001 C 
HETATM    8  C   UNK N   1      29.837  23.320  -3.868  0.00  0.00    -0.014 C 
HETATM    9  C   UNK N   1      25.504  23.364  -8.677  0.00  0.00     0.215 A 
HETATM   10  C   UNK N   1      25.734  23.897  -6.172  0.00  0.00     0.042 C 
HETATM   11  C   UNK N   1      26.876  24.850  -5.910  0.00  0.00     0.008 C 
HETATM   12  C   UNK N   1      29.856  22.359  -6.288  0.00  0.00     0.007 C 
HETATM   13  C   UNK N   1      30.323  22.210  -4.836  0.00  0.00     0.012 C 
HETATM   14  C   UNK N   1      28.267  23.390  -8.619  0.00  0.00     0.065 C 
HETATM   15  C   UNK N   1      27.547  23.789  -2.924  0.00  0.00     0.008 C 
HETATM   16  C   UNK N   1      29.704  22.688  -2.488  0.00  0.00     0.126 C 
HETATM   17  C   UNK N   1      27.669  21.006  -7.881  0.00  0.00     0.019 C 
HETATM   18  C   UNK N   1      28.420  23.174  -1.834  0.00  0.00     0.033 C 
HETATM   19  C   UNK N   1      26.267  22.833  -9.871  0.00  0.00     0.091 C 
HETATM   20  C   UNK N   1      30.825  24.486  -3.925  0.00  0.00     0.018 C 
HETATM   21  C   UNK N   1      27.619  22.892  -9.845  0.00  0.00     0.055 C 
HETATM   22  C   UNK N   1      28.478  22.248 -10.793  0.00  0.00     0.097 C 
ENDROOT
BRANCH  19  23
HETATM   23  O   UNK N   1      25.619  22.162 -10.837  0.00  0.00    -0.361 OA
HETATM   24  H   UNK N   1      25.518  22.388 -11.741  0.00  0.00     0.217 HD
ENDBRANCH  19  23
BRANCH  16  25
HETATM   25  O   UNK N   1      30.795  22.967  -1.668  0.00  0.00    -0.395 OA
HETATM   26  H   UNK N   1      31.052  22.414  -0.913  0.00  0.00     0.210 HD
ENDBRANCH  16  25
TORSDOF 2
ENDMDL
MODEL 4
REMARK VINA RESULT:      -7.1     12.895     14.783
REMARK  2 active torsions:
REMARK  status: ('A' for Active; 'I' for Inactive)
REMARK    1  A    between atoms: C_18  and  O_2 
REMARK    2  A    between atoms: O_3  and  C_21 
ROOT
HETATM    1  O   UNK N   1      34.626  13.215  16.308  0.00  0.00    -0.361 OA
HETATM    2  N   UNK N   1      37.324   9.294  13.504  0.00  0.00    -0.192 NA
HETATM    3  C   UNK N   1      35.167  10.785  16.987  0.00  0.00    -0.001 C 
HETATM    4  C   UNK N   1      35.097  12.333  17.293  0.00  0.00     0.102 A 
HETATM    5  C   UNK N   1      34.692  10.021  18.164  0.00  0.00     0.001 C 
HETATM    6  C   UNK N   1      35.371  10.474  19.504  0.00  0.00    -0.005 C 
HETATM    7  C   UNK N   1      34.338  10.100  20.560  0.00  0.00     0.001 C 
HETATM    8  C   UNK N   1      34.068   8.585  20.588  0.00  0.00    -0.014 C 
HETATM    9  C   UNK N   1      36.032  13.106  16.391  0.00  0.00     0.215 A 
HETATM   10  C   UNK N   1      34.987  12.848  18.727  0.00  0.00     0.042 C 
HETATM   11  C   UNK N   1      35.814  11.942  19.608  0.00  0.00     0.008 C 
HETATM   12  C   UNK N   1      34.788   8.497  18.087  0.00  0.00     0.007 C 
HETATM   13  C   UNK N   1      33.904   7.918  19.197  0.00  0.00     0.012 C 
HETATM   14  C   UNK N   1      36.629  10.425  16.703  0.00  0.00     0.065 C 
HETATM   15  C   UNK N   1      33.353  10.857  21.414  0.00  0.00     0.008 C 
HETATM   16  C   UNK N   1      32.724   8.481  21.298  0.00  0.00     0.126 C 
HETATM   17  C   UNK N   1      34.222  10.410  15.812  0.00  0.00     0.019 C 
HETATM   18  C   UNK N   1      32.419   9.799  21.993  0.00  0.00     0.033 C 
HETATM   19  C   UNK N   1      36.510  12.318  15.192  0.00  0.00     0.091 C 
HETATM   20  C   UNK N   1      35.216   7.899  21.328  0.00  0.00     0.018 C 
HETATM   21  C   UNK N   1      36.840  11.018  15.370  0.00  0.00     0.055 C 
HETATM   22  C   UNK N   1      37.105  10.095  14.307  0.00  0.00     0.097 C 
ENDROOT
BRANCH  19  23
HETATM   23  O   UNK N   1      36.432  12.854  13.963  0.00  0.00    -0.361 OA
HETATM   24  H   UNK N   1      37.030  12.766  13.247  0.00  0.00     0.217 HD
ENDBRANCH  19  23
BRANCH  16  25
HETATM   25  O   UNK N   1      32.687   7.434  22.216  0.00  0.00    -0.395 OA
HETATM   26  H   UNK N   1      31.934   6.830  22.308  0.00  0.00     0.210 HD
ENDBRANCH  16  25
TORSDOF 2
ENDMDL
MODEL 5
REMARK VINA RESULT:      -7.0      2.093      3.591
REMARK  2 active torsions:
REMARK  status: ('A' for Active; 'I' for Inactive)
REMARK    1  A    between atoms: C_18  and  O_2 
REMARK    2  A    between atoms: O_3  and  C_21 
ROOT
HETATM    1  O   UNK N   1      32.822  14.221   4.917  0.00  0.00    -0.361 OA
HETATM    2  N   UNK N   1      34.504  18.466   8.026  0.00  0.00    -0.192 NA
HETATM    3  C   UNK N   1      31.489  16.252   5.787  0.00  0.00    -0.001 C 
HETATM    4  C   UNK N   1      31.907  15.250   4.640  0.00  0.00     0.102 A 
HETATM    5  C   UNK N   1      30.030  16.502   5.723  0.00  0.00     0.001 C 
HETATM    6  C   UNK N   1      29.535  16.881   4.283  0.00  0.00    -0.005 C 
HETATM    7  C   UNK N   1      28.075  16.443   4.293  0.00  0.00     0.001 C 
HETATM    8  C   UNK N   1      27.255  17.201   5.352  0.00  0.00    -0.014 C 
HETATM    9  C   UNK N   1      33.379  15.375   4.322  0.00  0.00     0.215 A 
HETATM   10  C   UNK N   1      30.992  14.995   3.443  0.00  0.00     0.042 C 
HETATM   11  C   UNK N   1      30.315  16.300   3.095  0.00  0.00     0.008 C 
HETATM   12  C   UNK N   1      29.460  17.534   6.697  0.00  0.00     0.007 C 
HETATM   13  C   UNK N   1      27.940  17.347   6.736  0.00  0.00     0.012 C 
HETATM   14  C   UNK N   1      32.241  17.567   5.562  0.00  0.00     0.065 C 
HETATM   15  C   UNK N   1      27.292  15.303   3.693  0.00  0.00     0.008 C 
HETATM   16  C   UNK N   1      26.030  16.317   5.547  0.00  0.00     0.126 C 
HETATM   17  C   UNK N   1      31.766  15.638   7.187  0.00  0.00     0.019 C 
HETATM   18  C   UNK N   1      25.939  15.324   4.398  0.00  0.00     0.033 C 
HETATM   19  C   UNK N   1      34.171  16.110   5.382  0.00  0.00     0.091 C 
HETATM   20  C   UNK N   1      26.935  18.597   4.815  0.00  0.00     0.018 C 
HETATM   21  C   UNK N   1      33.617  17.206   5.949  0.00  0.00     0.055 C 
HETATM   22  C   UNK N   1      34.143  17.879   7.099  0.00  0.00     0.097 C 
ENDROOT
BRANCH  19  23
HETATM   23  O   UNK N   1      35.305  15.575   5.863  0.00  0.00    -0.361 OA
HETATM   24  H   UNK N   1      35.517  14.673   5.996  0.00  0.00     0.217 HD
ENDBRANCH  19  23
BRANCH  16  25
HETATM   25  O   UNK N   1      24.851  17.054   5.638  0.00  0.00    -0.395 OA
HETATM   26  H   UNK N   1      24.437  17.497   4.881  0.00  0.00     0.210 HD
ENDBRANCH  16  25
TORSDOF 2
ENDMDL
MODEL 6
REMARK VINA RESULT:      -6.9     12.106     13.600
REMARK  2 active torsions:
REMARK  status: ('A' for Active; 'I' for Inactive)
REMARK    1  A    between atoms: C_18  and  O_2 
REMARK    2  A    between atoms: O_3  and  C_21 
ROOT
HETATM    1  O   UNK N   1      30.438  24.107  -2.562  0.00  0.00    -0.361 OA
HETATM    2  N   UNK N   1      32.544  19.960  -5.542  0.00  0.00    -0.192 NA
HETATM    3  C   UNK N   1      29.740  23.234  -4.888  0.00  0.00    -0.001 C 
HETATM    4  C   UNK N   1      29.399  23.726  -3.427  0.00  0.00     0.102 A 
HETATM    5  C   UNK N   1      28.777  23.818  -5.850  0.00  0.00     0.001 C 
HETATM    6  C   UNK N   1      27.282  23.635  -5.409  0.00  0.00    -0.005 C 
HETATM    7  C   UNK N   1      26.575  24.799  -6.092  0.00  0.00     0.001 C 
HETATM    8  C   UNK N   1      26.689  24.721  -7.625  0.00  0.00    -0.014 C 
HETATM    9  C   UNK N   1      29.970  22.785  -2.391  0.00  0.00     0.215 A 
HETATM   10  C   UNK N   1      28.032  24.323  -3.096  0.00  0.00     0.042 C 
HETATM   11  C   UNK N   1      26.996  23.575  -3.901  0.00  0.00     0.008 C 
HETATM   12  C   UNK N   1      28.890  23.367  -7.306  0.00  0.00     0.007 C 
HETATM   13  C   UNK N   1      28.098  24.359  -8.164  0.00  0.00     0.012 C 
HETATM   14  C   UNK N   1      29.621  21.707  -4.912  0.00  0.00     0.065 C 
HETATM   15  C   UNK N   1      25.997  26.117  -5.643  0.00  0.00     0.008 C 
HETATM   16  C   UNK N   1      26.388  26.145  -8.073  0.00  0.00     0.126 C 
HETATM   17  C   UNK N   1      31.148  23.728  -5.324  0.00  0.00     0.019 C 
HETATM   18  C   UNK N   1      25.749  26.909  -6.923  0.00  0.00     0.033 C 
HETATM   19  C   UNK N   1      31.021  21.844  -2.937  0.00  0.00     0.091 C 
HETATM   20  C   UNK N   1      25.688  23.684  -8.137  0.00  0.00     0.018 C 
HETATM   21  C   UNK N   1      30.814  21.290  -4.155  0.00  0.00     0.055 C 
HETATM   22  C   UNK N   1      31.800  20.555  -4.890  0.00  0.00     0.097 C 
ENDROOT
BRANCH  19  23
HETATM   23  O   UNK N   1      32.198  21.713  -2.305  0.00  0.00    -0.361 OA
HETATM   24  H   UNK N   1      32.752  20.960  -2.248  0.00  0.00     0.217 HD
ENDBRANCH  19  23
BRANCH  16  25
HETATM   25  O   UNK N   1      25.563  26.187  -9.194  0.00  0.00    -0.395 OA
HETATM   26  H   UNK N   1      24.594  26.181  -9.146  0.00  0.00     0.210 HD
ENDBRANCH  16  25
TORSDOF 2
ENDMDL
MODEL 7
REMARK VINA RESULT:      -6.6      2.934      6.172
REMARK  2 active torsions:
REMARK  status: ('A' for Active; 'I' for Inactive)
REMARK    1  A    between atoms: C_18  and  O_2 
REMARK    2  A    between atoms: O_3  and  C_21 
ROOT
HETATM    1  O   UNK N   1      29.417  16.414   2.483  0.00  0.00    -0.361 OA
HETATM    2  N   UNK N   1      24.804  16.400   5.523  0.00  0.00    -0.192 NA
HETATM    3  C   UNK N   1      29.138  16.403   5.048  0.00  0.00    -0.001 C 
HETATM    4  C   UNK N   1      29.806  15.873   3.719  0.00  0.00     0.102 A 
HETATM    5  C   UNK N   1      30.173  16.566   6.096  0.00  0.00     0.001 C 
HETATM    6  C   UNK N   1      31.086  15.301   6.259  0.00  0.00    -0.005 C 
HETATM    7  C   UNK N   1      32.381  15.879   6.818  0.00  0.00     0.001 C 
HETATM    8  C   UNK N   1      32.166  16.556   8.183  0.00  0.00    -0.014 C 
HETATM    9  C   UNK N   1      28.786  15.199   2.831  0.00  0.00     0.215 A 
HETATM   10  C   UNK N   1      31.193  15.233   3.735  0.00  0.00     0.042 C 
HETATM   11  C   UNK N   1      31.318  14.435   5.011  0.00  0.00     0.008 C 
HETATM   12  C   UNK N   1      29.691  16.973   7.489  0.00  0.00     0.007 C 
HETATM   13  C   UNK N   1      30.909  17.461   8.279  0.00  0.00     0.012 C 
HETATM   14  C   UNK N   1      28.109  15.364   5.506  0.00  0.00     0.065 C 
HETATM   15  C   UNK N   1      33.758  16.155   6.270  0.00  0.00     0.008 C 
HETATM   16  C   UNK N   1      33.384  17.460   8.322  0.00  0.00     0.126 C 
HETATM   17  C   UNK N   1      28.510  17.808   4.831  0.00  0.00     0.019 C 
HETATM   18  C   UNK N   1      34.437  17.045   7.306  0.00  0.00     0.033 C 
HETATM   19  C   UNK N   1      27.353  15.509   3.207  0.00  0.00     0.091 C 
HETATM   20  C   UNK N   1      32.071  15.471   9.256  0.00  0.00     0.018 C 
HETATM   21  C   UNK N   1      27.028  15.543   4.520  0.00  0.00     0.055 C 
HETATM   22  C   UNK N   1      25.781  16.022   5.035  0.00  0.00     0.097 C 
ENDROOT
BRANCH  19  23
HETATM   23  O   UNK N   1      26.485  15.912   2.265  0.00  0.00    -0.361 OA
HETATM   24  H   UNK N   1      25.871  16.619   2.298  0.00  0.00     0.217 HD
ENDBRANCH  19  23
BRANCH  16  25
HETATM   25  O   UNK N   1      33.921  17.436   9.607  0.00  0.00    -0.395 OA
HETATM   26  H   UNK N   1      33.432  17.717  10.396  0.00  0.00     0.210 HD
ENDBRANCH  16  25
TORSDOF 2
ENDMDL
MODEL 8
REMARK VINA RESULT:      -6.5      3.505      5.105
REMARK  2 active torsions:
REMARK  status: ('A' for Active; 'I' for Inactive)
REMARK    1  A    between atoms: C_18  and  O_2 
REMARK    2  A    between atoms: O_3  and  C_21 
ROOT
HETATM    1  O   UNK N   1      33.199  12.557   8.857  0.00  0.00    -0.361 OA
HETATM    2  N   UNK N   1      35.521  17.225  10.679  0.00  0.00    -0.192 NA
HETATM    3  C   UNK N   1      33.291  14.887   7.752  0.00  0.00    -0.001 C 
HETATM    4  C   UNK N   1      33.430  13.315   7.698  0.00  0.00     0.102 A 
HETATM    5  C   UNK N   1      32.591  15.368   6.538  0.00  0.00     0.001 C 
HETATM    6  C   UNK N   1      33.199  14.791   5.211  0.00  0.00    -0.005 C 
HETATM    7  C   UNK N   1      32.022  14.837   4.244  0.00  0.00     0.001 C 
HETATM    8  C   UNK N   1      31.520  16.275   4.017  0.00  0.00    -0.014 C 
HETATM    9  C   UNK N   1      34.556  12.840   8.588  0.00  0.00     0.215 A 
HETATM   10  C   UNK N   1      33.261  12.554   6.384  0.00  0.00     0.042 C 
HETATM   11  C   UNK N   1      33.849  13.401   5.281  0.00  0.00     0.008 C 
HETATM   12  C   UNK N   1      32.459  16.882   6.369  0.00  0.00     0.007 C 
HETATM   13  C   UNK N   1      31.393  17.139   5.299  0.00  0.00     0.012 C 
HETATM   14  C   UNK N   1      34.700  15.485   7.799  0.00  0.00     0.065 C 
HETATM   15  C   UNK N   1      31.087  13.820   3.642  0.00  0.00     0.008 C 
HETATM   16  C   UNK N   1      30.114  16.073   3.468  0.00  0.00     0.126 C 
HETATM   17  C   UNK N   1      32.418  15.324   8.962  0.00  0.00     0.019 C 
HETATM   18  C   UNK N   1      29.949  14.627   3.025  0.00  0.00     0.033 C 
HETATM   19  C   UNK N   1      35.022  13.877   9.585  0.00  0.00     0.091 C 
HETATM   20  C   UNK N   1      32.472  16.975   3.046  0.00  0.00     0.018 C 
HETATM   21  C   UNK N   1      35.129  15.161   9.172  0.00  0.00     0.055 C 
HETATM   22  C   UNK N   1      35.352  16.278  10.040  0.00  0.00     0.097 C 
ENDROOT
BRANCH  19  23
HETATM   23  O   UNK N   1      35.148  13.552  10.882  0.00  0.00    -0.361 OA
HETATM   24  H   UNK N   1      35.060  12.711  11.286  0.00  0.00     0.217 HD
ENDBRANCH  19  23
BRANCH  16  25
HETATM   25  O   UNK N   1      29.827  16.934   2.411  0.00  0.00    -0.395 OA
HETATM   26  H   UNK N   1      29.335  16.664   1.620  0.00  0.00     0.210 HD
ENDBRANCH  16  25
TORSDOF 2
ENDMDL
MODEL 9
REMARK VINA RESULT:      -6.5      7.920     10.749
REMARK  2 active torsions:
REMARK  status: ('A' for Active; 'I' for Inactive)
REMARK    1  A    between atoms: C_18  and  O_2 
REMARK    2  A    between atoms: O_3  and  C_21 
ROOT
HETATM    1  O   UNK N   1      35.936  11.735   9.277  0.00  0.00    -0.361 OA
HETATM    2  N   UNK N   1      35.595  17.102  10.538  0.00  0.00    -0.192 NA
HETATM    3  C   UNK N   1      35.803  12.876  11.588  0.00  0.00    -0.001 C 
HETATM    4  C   UNK N   1      35.360  11.764  10.557  0.00  0.00     0.102 A 
HETATM    5  C   UNK N   1      35.966  12.274  12.932  0.00  0.00     0.001 C 
HETATM    6  C   UNK N   1      34.735  11.404  13.367  0.00  0.00    -0.005 C 
HETATM    7  C   UNK N   1      35.343  10.413  14.353  0.00  0.00     0.001 C 
HETATM    8  C   UNK N   1      35.952  11.121  15.577  0.00  0.00    -0.014 C 
HETATM    9  C   UNK N   1      34.682  12.379   9.355  0.00  0.00     0.215 A 
HETATM   10  C   UNK N   1      34.780  10.434  11.034  0.00  0.00     0.042 C 
HETATM   11  C   UNK N   1      33.934  10.711  12.254  0.00  0.00     0.008 C 
HETATM   12  C   UNK N   1      36.292  13.226  14.083  0.00  0.00     0.007 C 
HETATM   13  C   UNK N   1      36.797  12.382  15.257  0.00  0.00     0.012 C 
HETATM   14  C   UNK N   1      34.703  13.940  11.636  0.00  0.00     0.065 C 
HETATM   15  C   UNK N   1      35.701   8.949  14.320  0.00  0.00     0.008 C 
HETATM   16  C   UNK N   1      36.900  10.076  16.150  0.00  0.00     0.126 C 
HETATM   17  C   UNK N   1      37.188  13.467  11.203  0.00  0.00     0.019 C 
HETATM   18  C   UNK N   1      36.574   8.717  15.549  0.00  0.00     0.033 C 
HETATM   19  C   UNK N   1      34.913  13.868   9.221  0.00  0.00     0.091 C 
HETATM   20  C   UNK N   1      34.818  11.518  16.524  0.00  0.00     0.018 C 
HETATM   21  C   UNK N   1      34.878  14.625  10.342  0.00  0.00     0.055 C 
HETATM   22  C   UNK N   1      35.280  15.998  10.408  0.00  0.00     0.097 C 
ENDROOT
BRANCH  19  23
HETATM   23  O   UNK N   1      35.320  14.381   8.048  0.00  0.00    -0.361 OA
HETATM   24  H   UNK N   1      36.008  14.995   7.885  0.00  0.00     0.217 HD
ENDBRANCH  19  23
BRANCH  16  25
HETATM   25  O   UNK N   1      36.843  10.012  17.541  0.00  0.00    -0.395 OA
HETATM   26  H   UNK N   1      37.324  10.619  18.124  0.00  0.00     0.210 HD
ENDBRANCH  16  25
TORSDOF 2
ENDMDL
