MODEL 1
REMARK VINA RESULT:      -6.7      0.000      0.000
REMARK  6 active torsions:
REMARK  status: ('A' for Active; 'I' for Inactive)
REMARK    1  A    between atoms: O_5  and  C_9 
REMARK    2  A    between atoms: O_5  and  C_12 
REMARK    3  A    between atoms: N_6  and  C_10 
REMARK    4  A    between atoms: C_9  and  C_10 
REMARK    5  A    between atoms: C_9  and  C_11 
REMARK    6  A    between atoms: C_12  and  C_15 
ROOT
HETATM    1  C   UNK N   1      33.191  16.393   7.766  0.00  0.00     0.174 C 
ENDROOT
BRANCH   1   2
HETATM    2  O   UNK N   1      32.218  17.366   8.062  0.00  0.00    -0.375 OA
BRANCH   2   3
HETATM    3  C   UNK N   1      30.987  16.701   7.962  0.00  0.00     0.209 C 
BRANCH   3   4
HETATM    4  C   UNK N   1      29.883  17.520   7.369  0.00  0.00    -0.013 A 
HETATM    5  C   UNK N   1      29.175  18.416   8.192  0.00  0.00     0.044 A 
HETATM    6 Cl   UNK N   1      29.548  18.572   9.904  0.00  0.00    -0.084 Cl
HETATM    7  C   UNK N   1      28.151  19.198   7.654  0.00  0.00     0.048 A 
HETATM    8  C   UNK N   1      27.825  19.096   6.301  0.00  0.00     0.035 A 
HETATM    9 Cl   UNK N   1      26.550  20.092   5.637  0.00  0.00    -0.084 Cl
HETATM   10  C   UNK N   1      28.520  18.202   5.480  0.00  0.00     0.024 A 
HETATM   11  C   UNK N   1      29.545  17.414   6.012  0.00  0.00     0.012 A 
ENDBRANCH   3   4
ENDBRANCH   2   3
ENDBRANCH   1   2
BRANCH   1  12
HETATM   12  C   UNK N   1      34.172  16.930   6.696  0.00  0.00     0.166 C 
BRANCH  12  13
HETATM   13  N   UNK N   1      33.698  16.711   5.339  0.00  0.00    -0.349 N 
HETATM   14  C   UNK N   1      32.994  17.589   4.608  0.00  0.00     0.108 A 
HETATM   15  C   UNK N   1      32.739  17.003   3.385  0.00  0.00     0.106 A 
HETATM   16  N   UNK N   1      33.298  15.772   3.373  0.00  0.00    -0.361 N 
HETATM   17  C   UNK N   1      33.878  15.618   4.579  0.00  0.00     0.182 A 
ATOM     18  HN  UNK N   1      33.283  15.098   2.608  1.00  0.00     0.166 HD
ENDBRANCH  12  13
ENDBRANCH   1  12
BRANCH   1  19
HETATM   19  C   UNK N   1      33.926  15.993   9.038  0.00  0.00    -0.006 A 
HETATM   20  C   UNK N   1      33.782  14.702   9.600  0.00  0.00     0.044 A 
HETATM   21 Cl   UNK N   1      32.762  13.475   8.866  0.00  0.00    -0.084 Cl
HETATM   22  C   UNK N   1      34.462  14.373  10.779  0.00  0.00     0.048 A 
HETATM   23  C   UNK N   1      35.291  15.307  11.405  0.00  0.00     0.035 A 
HETATM   24 Cl   UNK N   1      36.132  14.888  12.882  0.00  0.00    -0.084 Cl
HETATM   25  C   UNK N   1      35.447  16.577  10.855  0.00  0.00     0.024 A 
HETATM   26  C   UNK N   1      34.770  16.916   9.684  0.00  0.00     0.013 A 
ENDBRANCH   1  19
TORSDOF 6
ENDMDL
MODEL 2
REMARK VINA RESULT:      -6.7      6.534     10.700
REMARK  6 active torsions:
REMARK  status: ('A' for Active; 'I' for Inactive)
REMARK    1  A    between atoms: O_5  and  C_9 
REMARK    2  A    between atoms: O_5  and  C_12 
REMARK    3  A    between atoms: N_6  and  C_10 
REMARK    4  A    between atoms: C_9  and  C_10 
REMARK    5  A    between atoms: C_9  and  C_11 
REMARK    6  A    between atoms: C_12  and  C_15 
ROOT
HETATM    1  C   UNK N   1      35.928  12.775  13.917  0.00  0.00     0.174 C 
ENDROOT
BRANCH   1   2
HETATM    2  O   UNK N   1      36.110  13.359  15.185  0.00  0.00    -0.375 OA
BRANCH   2   3
HETATM    3  C   UNK N   1      34.923  13.100  15.886  0.00  0.00     0.209 C 
BRANCH   3   4
HETATM    4  C   UNK N   1      35.109  12.354  17.171  0.00  0.00    -0.013 A 
HETATM    5  C   UNK N   1      35.225  13.076  18.373  0.00  0.00     0.044 A 
HETATM    6 Cl   UNK N   1      35.181  14.835  18.388  0.00  0.00    -0.084 Cl
HETATM    7  C   UNK N   1      35.386  12.398  19.583  0.00  0.00     0.048 A 
HETATM    8  C   UNK N   1      35.430  11.004  19.607  0.00  0.00     0.035 A 
HETATM    9 Cl   UNK N   1      35.617  10.166  21.131  0.00  0.00    -0.084 Cl
HETATM   10  C   UNK N   1      35.323  10.281  18.415  0.00  0.00     0.024 A 
HETATM   11  C   UNK N   1      35.165  10.953  17.199  0.00  0.00     0.012 A 
ENDBRANCH   3   4
ENDBRANCH   2   3
ENDBRANCH   1   2
BRANCH   1  12
HETATM   12  C   UNK N   1      36.644  13.618  12.835  0.00  0.00     0.166 C 
BRANCH  12  13
HETATM   13  N   UNK N   1      35.718  14.382  12.014  0.00  0.00    -0.349 N 
HETATM   14  C   UNK N   1      34.685  13.874  11.324  0.00  0.00     0.108 A 
HETATM   15  C   UNK N   1      34.061  14.921  10.677  0.00  0.00     0.106 A 
HETATM   16  N   UNK N   1      34.712  16.065  10.984  0.00  0.00    -0.361 N 
HETATM   17  C   UNK N   1      35.721  15.709  11.802  0.00  0.00     0.182 A 
ATOM     18  HN  UNK N   1      34.485  17.006  10.662  1.00  0.00     0.166 HD
ENDBRANCH  12  13
ENDBRANCH   1  12
BRANCH   1  19
HETATM   19  C   UNK N   1      36.440  11.341  13.929  0.00  0.00    -0.006 A 
HETATM   20  C   UNK N   1      35.591  10.250  13.629  0.00  0.00     0.044 A 
HETATM   21 Cl   UNK N   1      33.899  10.473  13.212  0.00  0.00    -0.084 Cl
HETATM   22  C   UNK N   1      36.093   8.943  13.664  0.00  0.00     0.048 A 
HETATM   23  C   UNK N   1      37.431   8.705  13.986  0.00  0.00     0.035 A 
HETATM   24 Cl   UNK N   1      38.048   7.067  14.032  0.00  0.00    -0.084 Cl
HETATM   25  C   UNK N   1      38.278   9.773  14.273  0.00  0.00     0.024 A 
HETATM   26  C   UNK N   1      37.787  11.077  14.247  0.00  0.00     0.013 A 
ENDBRANCH   1  19
TORSDOF 6
ENDMDL
MODEL 3
REMARK VINA RESULT:      -6.5      5.790      9.778
REMARK  6 active torsions:
REMARK  status: ('A' for Active; 'I' for Inactive)
REMARK    1  A    between atoms: O_5  and  C_9 
REMARK    2  A    between atoms: O_5  and  C_12 
REMARK    3  A    between atoms: N_6  and  C_10 
REMARK    4  A    between atoms: C_9  and  C_10 
REMARK    5  A    between atoms: C_9  and  C_11 
REMARK    6  A    between atoms: C_12  and  C_15 
ROOT
HETATM    1  C   UNK N   1      34.909  13.043  12.423  0.00  0.00     0.174 C 
ENDROOT
BRANCH   1   2
HETATM    2  O   UNK N   1      34.535  12.725  13.742  0.00  0.00    -0.375 OA
BRANCH   2   3
HETATM    3  C   UNK N   1      35.636  13.081  14.535  0.00  0.00     0.209 C 
BRANCH   3   4
HETATM    4  C   UNK N   1      35.571  12.589  15.947  0.00  0.00    -0.013 A 
HETATM    5  C   UNK N   1      36.006  11.283  16.240  0.00  0.00     0.044 A 
HETATM    6 Cl   UNK N   1      36.600  10.215  14.974  0.00  0.00    -0.084 Cl
HETATM    7  C   UNK N   1      35.966  10.811  17.553  0.00  0.00     0.048 A 
HETATM    8  C   UNK N   1      35.496  11.629  18.580  0.00  0.00     0.035 A 
HETATM    9 Cl   UNK N   1      35.464  11.031  20.224  0.00  0.00    -0.084 Cl
HETATM   10  C   UNK N   1      35.055  12.925  18.295  0.00  0.00     0.024 A 
HETATM   11  C   UNK N   1      35.090  13.404  16.983  0.00  0.00     0.012 A 
ENDBRANCH   3   4
ENDBRANCH   2   3
ENDBRANCH   1   2
BRANCH   1  12
HETATM   12  C   UNK N   1      35.603  14.426  12.384  0.00  0.00     0.166 C 
BRANCH  12  13
HETATM   13  N   UNK N   1      35.072  15.292  11.344  0.00  0.00    -0.349 N 
HETATM   14  C   UNK N   1      34.130  14.952  10.450  0.00  0.00     0.108 A 
HETATM   15  C   UNK N   1      33.910  16.047   9.640  0.00  0.00     0.106 A 
HETATM   16  N   UNK N   1      34.714  17.054  10.050  0.00  0.00    -0.361 N 
HETATM   17  C   UNK N   1      35.413  16.567  11.093  0.00  0.00     0.182 A 
ATOM     18  HN  UNK N   1      34.776  17.991   9.652  1.00  0.00     0.166 HD
ENDBRANCH  12  13
ENDBRANCH   1  12
BRANCH   1  19
HETATM   19  C   UNK N   1      35.815  11.954  11.866  0.00  0.00    -0.006 A 
HETATM   20  C   UNK N   1      35.370  10.617  11.732  0.00  0.00     0.044 A 
HETATM   21 Cl   UNK N   1      33.746  10.127  12.186  0.00  0.00    -0.084 Cl
HETATM   22  C   UNK N   1      36.236   9.639  11.229  0.00  0.00     0.048 A 
HETATM   23  C   UNK N   1      37.538   9.971  10.848  0.00  0.00     0.035 A 
HETATM   24 Cl   UNK N   1      38.615   8.739  10.225  0.00  0.00    -0.084 Cl
HETATM   25  C   UNK N   1      37.983  11.286  10.966  0.00  0.00     0.024 A 
HETATM   26  C   UNK N   1      37.131  12.266  11.471  0.00  0.00     0.013 A 
ENDBRANCH   1  19
TORSDOF 6
ENDMDL
MODEL 4
REMARK VINA RESULT:      -6.4      9.840     12.051
REMARK  6 active torsions:
REMARK  status: ('A' for Active; 'I' for Inactive)
REMARK    1  A    between atoms: O_5  and  C_9 
REMARK    2  A    between atoms: O_5  and  C_12 
REMARK    3  A    between atoms: N_6  and  C_10 
REMARK    4  A    between atoms: C_9  and  C_10 
REMARK    5  A    between atoms: C_9  and  C_11 
REMARK    6  A    between atoms: C_12  and  C_15 
ROOT
HETATM    1  C   UNK N   1      21.674  13.414   7.590  0.00  0.00     0.174 C 
ENDROOT
BRANCH   1   2
HETATM    2  O   UNK N   1      20.939  12.372   6.996  0.00  0.00    -0.375 OA
BRANCH   2   3
HETATM    3  C   UNK N   1      21.765  11.865   5.983  0.00  0.00     0.209 C 
BRANCH   3   4
HETATM    4  C   UNK N   1      22.225  10.457   6.199  0.00  0.00    -0.013 A 
HETATM    5  C   UNK N   1      21.520   9.403   5.588  0.00  0.00     0.044 A 
HETATM    6 Cl   UNK N   1      20.100   9.710   4.596  0.00  0.00    -0.084 Cl
HETATM    7  C   UNK N   1      21.942   8.085   5.767  0.00  0.00     0.048 A 
HETATM    8  C   UNK N   1      23.061   7.805   6.551  0.00  0.00     0.035 A 
HETATM    9 Cl   UNK N   1      23.588   6.149   6.756  0.00  0.00    -0.084 Cl
HETATM   10  C   UNK N   1      23.761   8.846   7.168  0.00  0.00     0.024 A 
HETATM   11  C   UNK N   1      23.344  10.169   6.995  0.00  0.00     0.012 A 
ENDBRANCH   3   4
ENDBRANCH   2   3
ENDBRANCH   1   2
BRANCH   1  12
HETATM   12  C   UNK N   1      20.835  14.714   7.611  0.00  0.00     0.166 C 
BRANCH  12  13
HETATM   13  N   UNK N   1      21.504  15.826   6.957  0.00  0.00    -0.349 N 
HETATM   14  C   UNK N   1      20.980  17.046   6.760  0.00  0.00     0.108 A 
HETATM   15  C   UNK N   1      21.928  17.806   6.106  0.00  0.00     0.106 A 
HETATM   16  N   UNK N   1      23.031  17.047   5.915  0.00  0.00    -0.361 N 
HETATM   17  C   UNK N   1      22.746  15.842   6.444  0.00  0.00     0.182 A 
ATOM     18  HN  UNK N   1      23.900  17.331   5.464  1.00  0.00     0.166 HD
ENDBRANCH  12  13
ENDBRANCH   1  12
BRANCH   1  19
HETATM   19  C   UNK N   1      22.103  13.010   8.994  0.00  0.00    -0.006 A 
HETATM   20  C   UNK N   1      23.468  12.928   9.357  0.00  0.00     0.044 A 
HETATM   21 Cl   UNK N   1      24.756  13.297   8.221  0.00  0.00    -0.084 Cl
HETATM   22  C   UNK N   1      23.825  12.539  10.654  0.00  0.00     0.048 A 
HETATM   23  C   UNK N   1      22.843  12.237  11.600  0.00  0.00     0.035 A 
HETATM   24 Cl   UNK N   1      23.300  11.745  13.217  0.00  0.00    -0.084 Cl
HETATM   25  C   UNK N   1      21.497  12.324  11.256  0.00  0.00     0.024 A 
HETATM   26  C   UNK N   1      21.130  12.704   9.967  0.00  0.00     0.013 A 
ENDBRANCH   1  19
TORSDOF 6
ENDMDL
MODEL 5
REMARK VINA RESULT:      -6.4     10.054     12.046
REMARK  6 active torsions:
REMARK  status: ('A' for Active; 'I' for Inactive)
REMARK    1  A    between atoms: O_5  and  C_9 
REMARK    2  A    between atoms: O_5  and  C_12 
REMARK    3  A    between atoms: N_6  and  C_10 
REMARK    4  A    between atoms: C_9  and  C_10 
REMARK    5  A    between atoms: C_9  and  C_11 
REMARK    6  A    between atoms: C_12  and  C_15 
ROOT
HETATM    1  C   UNK N   1      22.413  16.809   4.418  0.00  0.00     0.174 C 
ENDROOT
BRANCH   1   2
HETATM    2  O   UNK N   1      22.848  16.209   5.615  0.00  0.00    -0.375 OA
BRANCH   2   3
HETATM    3  C   UNK N   1      21.680  15.956   6.349  0.00  0.00     0.209 C 
BRANCH   3   4
HETATM    4  C   UNK N   1      21.867  15.044   7.521  0.00  0.00    -0.013 A 
HETATM    5  C   UNK N   1      20.968  15.122   8.602  0.00  0.00     0.044 A 
HETATM    6 Cl   UNK N   1      19.649  16.286   8.608  0.00  0.00    -0.084 Cl
HETATM    7  C   UNK N   1      21.117  14.271   9.698  0.00  0.00     0.048 A 
HETATM    8  C   UNK N   1      22.155  13.339   9.728  0.00  0.00     0.035 A 
HETATM    9 Cl   UNK N   1      22.323  12.268  11.101  0.00  0.00    -0.084 Cl
HETATM   10  C   UNK N   1      23.056  13.262   8.662  0.00  0.00     0.024 A 
HETATM   11  C   UNK N   1      22.915  14.113   7.562  0.00  0.00     0.012 A 
ENDBRANCH   3   4
ENDBRANCH   2   3
ENDBRANCH   1   2
BRANCH   1  12
HETATM   12  C   UNK N   1      23.095  18.185   4.234  0.00  0.00     0.166 C 
BRANCH  12  13
HETATM   13  N   UNK N   1      22.190  19.196   3.710  0.00  0.00    -0.349 N 
HETATM   14  C   UNK N   1      22.507  20.131   2.801  0.00  0.00     0.108 A 
HETATM   15  C   UNK N   1      21.378  20.892   2.576  0.00  0.00     0.106 A 
HETATM   16  N   UNK N   1      20.374  20.410   3.343  0.00  0.00    -0.361 N 
HETATM   17  C   UNK N   1      20.897  19.374   4.027  0.00  0.00     0.182 A 
ATOM     18  HN  UNK N   1      19.417  20.759   3.394  1.00  0.00     0.166 HD
ENDBRANCH  12  13
ENDBRANCH   1  12
BRANCH   1  19
HETATM   19  C   UNK N   1      22.703  15.886   3.242  0.00  0.00    -0.006 A 
HETATM   20  C   UNK N   1      21.700  15.550   2.301  0.00  0.00     0.044 A 
HETATM   21 Cl   UNK N   1      20.065  16.179   2.418  0.00  0.00    -0.084 Cl
HETATM   22  C   UNK N   1      22.000  14.687   1.240  0.00  0.00     0.048 A 
HETATM   23  C   UNK N   1      23.284  14.159   1.094  0.00  0.00     0.035 A 
HETATM   24 Cl   UNK N   1      23.647  13.076  -0.233  0.00  0.00    -0.084 Cl
HETATM   25  C   UNK N   1      24.280  14.492   2.009  0.00  0.00     0.024 A 
HETATM   26  C   UNK N   1      23.992  15.345   3.072  0.00  0.00     0.013 A 
ENDBRANCH   1  19
TORSDOF 6
ENDMDL
MODEL 6
REMARK VINA RESULT:      -6.3      3.260      4.879
REMARK  6 active torsions:
REMARK  status: ('A' for Active; 'I' for Inactive)
REMARK    1  A    between atoms: O_5  and  C_9 
REMARK    2  A    between atoms: O_5  and  C_12 
REMARK    3  A    between atoms: N_6  and  C_10 
REMARK    4  A    between atoms: C_9  and  C_10 
REMARK    5  A    between atoms: C_9  and  C_11 
REMARK    6  A    between atoms: C_12  and  C_15 
ROOT
HETATM    1  C   UNK N   1      29.650  16.594   5.874  0.00  0.00     0.174 C 
ENDROOT
BRANCH   1   2
HETATM    2  O   UNK N   1      29.287  17.459   4.825  0.00  0.00    -0.375 OA
BRANCH   2   3
HETATM    3  C   UNK N   1      28.663  18.552   5.444  0.00  0.00     0.209 C 
BRANCH   3   4
HETATM    4  C   UNK N   1      27.359  18.956   4.829  0.00  0.00    -0.013 A 
HETATM    5  C   UNK N   1      26.835  20.233   5.107  0.00  0.00     0.044 A 
HETATM    6 Cl   UNK N   1      27.672  21.348   6.180  0.00  0.00    -0.084 Cl
HETATM    7  C   UNK N   1      25.627  20.632   4.533  0.00  0.00     0.048 A 
HETATM    8  C   UNK N   1      24.935  19.771   3.682  0.00  0.00     0.035 A 
HETATM    9 Cl   UNK N   1      23.429  20.289   2.957  0.00  0.00    -0.084 Cl
HETATM   10  C   UNK N   1      25.445  18.498   3.408  0.00  0.00     0.024 A 
HETATM   11  C   UNK N   1      26.653  18.090   3.981  0.00  0.00     0.012 A 
ENDBRANCH   3   4
ENDBRANCH   2   3
ENDBRANCH   1   2
BRANCH   1  12
HETATM   12  C   UNK N   1      29.780  15.145   5.348  0.00  0.00     0.166 C 
BRANCH  12  13
HETATM   13  N   UNK N   1      28.586  14.689   4.656  0.00  0.00    -0.349 N 
HETATM   14  C   UNK N   1      27.396  14.450   5.228  0.00  0.00     0.108 A 
HETATM   15  C   UNK N   1      26.533  14.033   4.236  0.00  0.00     0.106 A 
HETATM   16  N   UNK N   1      27.200  14.028   3.060  0.00  0.00    -0.361 N 
HETATM   17  C   UNK N   1      28.452  14.432   3.344  0.00  0.00     0.182 A 
ATOM     18  HN  UNK N   1      26.830  13.770   2.145  1.00  0.00     0.166 HD
ENDBRANCH  12  13
ENDBRANCH   1  12
BRANCH   1  19
HETATM   19  C   UNK N   1      30.949  17.071   6.510  0.00  0.00    -0.006 A 
HETATM   20  C   UNK N   1      31.018  17.423   7.879  0.00  0.00     0.044 A 
HETATM   21 Cl   UNK N   1      29.619  17.323   8.936  0.00  0.00    -0.084 Cl
HETATM   22  C   UNK N   1      32.226  17.871   8.426  0.00  0.00     0.048 A 
HETATM   23  C   UNK N   1      33.372  17.966   7.634  0.00  0.00     0.035 A 
HETATM   24 Cl   UNK N   1      34.877  18.532   8.326  0.00  0.00    -0.084 Cl
HETATM   25  C   UNK N   1      33.318  17.613   6.288  0.00  0.00     0.024 A 
HETATM   26  C   UNK N   1      32.119  17.171   5.731  0.00  0.00     0.013 A 
ENDBRANCH   1  19
TORSDOF 6
ENDMDL
MODEL 7
REMARK VINA RESULT:      -6.3     13.348     16.529
REMARK  6 active torsions:
REMARK  status: ('A' for Active; 'I' for Inactive)
REMARK    1  A    between atoms: O_5  and  C_9 
REMARK    2  A    between atoms: O_5  and  C_12 
REMARK    3  A    between atoms: N_6  and  C_10 
REMARK    4  A    between atoms: C_9  and  C_10 
REMARK    5  A    between atoms: C_9  and  C_11 
REMARK    6  A    between atoms: C_12  and  C_15 
ROOT
HETATM    1  C   UNK N   1      27.271  24.769  -4.361  0.00  0.00     0.174 C 
ENDROOT
BRANCH   1   2
HETATM    2  O   UNK N   1      26.257  23.889  -4.784  0.00  0.00    -0.375 OA
BRANCH   2   3
HETATM    3  C   UNK N   1      25.718  24.473  -5.940  0.00  0.00     0.209 C 
BRANCH   3   4
HETATM    4  C   UNK N   1      25.752  23.597  -7.154  0.00  0.00    -0.013 A 
HETATM    5  C   UNK N   1      25.923  24.187  -8.421  0.00  0.00     0.044 A 
HETATM    6 Cl   UNK N   1      26.073  25.930  -8.603  0.00  0.00    -0.084 Cl
HETATM    7  C   UNK N   1      25.970  23.386  -9.563  0.00  0.00     0.048 A 
HETATM    8  C   UNK N   1      25.849  22.000  -9.455  0.00  0.00     0.035 A 
HETATM    9 Cl   UNK N   1      25.924  21.006 -10.893  0.00  0.00    -0.084 Cl
HETATM   10  C   UNK N   1      25.671  21.409  -8.201  0.00  0.00     0.024 A 
HETATM   11  C   UNK N   1      25.620  22.205  -7.052  0.00  0.00     0.012 A 
ENDBRANCH   3   4
ENDBRANCH   2   3
ENDBRANCH   1   2
BRANCH   1  12
HETATM   12  C   UNK N   1      26.772  25.624  -3.172  0.00  0.00     0.166 C 
BRANCH  12  13
HETATM   13  N   UNK N   1      26.697  27.041  -3.491  0.00  0.00    -0.349 N 
HETATM   14  C   UNK N   1      27.748  27.857  -3.667  0.00  0.00     0.108 A 
HETATM   15  C   UNK N   1      27.255  29.115  -3.950  0.00  0.00     0.106 A 
HETATM   16  N   UNK N   1      25.904  29.057  -3.955  0.00  0.00    -0.361 N 
HETATM   17  C   UNK N   1      25.589  27.778  -3.671  0.00  0.00     0.182 A 
ATOM     18  HN  UNK N   1      25.257  29.824  -4.136  1.00  0.00     0.166 HD
ENDBRANCH  12  13
ENDBRANCH   1  12
BRANCH   1  19
HETATM   19  C   UNK N   1      28.518  23.979  -3.988  0.00  0.00    -0.006 A 
HETATM   20  C   UNK N   1      29.472  23.599  -4.962  0.00  0.00     0.044 A 
HETATM   21 Cl   UNK N   1      29.290  24.022  -6.657  0.00  0.00    -0.084 Cl
HETATM   22  C   UNK N   1      30.600  22.860  -4.585  0.00  0.00     0.048 A 
HETATM   23  C   UNK N   1      30.799  22.499  -3.251  0.00  0.00     0.035 A 
HETATM   24 Cl   UNK N   1      32.210  21.571  -2.790  0.00  0.00    -0.084 Cl
HETATM   25  C   UNK N   1      29.871  22.876  -2.283  0.00  0.00     0.024 A 
HETATM   26  C   UNK N   1      28.742  23.607  -2.648  0.00  0.00     0.013 A 
ENDBRANCH   1  19
TORSDOF 6
ENDMDL
MODEL 8
REMARK VINA RESULT:      -6.2      3.219      4.679
REMARK  6 active torsions:
REMARK  status: ('A' for Active; 'I' for Inactive)
REMARK    1  A    between atoms: O_5  and  C_9 
REMARK    2  A    between atoms: O_5  and  C_12 
REMARK    3  A    between atoms: N_6  and  C_10 
REMARK    4  A    between atoms: C_9  and  C_10 
REMARK    5  A    between atoms: C_9  and  C_11 
REMARK    6  A    between atoms: C_12  and  C_15 
ROOT
HETATM    1  C   UNK N   1      29.903  16.352   5.921  0.00  0.00     0.174 C 
ENDROOT
BRANCH   1   2
HETATM    2  O   UNK N   1      28.888  17.326   5.875  0.00  0.00    -0.375 OA
BRANCH   2   3
HETATM    3  C   UNK N   1      28.886  17.796   4.554  0.00  0.00     0.209 C 
BRANCH   3   4
HETATM    4  C   UNK N   1      27.629  18.501   4.146  0.00  0.00    -0.013 A 
HETATM    5  C   UNK N   1      26.490  17.740   3.820  0.00  0.00     0.044 A 
HETATM    6 Cl   UNK N   1      26.526  15.981   3.861  0.00  0.00    -0.084 Cl
HETATM    7  C   UNK N   1      25.306  18.379   3.450  0.00  0.00     0.048 A 
HETATM    8  C   UNK N   1      25.244  19.772   3.402  0.00  0.00     0.035 A 
HETATM    9 Cl   UNK N   1      23.749  20.561   2.950  0.00  0.00    -0.084 Cl
HETATM   10  C   UNK N   1      26.374  20.533   3.716  0.00  0.00     0.024 A 
HETATM   11  C   UNK N   1      27.564  19.901   4.085  0.00  0.00     0.012 A 
ENDBRANCH   3   4
ENDBRANCH   2   3
ENDBRANCH   1   2
BRANCH   1  12
HETATM   12  C   UNK N   1      30.191  15.815   4.499  0.00  0.00     0.166 C 
BRANCH  12  13
HETATM   13  N   UNK N   1      30.195  14.363   4.436  0.00  0.00    -0.349 N 
HETATM   14  C   UNK N   1      29.455  13.616   3.602  0.00  0.00     0.108 A 
HETATM   15  C   UNK N   1      29.745  12.292   3.860  0.00  0.00     0.106 A 
HETATM   16  N   UNK N   1      30.670  12.238   4.845  0.00  0.00    -0.361 N 
HETATM   17  C   UNK N   1      30.928  13.517   5.179  0.00  0.00     0.182 A 
ATOM     18  HN  UNK N   1      31.087  11.401   5.251  1.00  0.00     0.166 HD
ENDBRANCH  12  13
ENDBRANCH   1  12
BRANCH   1  19
HETATM   19  C   UNK N   1      31.156  16.941   6.555  0.00  0.00    -0.006 A 
HETATM   20  C   UNK N   1      31.182  17.339   7.913  0.00  0.00     0.044 A 
HETATM   21 Cl   UNK N   1      29.781  17.172   8.959  0.00  0.00    -0.084 Cl
HETATM   22  C   UNK N   1      32.348  17.890   8.458  0.00  0.00     0.048 A 
HETATM   23  C   UNK N   1      33.494  18.044   7.674  0.00  0.00     0.035 A 
HETATM   24 Cl   UNK N   1      34.946  18.739   8.363  0.00  0.00    -0.084 Cl
HETATM   25  C   UNK N   1      33.483  17.646   6.340  0.00  0.00     0.024 A 
HETATM   26  C   UNK N   1      32.325  17.101   5.786  0.00  0.00     0.013 A 
ENDBRANCH   1  19
TORSDOF 6
ENDMDL
MODEL 9
REMARK VINA RESULT:      -6.2      3.746      6.913
REMARK  6 active torsions:
REMARK  status: ('A' for Active; 'I' for Inactive)
REMARK    1  A    between atoms: O_5  and  C_9 
REMARK    2  A    between atoms: O_5  and  C_12 
REMARK    3  A    between atoms: N_6  and  C_10 
REMARK    4  A    between atoms: C_9  and  C_10 
REMARK    5  A    between atoms: C_9  and  C_11 
REMARK    6  A    between atoms: C_12  and  C_15 
ROOT
HETATM    1  C   UNK N   1      29.701  16.492   5.836  0.00  0.00     0.174 C 
ENDROOT
BRANCH   1   2
HETATM    2  O   UNK N   1      29.293  15.803   4.679  0.00  0.00    -0.375 OA
BRANCH   2   3
HETATM    3  C   UNK N   1      28.135  15.106   5.052  0.00  0.00     0.209 C 
BRANCH   3   4
HETATM    4  C   UNK N   1      27.146  14.903   3.946  0.00  0.00    -0.013 A 
HETATM    5  C   UNK N   1      26.407  13.706   3.896  0.00  0.00     0.044 A 
HETATM    6 Cl   UNK N   1      26.642  12.439   5.095  0.00  0.00    -0.084 Cl
HETATM    7  C   UNK N   1      25.471  13.504   2.881  0.00  0.00     0.048 A 
HETATM    8  C   UNK N   1      25.263  14.486   1.911  0.00  0.00     0.035 A 
HETATM    9 Cl   UNK N   1      24.077  14.227   0.652  0.00  0.00    -0.084 Cl
HETATM   10  C   UNK N   1      26.000  15.674   1.950  0.00  0.00     0.024 A 
HETATM   11  C   UNK N   1      26.941  15.882   2.962  0.00  0.00     0.012 A 
ENDBRANCH   3   4
ENDBRANCH   2   3
ENDBRANCH   1   2
BRANCH   1  12
HETATM   12  C   UNK N   1      31.231  16.721   5.808  0.00  0.00     0.166 C 
BRANCH  12  13
HETATM   13  N   UNK N   1      31.845  16.578   7.118  0.00  0.00    -0.349 N 
HETATM   14  C   UNK N   1      32.020  15.421   7.776  0.00  0.00     0.108 A 
HETATM   15  C   UNK N   1      32.632  15.713   8.977  0.00  0.00     0.106 A 
HETATM   16  N   UNK N   1      32.836  17.048   9.042  0.00  0.00    -0.361 N 
HETATM   17  C   UNK N   1      32.347  17.553   7.894  0.00  0.00     0.182 A 
ATOM     18  HN  UNK N   1      33.272  17.567   9.805  1.00  0.00     0.166 HD
ENDBRANCH  12  13
ENDBRANCH   1  12
BRANCH   1  19
HETATM   19  C   UNK N   1      28.947  17.810   5.947  0.00  0.00    -0.006 A 
HETATM   20  C   UNK N   1      28.468  18.287   7.190  0.00  0.00     0.044 A 
HETATM   21 Cl   UNK N   1      28.720  17.401   8.686  0.00  0.00    -0.084 Cl
HETATM   22  C   UNK N   1      27.766  19.497   7.252  0.00  0.00     0.048 A 
HETATM   23  C   UNK N   1      27.539  20.245   6.095  0.00  0.00     0.035 A 
HETATM   24 Cl   UNK N   1      26.655  21.754   6.181  0.00  0.00    -0.084 Cl
HETATM   25  C   UNK N   1      28.014  19.790   4.868  0.00  0.00     0.024 A 
HETATM   26  C   UNK N   1      28.710  18.585   4.794  0.00  0.00     0.013 A 
ENDBRANCH   1  19
TORSDOF 6
ENDMDL
