REMARK  6 active torsions:
REMARK  status: ('A' for Active; 'I' for Inactive)
REMARK    1  A    between atoms: O_5  and  C_9 
REMARK    2  A    between atoms: O_5  and  C_12 
REMARK    3  A    between atoms: N_6  and  C_10 
REMARK    4  A    between atoms: C_9  and  C_10 
REMARK    5  A    between atoms: C_9  and  C_11 
REMARK    6  A    between atoms: C_12  and  C_15 
ROOT
HETATM    1  C   UNK N   1       5.602   0.117  -0.156  0.00  0.00     0.174 C 
ENDROOT
BRANCH   1   2
HETATM    2  O   UNK N   1       4.629   0.773   0.621  0.00  0.00    -0.375 OA
BRANCH   2   3
HETATM    3  C   UNK N   1       4.427   2.011  -0.006  0.00  0.00     0.209 C 
BRANCH   3   4
HETATM    4  C   UNK N   1       3.033   2.546   0.106  0.00  0.00    -0.013 A 
HETATM    5  C   UNK N   1       2.756   3.844  -0.363  0.00  0.00     0.044 A 
HETATM    6 Cl   UNK N   1       4.021   4.853  -1.054  0.00  0.00    -0.084 Cl
HETATM    7  C   UNK N   1       1.460   4.355  -0.279  0.00  0.00     0.048 A 
HETATM    8  C   UNK N   1       0.434   3.584   0.268  0.00  0.00     0.035 A 
HETATM    9 Cl   UNK N   1      -1.189   4.231   0.354  0.00  0.00    -0.084 Cl
HETATM   10  C   UNK N   1       0.704   2.297   0.743  0.00  0.00     0.024 A 
HETATM   11  C   UNK N   1       2.000   1.779   0.665  0.00  0.00     0.012 A 
ENDBRANCH   3   4
ENDBRANCH   2   3
ENDBRANCH   1   2
BRANCH   1  12
HETATM   12  C   UNK N   1       7.020   0.523   0.312  0.00  0.00     0.166 C 
BRANCH  12  13
HETATM   13  N   UNK N   1       7.274   1.947   0.165  0.00  0.00    -0.349 N 
HETATM   14  C   UNK N   1       7.331   2.837   1.168  0.00  0.00     0.108 A 
HETATM   15  C   UNK N   1       7.588   4.074   0.613  0.00  0.00     0.106 A 
HETATM   16  N   UNK N   1       7.696   3.930  -0.727  0.00  0.00    -0.361 N 
HETATM   17  C   UNK N   1       7.500   2.621  -0.975  0.00  0.00     0.182 A 
ATOM     18  HN  UNK N   1       7.887   4.663  -1.410  1.00  0.00     0.166 HD
ENDBRANCH  12  13
ENDBRANCH   1  12
BRANCH   1  19
HETATM   19  C   UNK N   1       5.402  -1.390  -0.070  0.00  0.00    -0.006 A 
HETATM   20  C   UNK N   1       4.180  -1.997  -0.446  0.00  0.00     0.044 A 
HETATM   21 Cl   UNK N   1       2.821  -1.060  -1.046  0.00  0.00    -0.084 Cl
HETATM   22  C   UNK N   1       4.027  -3.385  -0.340  0.00  0.00     0.048 A 
HETATM   23  C   UNK N   1       5.075  -4.181   0.127  0.00  0.00     0.035 A 
HETATM   24 Cl   UNK N   1       4.872  -5.915   0.261  0.00  0.00    -0.084 Cl
HETATM   25  C   UNK N   1       6.285  -3.595   0.490  0.00  0.00     0.024 A 
HETATM   26  C   UNK N   1       6.446  -2.214   0.394  0.00  0.00     0.013 A 
ENDBRANCH   1  19
TORSDOF 6
