MODEL 1
REMARK VINA RESULT:      -6.5      0.000      0.000
REMARK  11 active torsions:
REMARK  status: ('A' for Active; 'I' for Inactive)
REMARK    1  A    between atoms: O_4  and  C_18 
REMARK    2  A    between atoms: O_4  and  C_25 
REMARK    3  A    between atoms: N_6  and  C_13 
REMARK    4  A    between atoms: N_6  and  C_16 
REMARK    5  A    between atoms: N_6  and  C_17 
REMARK    6  A    between atoms: C_7  and  C_8 
REMARK    7  A    between atoms: C_7  and  C_10 
REMARK    8  A    between atoms: C_9  and  C_15 
REMARK    9  A    between atoms: C_10  and  C_14 
REMARK   10  A    between atoms: C_13  and  C_18 
REMARK   11  A    between atoms: C_15  and  C_20 
ROOT
HETATM    1  I   UNK N   1      28.554  17.931   8.663  0.00  0.00    -0.042 I 
HETATM    2  I   UNK N   1      31.872  16.736   3.605  0.00  0.00    -0.042 I 
HETATM    3  C   UNK N   1      27.612  16.941   4.530  0.00  0.00     0.018 A 
HETATM    4  C   UNK N   1      30.001  17.231   6.005  0.00  0.00     0.101 A 
HETATM    5  C   UNK N   1      27.577  17.219   5.904  0.00  0.00     0.036 A 
HETATM    6  C   UNK N   1      28.853  16.809   3.916  0.00  0.00     0.036 A 
HETATM    7  C   UNK N   1      28.751  17.376   6.641  0.00  0.00     0.042 A 
HETATM    8  C   UNK N   1      30.040  16.945   4.633  0.00  0.00     0.042 A 
ENDROOT
BRANCH   3   9
HETATM    9  C   UNK N   1      26.321  16.873   3.786  0.00  0.00     0.195 C 
HETATM   10  O   UNK N   1      26.254  16.059   2.877  0.00  0.00    -0.287 OA
BRANCH   9  11
HETATM   11  C   UNK N   1      25.061  17.638   4.121  0.00  0.00     0.058 A 
HETATM   12  C   UNK N   1      24.618  18.954   3.850  0.00  0.00     0.069 A 
HETATM   13  O   UNK N   1      23.453  19.160   4.439  0.00  0.00    -0.313 OA
HETATM   14  C   UNK N   1      23.107  18.075   5.075  0.00  0.00     0.087 A 
HETATM   15  C   UNK N   1      24.054  17.103   4.913  0.00  0.00     0.014 A 
HETATM   16  C   UNK N   1      21.970  17.881   5.854  0.00  0.00     0.038 A 
HETATM   17  C   UNK N   1      23.923  15.856   5.526  0.00  0.00     0.015 A 
HETATM   18  C   UNK N   1      22.785  15.623   6.318  0.00  0.00     0.001 A 
HETATM   19  C   UNK N   1      21.812  16.634   6.483  0.00  0.00     0.003 A 
BRANCH  12  20
HETATM   20  C   UNK N   1      25.288  20.042   3.089  0.00  0.00     0.066 C 
BRANCH  20  21
HETATM   21  C   UNK N   1      26.580  20.478   3.757  0.00  0.00     0.006 C 
BRANCH  21  22
HETATM   22  C   UNK N   1      26.329  20.789   5.223  0.00  0.00    -0.004 C 
HETATM   23  C   UNK N   1      27.640  20.980   5.966  0.00  0.00     0.005 C 
ENDBRANCH  21  22
ENDBRANCH  20  21
ENDBRANCH  12  20
ENDBRANCH   9  11
ENDBRANCH   3   9
BRANCH   4  24
HETATM   24  O   UNK N   1      31.156  17.371   6.688  0.00  0.00    -0.347 OA
BRANCH  24  25
HETATM   25  C   UNK N   1      31.759  16.274   7.255  0.00  0.00     0.206 C 
BRANCH  25  26
HETATM   26  C   UNK N   1      32.353  16.631   8.617  0.00  0.00     0.299 C 
BRANCH  26  27
HETATM   27  N   UNK N   1      33.736  16.158   8.777  0.00  0.00     0.089 N 
BRANCH  27  28
HETATM   28  C   UNK N   1      34.614  17.247   9.183  0.00  0.00     0.268 C 
HETATM   29  C   UNK N   1      34.547  18.369   8.167  0.00  0.00     0.037 C 
ENDBRANCH  27  28
BRANCH  27  30
HETATM   30  C   UNK N   1      34.232  15.621   7.517  0.00  0.00     0.268 C 
HETATM   31  C   UNK N   1      34.765  14.218   7.735  0.00  0.00     0.037 C 
ENDBRANCH  27  30
ENDBRANCH  26  27
ENDBRANCH  25  26
ENDBRANCH  24  25
ENDBRANCH   4  24
TORSDOF 11
ENDMDL
MODEL 2
REMARK VINA RESULT:      -6.5      7.709     13.202
REMARK  11 active torsions:
REMARK  status: ('A' for Active; 'I' for Inactive)
REMARK    1  A    between atoms: O_4  and  C_18 
REMARK    2  A    between atoms: O_4  and  C_25 
REMARK    3  A    between atoms: N_6  and  C_13 
REMARK    4  A    between atoms: N_6  and  C_16 
REMARK    5  A    between atoms: N_6  and  C_17 
REMARK    6  A    between atoms: C_7  and  C_8 
REMARK    7  A    between atoms: C_7  and  C_10 
REMARK    8  A    between atoms: C_9  and  C_15 
REMARK    9  A    between atoms: C_10  and  C_14 
REMARK   10  A    between atoms: C_13  and  C_18 
REMARK   11  A    between atoms: C_15  and  C_20 
ROOT
HETATM    1  I   UNK N   1      38.518  11.434   8.744  0.00  0.00    -0.042 I 
HETATM    2  I   UNK N   1      35.344  16.277  10.863  0.00  0.00    -0.042 I 
HETATM    3  C   UNK N   1      37.013  12.658  12.641  0.00  0.00     0.018 A 
HETATM    4  C   UNK N   1      36.873  13.731  10.035  0.00  0.00     0.101 A 
HETATM    5  C   UNK N   1      37.571  11.972  11.553  0.00  0.00     0.036 A 
HETATM    6  C   UNK N   1      36.388  13.877  12.402  0.00  0.00     0.036 A 
HETATM    7  C   UNK N   1      37.518  12.498  10.262  0.00  0.00     0.042 A 
HETATM    8  C   UNK N   1      36.307  14.416  11.119  0.00  0.00     0.042 A 
ENDROOT
BRANCH   3   9
HETATM    9  C   UNK N   1      37.184  12.081  14.007  0.00  0.00     0.195 C 
HETATM   10  O   UNK N   1      38.157  11.363  14.181  0.00  0.00    -0.287 OA
BRANCH   9  11
HETATM   11  C   UNK N   1      36.329  12.389  15.214  0.00  0.00     0.058 A 
HETATM   12  C   UNK N   1      35.223  11.745  15.817  0.00  0.00     0.069 A 
HETATM   13  O   UNK N   1      34.782  12.472  16.828  0.00  0.00    -0.313 OA
HETATM   14  C   UNK N   1      35.518  13.545  16.926  0.00  0.00     0.087 A 
HETATM   15  C   UNK N   1      36.488  13.548  15.963  0.00  0.00     0.014 A 
HETATM   16  C   UNK N   1      35.367  14.591  17.831  0.00  0.00     0.038 A 
HETATM   17  C   UNK N   1      37.385  14.611  15.843  0.00  0.00     0.015 A 
HETATM   18  C   UNK N   1      37.265  15.684  16.744  0.00  0.00     0.001 A 
HETATM   19  C   UNK N   1      36.257  15.675  17.734  0.00  0.00     0.003 A 
BRANCH  12  20
HETATM   20  C   UNK N   1      34.539  10.480  15.435  0.00  0.00     0.066 C 
BRANCH  20  21
HETATM   21  C   UNK N   1      33.662  10.668  14.210  0.00  0.00     0.006 C 
BRANCH  21  22
HETATM   22  C   UNK N   1      34.211   9.857  13.047  0.00  0.00    -0.004 C 
HETATM   23  C   UNK N   1      34.104  10.637  11.748  0.00  0.00     0.005 C 
ENDBRANCH  21  22
ENDBRANCH  20  21
ENDBRANCH  12  20
ENDBRANCH   9  11
ENDBRANCH   3   9
BRANCH   4  24
HETATM   24  O   UNK N   1      36.798  14.267   8.799  0.00  0.00    -0.347 OA
BRANCH  24  25
HETATM   25  C   UNK N   1      35.834  13.839   7.919  0.00  0.00     0.206 C 
BRANCH  25  26
HETATM   26  C   UNK N   1      35.228  15.022   7.166  0.00  0.00     0.299 C 
BRANCH  26  27
HETATM   27  N   UNK N   1      33.785  14.870   6.930  0.00  0.00     0.089 N 
BRANCH  27  28
HETATM   28  C   UNK N   1      33.095  16.143   7.090  0.00  0.00     0.268 C 
HETATM   29  C   UNK N   1      34.078  17.286   6.935  0.00  0.00     0.037 C 
ENDBRANCH  27  28
BRANCH  27  30
HETATM   30  C   UNK N   1      33.218  13.925   7.882  0.00  0.00     0.268 C 
HETATM   31  C   UNK N   1      32.354  14.666   8.884  0.00  0.00     0.037 C 
ENDBRANCH  27  30
ENDBRANCH  26  27
ENDBRANCH  25  26
ENDBRANCH  24  25
ENDBRANCH   4  24
TORSDOF 11
ENDMDL
MODEL 3
REMARK VINA RESULT:      -6.2      3.086      9.436
REMARK  11 active torsions:
REMARK  status: ('A' for Active; 'I' for Inactive)
REMARK    1  A    between atoms: O_4  and  C_18 
REMARK    2  A    between atoms: O_4  and  C_25 
REMARK    3  A    between atoms: N_6  and  C_13 
REMARK    4  A    between atoms: N_6  and  C_16 
REMARK    5  A    between atoms: N_6  and  C_17 
REMARK    6  A    between atoms: C_7  and  C_8 
REMARK    7  A    between atoms: C_7  and  C_10 
REMARK    8  A    between atoms: C_9  and  C_15 
REMARK    9  A    between atoms: C_10  and  C_14 
REMARK   10  A    between atoms: C_13  and  C_18 
REMARK   11  A    between atoms: C_15  and  C_20 
ROOT
HETATM    1  I   UNK N   1      28.930  17.942   9.221  0.00  0.00    -0.042 I 
HETATM    2  I   UNK N   1      29.844  16.088   3.411  0.00  0.00    -0.042 I 
HETATM    3  C   UNK N   1      32.432  17.215   6.739  0.00  0.00     0.018 A 
HETATM    4  C   UNK N   1      29.644  17.094   6.320  0.00  0.00     0.101 A 
HETATM    5  C   UNK N   1      31.538  17.575   7.757  0.00  0.00     0.036 A 
HETATM    6  C   UNK N   1      31.910  16.800   5.519  0.00  0.00     0.036 A 
HETATM    7  C   UNK N   1      30.158  17.508   7.565  0.00  0.00     0.042 A 
HETATM    8  C   UNK N   1      30.535  16.741   5.296  0.00  0.00     0.042 A 
ENDROOT
BRANCH   3   9
HETATM    9  C   UNK N   1      33.893  17.225   7.041  0.00  0.00     0.195 C 
HETATM   10  O   UNK N   1      34.454  18.311   7.000  0.00  0.00    -0.287 OA
BRANCH   9  11
HETATM   11  C   UNK N   1      34.715  16.041   7.496  0.00  0.00     0.058 A 
HETATM   12  C   UNK N   1      35.209  14.888   6.843  0.00  0.00     0.069 A 
HETATM   13  O   UNK N   1      35.817  14.108   7.718  0.00  0.00    -0.313 OA
HETATM   14  C   UNK N   1      35.753  14.668   8.895  0.00  0.00     0.087 A 
HETATM   15  C   UNK N   1      35.091  15.861   8.821  0.00  0.00     0.014 A 
HETATM   16  C   UNK N   1      36.236  14.160  10.098  0.00  0.00     0.038 A 
HETATM   17  C   UNK N   1      34.866  16.636   9.960  0.00  0.00     0.015 A 
HETATM   18  C   UNK N   1      35.343  16.156  11.192  0.00  0.00     0.001 A 
HETATM   19  C   UNK N   1      36.024  14.920  11.261  0.00  0.00     0.003 A 
BRANCH  12  20
HETATM   20  C   UNK N   1      35.081  14.477   5.419  0.00  0.00     0.066 C 
BRANCH  20  21
HETATM   21  C   UNK N   1      33.763  13.771   5.157  0.00  0.00     0.006 C 
BRANCH  21  22
HETATM   22  C   UNK N   1      33.528  13.645   3.661  0.00  0.00    -0.004 C 
HETATM   23  C   UNK N   1      33.761  14.975   2.965  0.00  0.00     0.005 C 
ENDBRANCH  21  22
ENDBRANCH  20  21
ENDBRANCH  12  20
ENDBRANCH   9  11
ENDBRANCH   3   9
BRANCH   4  24
HETATM   24  O   UNK N   1      28.316  17.022   6.097  0.00  0.00    -0.347 OA
BRANCH  24  25
HETATM   25  C   UNK N   1      27.720  17.876   5.200  0.00  0.00     0.206 C 
BRANCH  25  26
HETATM   26  C   UNK N   1      27.970  19.330   5.593  0.00  0.00     0.299 C 
BRANCH  26  27
HETATM   27  N   UNK N   1      26.800  20.191   5.371  0.00  0.00     0.089 N 
BRANCH  27  28
HETATM   28  C   UNK N   1      26.603  20.447   3.950  0.00  0.00     0.268 C 
HETATM   29  C   UNK N   1      25.170  20.143   3.565  0.00  0.00     0.037 C 
ENDBRANCH  27  28
BRANCH  27  30
HETATM   30  C   UNK N   1      26.985  21.472   6.040  0.00  0.00     0.268 C 
HETATM   31  C   UNK N   1      26.200  21.488   7.338  0.00  0.00     0.037 C 
ENDBRANCH  27  30
ENDBRANCH  26  27
ENDBRANCH  25  26
ENDBRANCH  24  25
ENDBRANCH   4  24
TORSDOF 11
ENDMDL
MODEL 4
REMARK VINA RESULT:      -6.1      3.261      8.696
REMARK  11 active torsions:
REMARK  status: ('A' for Active; 'I' for Inactive)
REMARK    1  A    between atoms: O_4  and  C_18 
REMARK    2  A    between atoms: O_4  and  C_25 
REMARK    3  A    between atoms: N_6  and  C_13 
REMARK    4  A    between atoms: N_6  and  C_16 
REMARK    5  A    between atoms: N_6  and  C_17 
REMARK    6  A    between atoms: C_7  and  C_8 
REMARK    7  A    between atoms: C_7  and  C_10 
REMARK    8  A    between atoms: C_9  and  C_15 
REMARK    9  A    between atoms: C_10  and  C_14 
REMARK   10  A    between atoms: C_13  and  C_18 
REMARK   11  A    between atoms: C_15  and  C_20 
ROOT
HETATM    1  I   UNK N   1      26.455  20.153   3.736  0.00  0.00    -0.042 I 
HETATM    2  I   UNK N   1      25.366  14.770   6.539  0.00  0.00    -0.042 I 
HETATM    3  C   UNK N   1      28.942  17.042   5.492  0.00  0.00     0.018 A 
HETATM    4  C   UNK N   1      26.166  17.384   5.112  0.00  0.00     0.101 A 
HETATM    5  C   UNK N   1      28.444  18.167   4.819  0.00  0.00     0.036 A 
HETATM    6  C   UNK N   1      28.034  16.100   5.963  0.00  0.00     0.036 A 
HETATM    7  C   UNK N   1      27.074  18.353   4.637  0.00  0.00     0.042 A 
HETATM    8  C   UNK N   1      26.661  16.253   5.777  0.00  0.00     0.042 A 
ENDROOT
BRANCH   3   9
HETATM    9  C   UNK N   1      30.412  16.950   5.731  0.00  0.00     0.195 C 
HETATM   10  O   UNK N   1      31.138  17.402   4.857  0.00  0.00    -0.287 OA
BRANCH   9  11
HETATM   11  C   UNK N   1      31.078  16.454   6.993  0.00  0.00     0.058 A 
HETATM   12  C   UNK N   1      31.238  16.996   8.290  0.00  0.00     0.069 A 
HETATM   13  O   UNK N   1      31.978  16.184   9.023  0.00  0.00    -0.313 OA
HETATM   14  C   UNK N   1      32.313  15.153   8.298  0.00  0.00     0.087 A 
HETATM   15  C   UNK N   1      31.786  15.260   7.041  0.00  0.00     0.014 A 
HETATM   16  C   UNK N   1      33.119  14.083   8.675  0.00  0.00     0.038 A 
HETATM   17  C   UNK N   1      32.031  14.291   6.068  0.00  0.00     0.015 A 
HETATM   18  C   UNK N   1      32.839  13.193   6.415  0.00  0.00     0.001 A 
HETATM   19  C   UNK N   1      33.383  13.091   7.715  0.00  0.00     0.003 A 
BRANCH  12  20
HETATM   20  C   UNK N   1      30.751  18.288   8.844  0.00  0.00     0.066 C 
BRANCH  20  21
HETATM   21  C   UNK N   1      29.624  18.080   9.840  0.00  0.00     0.006 C 
BRANCH  21  22
HETATM   22  C   UNK N   1      28.301  17.933   9.106  0.00  0.00    -0.004 C 
HETATM   23  C   UNK N   1      28.037  19.140   8.222  0.00  0.00     0.005 C 
ENDBRANCH  21  22
ENDBRANCH  20  21
ENDBRANCH  12  20
ENDBRANCH   9  11
ENDBRANCH   3   9
BRANCH   4  24
HETATM   24  O   UNK N   1      24.835  17.528   4.948  0.00  0.00    -0.347 OA
BRANCH  24  25
HETATM   25  C   UNK N   1      24.230  17.080   3.799  0.00  0.00     0.206 C 
BRANCH  25  26
HETATM   26  C   UNK N   1      22.710  17.180   3.916  0.00  0.00     0.299 C 
BRANCH  26  27
HETATM   27  N   UNK N   1      22.260  18.494   4.399  0.00  0.00     0.089 N 
BRANCH  27  28
HETATM   28  C   UNK N   1      21.306  18.349   5.490  0.00  0.00     0.268 C 
HETATM   29  C   UNK N   1      21.687  17.164   6.354  0.00  0.00     0.037 C 
ENDBRANCH  27  28
BRANCH  27  30
HETATM   30  C   UNK N   1      21.609  19.228   3.323  0.00  0.00     0.268 C 
HETATM   31  C   UNK N   1      22.524  20.334   2.833  0.00  0.00     0.037 C 
ENDBRANCH  27  30
ENDBRANCH  26  27
ENDBRANCH  25  26
ENDBRANCH  24  25
ENDBRANCH   4  24
TORSDOF 11
ENDMDL
MODEL 5
REMARK VINA RESULT:      -6.1      4.615      7.511
REMARK  11 active torsions:
REMARK  status: ('A' for Active; 'I' for Inactive)
REMARK    1  A    between atoms: O_4  and  C_18 
REMARK    2  A    between atoms: O_4  and  C_25 
REMARK    3  A    between atoms: N_6  and  C_13 
REMARK    4  A    between atoms: N_6  and  C_16 
REMARK    5  A    between atoms: N_6  and  C_17 
REMARK    6  A    between atoms: C_7  and  C_8 
REMARK    7  A    between atoms: C_7  and  C_10 
REMARK    8  A    between atoms: C_9  and  C_15 
REMARK    9  A    between atoms: C_10  and  C_14 
REMARK   10  A    between atoms: C_13  and  C_18 
REMARK   11  A    between atoms: C_15  and  C_20 
ROOT
HETATM    1  I   UNK N   1      36.128  12.597   5.987  0.00  0.00    -0.042 I 
HETATM    2  I   UNK N   1      35.683  15.517  11.400  0.00  0.00    -0.042 I 
HETATM    3  C   UNK N   1      34.106  16.189   7.386  0.00  0.00     0.018 A 
HETATM    4  C   UNK N   1      35.808  14.280   8.578  0.00  0.00     0.101 A 
HETATM    5  C   UNK N   1      34.654  15.146   6.627  0.00  0.00     0.036 A 
HETATM    6  C   UNK N   1      34.425  16.260   8.738  0.00  0.00     0.036 A 
HETATM    7  C   UNK N   1      35.487  14.189   7.208  0.00  0.00     0.042 A 
HETATM    8  C   UNK N   1      35.269  15.327   9.338  0.00  0.00     0.042 A 
ENDROOT
BRANCH   3   9
HETATM    9  C   UNK N   1      33.152  17.125   6.722  0.00  0.00     0.195 C 
HETATM   10  O   UNK N   1      33.641  18.075   6.127  0.00  0.00    -0.287 OA
BRANCH   9  11
HETATM   11  C   UNK N   1      31.654  16.947   6.625  0.00  0.00     0.058 A 
HETATM   12  C   UNK N   1      30.801  16.372   5.653  0.00  0.00     0.069 A 
HETATM   13  O   UNK N   1      29.541  16.540   6.014  0.00  0.00    -0.313 OA
HETATM   14  C   UNK N   1      29.512  17.183   7.148  0.00  0.00     0.087 A 
HETATM   15  C   UNK N   1      30.781  17.457   7.576  0.00  0.00     0.014 A 
HETATM   16  C   UNK N   1      28.386  17.595   7.855  0.00  0.00     0.038 A 
HETATM   17  C   UNK N   1      31.010  18.168   8.755  0.00  0.00     0.015 A 
HETATM   18  C   UNK N   1      29.895  18.597   9.497  0.00  0.00     0.001 A 
HETATM   19  C   UNK N   1      28.587  18.313   9.047  0.00  0.00     0.003 A 
BRANCH  12  20
HETATM   20  C   UNK N   1      31.141  15.710   4.366  0.00  0.00     0.066 C 
BRANCH  20  21
HETATM   21  C   UNK N   1      31.591  16.716   3.321  0.00  0.00     0.006 C 
BRANCH  21  22
HETATM   22  C   UNK N   1      33.085  16.578   3.075  0.00  0.00    -0.004 C 
HETATM   23  C   UNK N   1      33.495  15.116   3.054  0.00  0.00     0.005 C 
ENDBRANCH  21  22
ENDBRANCH  20  21
ENDBRANCH  12  20
ENDBRANCH   9  11
ENDBRANCH   3   9
BRANCH   4  24
HETATM   24  O   UNK N   1      36.615  13.376   9.171  0.00  0.00    -0.347 OA
BRANCH  24  25
HETATM   25  C   UNK N   1      36.077  12.275   9.794  0.00  0.00     0.206 C 
BRANCH  25  26
HETATM   26  C   UNK N   1      36.976  11.811  10.938  0.00  0.00     0.299 C 
BRANCH  26  27
HETATM   27  N   UNK N   1      36.267  10.975  11.918  0.00  0.00     0.089 N 
BRANCH  27  28
HETATM   28  C   UNK N   1      34.927  11.487  12.167  0.00  0.00     0.268 C 
HETATM   29  C   UNK N   1      33.991  10.343  12.499  0.00  0.00     0.037 C 
ENDBRANCH  27  28
BRANCH  27  30
HETATM   30  C   UNK N   1      36.990  10.962  13.183  0.00  0.00     0.268 C 
HETATM   31  C   UNK N   1      36.867  12.317  13.854  0.00  0.00     0.037 C 
ENDBRANCH  27  30
ENDBRANCH  26  27
ENDBRANCH  25  26
ENDBRANCH  24  25
ENDBRANCH   4  24
TORSDOF 11
ENDMDL
MODEL 6
REMARK VINA RESULT:      -6.0      4.880      7.934
REMARK  11 active torsions:
REMARK  status: ('A' for Active; 'I' for Inactive)
REMARK    1  A    between atoms: O_4  and  C_18 
REMARK    2  A    between atoms: O_4  and  C_25 
REMARK    3  A    between atoms: N_6  and  C_13 
REMARK    4  A    between atoms: N_6  and  C_16 
REMARK    5  A    between atoms: N_6  and  C_17 
REMARK    6  A    between atoms: C_7  and  C_8 
REMARK    7  A    between atoms: C_7  and  C_10 
REMARK    8  A    between atoms: C_9  and  C_15 
REMARK    9  A    between atoms: C_10  and  C_14 
REMARK   10  A    between atoms: C_13  and  C_18 
REMARK   11  A    between atoms: C_15  and  C_20 
ROOT
HETATM    1  I   UNK N   1      35.755  14.984  11.914  0.00  0.00    -0.042 I 
HETATM    2  I   UNK N   1      36.724  12.473   6.366  0.00  0.00    -0.042 I 
HETATM    3  C   UNK N   1      34.609  15.995   7.838  0.00  0.00     0.018 A 
HETATM    4  C   UNK N   1      36.047  13.878   9.026  0.00  0.00     0.101 A 
HETATM    5  C   UNK N   1      34.763  15.926   9.230  0.00  0.00     0.036 A 
HETATM    6  C   UNK N   1      35.180  14.993   7.060  0.00  0.00     0.036 A 
HETATM    7  C   UNK N   1      35.482  14.891   9.827  0.00  0.00     0.042 A 
HETATM    8  C   UNK N   1      35.888  13.939   7.635  0.00  0.00     0.042 A 
ENDROOT
BRANCH   3   9
HETATM    9  C   UNK N   1      33.905  17.177   7.259  0.00  0.00     0.195 C 
HETATM   10  O   UNK N   1      34.559  18.204   7.147  0.00  0.00    -0.287 OA
BRANCH   9  11
HETATM   11  C   UNK N   1      32.500  17.190   6.703  0.00  0.00     0.058 A 
HETATM   12  C   UNK N   1      31.216  17.216   7.297  0.00  0.00     0.069 A 
HETATM   13  O   UNK N   1      30.290  17.139   6.357  0.00  0.00    -0.313 OA
HETATM   14  C   UNK N   1      30.878  17.062   5.195  0.00  0.00     0.087 A 
HETATM   15  C   UNK N   1      32.237  17.093   5.343  0.00  0.00     0.014 A 
HETATM   16  C   UNK N   1      30.270  16.928   3.950  0.00  0.00     0.038 A 
HETATM   17  C   UNK N   1      33.087  16.993   4.241  0.00  0.00     0.015 A 
HETATM   18  C   UNK N   1      32.508  16.860   2.967  0.00  0.00     0.001 A 
HETATM   19  C   UNK N   1      31.103  16.825   2.822  0.00  0.00     0.003 A 
BRANCH  12  20
HETATM   20  C   UNK N   1      30.837  17.264   8.734  0.00  0.00     0.066 C 
BRANCH  20  21
HETATM   21  C   UNK N   1      30.339  18.640   9.137  0.00  0.00     0.006 C 
BRANCH  21  22
HETATM   22  C   UNK N   1      28.819  18.669   9.124  0.00  0.00    -0.004 C 
HETATM   23  C   UNK N   1      28.253  17.277   9.346  0.00  0.00     0.005 C 
ENDBRANCH  21  22
ENDBRANCH  20  21
ENDBRANCH  12  20
ENDBRANCH   9  11
ENDBRANCH   3   9
BRANCH   4  24
HETATM   24  O   UNK N   1      36.743  12.859   9.571  0.00  0.00    -0.347 OA
BRANCH  24  25
HETATM   25  C   UNK N   1      36.084  11.834  10.206  0.00  0.00     0.206 C 
BRANCH  25  26
HETATM   26  C   UNK N   1      37.036  11.067  11.121  0.00  0.00     0.299 C 
BRANCH  26  27
HETATM   27  N   UNK N   1      36.575  11.023  12.517  0.00  0.00     0.089 N 
BRANCH  27  28
HETATM   28  C   UNK N   1      37.690  11.191  13.439  0.00  0.00     0.268 C 
HETATM   29  C   UNK N   1      37.252  12.016  14.632  0.00  0.00     0.037 C 
ENDBRANCH  27  28
BRANCH  27  30
HETATM   30  C   UNK N   1      35.945   9.739  12.797  0.00  0.00     0.268 C 
HETATM   31  C   UNK N   1      34.473   9.946  13.094  0.00  0.00     0.037 C 
ENDBRANCH  27  30
ENDBRANCH  26  27
ENDBRANCH  25  26
ENDBRANCH  24  25
ENDBRANCH   4  24
TORSDOF 11
ENDMDL
MODEL 7
REMARK VINA RESULT:      -6.0      6.788     13.215
REMARK  11 active torsions:
REMARK  status: ('A' for Active; 'I' for Inactive)
REMARK    1  A    between atoms: O_4  and  C_18 
REMARK    2  A    between atoms: O_4  and  C_25 
REMARK    3  A    between atoms: N_6  and  C_13 
REMARK    4  A    between atoms: N_6  and  C_16 
REMARK    5  A    between atoms: N_6  and  C_17 
REMARK    6  A    between atoms: C_7  and  C_8 
REMARK    7  A    between atoms: C_7  and  C_10 
REMARK    8  A    between atoms: C_9  and  C_15 
REMARK    9  A    between atoms: C_10  and  C_14 
REMARK   10  A    between atoms: C_13  and  C_18 
REMARK   11  A    between atoms: C_15  and  C_20 
ROOT
HETATM    1  I   UNK N   1      34.442  10.479   8.968  0.00  0.00    -0.042 I 
HETATM    2  I   UNK N   1      35.176  16.456  10.292  0.00  0.00    -0.042 I 
HETATM    3  C   UNK N   1      35.932  12.709  12.397  0.00  0.00     0.018 A 
HETATM    4  C   UNK N   1      34.842  13.417   9.892  0.00  0.00     0.101 A 
HETATM    5  C   UNK N   1      35.480  11.723  11.508  0.00  0.00     0.036 A 
HETATM    6  C   UNK N   1      35.826  14.042  12.014  0.00  0.00     0.036 A 
HETATM    7  C   UNK N   1      34.951  12.061  10.262  0.00  0.00     0.042 A 
HETATM    8  C   UNK N   1      35.284  14.406  10.782  0.00  0.00     0.042 A 
ENDROOT
BRANCH   3   9
HETATM    9  C   UNK N   1      36.569  12.274  13.674  0.00  0.00     0.195 C 
HETATM   10  O   UNK N   1      37.700  11.817  13.595  0.00  0.00    -0.287 OA
BRANCH   9  11
HETATM   11  C   UNK N   1      35.991  12.446  15.060  0.00  0.00     0.058 A 
HETATM   12  C   UNK N   1      35.067  11.702  15.831  0.00  0.00     0.069 A 
HETATM   13  O   UNK N   1      34.833  12.328  16.970  0.00  0.00    -0.313 OA
HETATM   14  C   UNK N   1      35.537  13.427  16.997  0.00  0.00     0.087 A 
HETATM   15  C   UNK N   1      36.271  13.552  15.852  0.00  0.00     0.014 A 
HETATM   16  C   UNK N   1      35.554  14.393  17.999  0.00  0.00     0.038 A 
HETATM   17  C   UNK N   1      37.084  14.665  15.631  0.00  0.00     0.015 A 
HETATM   18  C   UNK N   1      37.128  15.660  16.624  0.00  0.00     0.001 A 
HETATM   19  C   UNK N   1      36.363  15.525  17.804  0.00  0.00     0.003 A 
BRANCH  12  20
HETATM   20  C   UNK N   1      34.358  10.437  15.500  0.00  0.00     0.066 C 
BRANCH  20  21
HETATM   21  C   UNK N   1      35.330   9.289  15.292  0.00  0.00     0.006 C 
BRANCH  21  22
HETATM   22  C   UNK N   1      35.332   8.865  13.833  0.00  0.00    -0.004 C 
HETATM   23  C   UNK N   1      36.722   8.438  13.397  0.00  0.00     0.005 C 
ENDBRANCH  21  22
ENDBRANCH  20  21
ENDBRANCH  12  20
ENDBRANCH   9  11
ENDBRANCH   3   9
BRANCH   4  24
HETATM   24  O   UNK N   1      34.329  13.780   8.698  0.00  0.00    -0.347 OA
BRANCH  24  25
HETATM   25  C   UNK N   1      32.971  13.924   8.546  0.00  0.00     0.206 C 
BRANCH  25  26
HETATM   26  C   UNK N   1      32.630  14.333   7.114  0.00  0.00     0.299 C 
BRANCH  26  27
HETATM   27  N   UNK N   1      31.615  15.394   7.049  0.00  0.00     0.089 N 
BRANCH  27  28
HETATM   28  C   UNK N   1      30.664  15.140   5.975  0.00  0.00     0.268 C 
HETATM   29  C   UNK N   1      31.116  13.947   5.158  0.00  0.00     0.037 C 
ENDBRANCH  27  28
BRANCH  27  30
HETATM   30  C   UNK N   1      32.250  16.681   6.797  0.00  0.00     0.268 C 
HETATM   31  C   UNK N   1      32.038  17.596   7.988  0.00  0.00     0.037 C 
ENDBRANCH  27  30
ENDBRANCH  26  27
ENDBRANCH  25  26
ENDBRANCH  24  25
ENDBRANCH   4  24
TORSDOF 11
ENDMDL
MODEL 8
REMARK VINA RESULT:      -5.9      7.002     13.290
REMARK  11 active torsions:
REMARK  status: ('A' for Active; 'I' for Inactive)
REMARK    1  A    between atoms: O_4  and  C_18 
REMARK    2  A    between atoms: O_4  and  C_25 
REMARK    3  A    between atoms: N_6  and  C_13 
REMARK    4  A    between atoms: N_6  and  C_16 
REMARK    5  A    between atoms: N_6  and  C_17 
REMARK    6  A    between atoms: C_7  and  C_8 
REMARK    7  A    between atoms: C_7  and  C_10 
REMARK    8  A    between atoms: C_9  and  C_15 
REMARK    9  A    between atoms: C_10  and  C_14 
REMARK   10  A    between atoms: C_13  and  C_18 
REMARK   11  A    between atoms: C_15  and  C_20 
ROOT
HETATM    1  I   UNK N   1      35.313  16.455  10.510  0.00  0.00    -0.042 I 
HETATM    2  I   UNK N   1      34.153  10.597   8.972  0.00  0.00    -0.042 I 
HETATM    3  C   UNK N   1      36.090  12.583  12.340  0.00  0.00     0.018 A 
HETATM    4  C   UNK N   1      34.905  13.432   9.924  0.00  0.00     0.101 A 
HETATM    5  C   UNK N   1      36.040  13.944  12.007  0.00  0.00     0.036 A 
HETATM    6  C   UNK N   1      35.544  11.665  11.450  0.00  0.00     0.036 A 
HETATM    7  C   UNK N   1      35.446  14.376  10.821  0.00  0.00     0.042 A 
HETATM    8  C   UNK N   1      34.961  12.070  10.251  0.00  0.00     0.042 A 
ENDROOT
BRANCH   3   9
HETATM    9  C   UNK N   1      36.660  12.198  13.665  0.00  0.00     0.195 C 
HETATM   10  O   UNK N   1      37.785  11.720  13.660  0.00  0.00    -0.287 OA
BRANCH   9  11
HETATM   11  C   UNK N   1      36.020  12.442  15.012  0.00  0.00     0.058 A 
HETATM   12  C   UNK N   1      35.023  11.769  15.755  0.00  0.00     0.069 A 
HETATM   13  O   UNK N   1      34.762  12.442  16.862  0.00  0.00    -0.313 OA
HETATM   14  C   UNK N   1      35.516  13.506  16.892  0.00  0.00     0.087 A 
HETATM   15  C   UNK N   1      36.314  13.559  15.784  0.00  0.00     0.014 A 
HETATM   16  C   UNK N   1      35.530  14.503  17.864  0.00  0.00     0.038 A 
HETATM   17  C   UNK N   1      37.191  14.624  15.573  0.00  0.00     0.015 A 
HETATM   18  C   UNK N   1      37.233  15.648  16.536  0.00  0.00     0.001 A 
HETATM   19  C   UNK N   1      36.403  15.588  17.677  0.00  0.00     0.003 A 
BRANCH  12  20
HETATM   20  C   UNK N   1      34.271  10.528  15.426  0.00  0.00     0.066 C 
BRANCH  20  21
HETATM   21  C   UNK N   1      35.164   9.302  15.479  0.00  0.00     0.006 C 
BRANCH  21  22
HETATM   22  C   UNK N   1      35.688   9.100  16.892  0.00  0.00    -0.004 C 
HETATM   23  C   UNK N   1      35.516   7.656  17.330  0.00  0.00     0.005 C 
ENDBRANCH  21  22
ENDBRANCH  20  21
ENDBRANCH  12  20
ENDBRANCH   9  11
ENDBRANCH   3   9
BRANCH   4  24
HETATM   24  O   UNK N   1      34.328  13.814   8.766  0.00  0.00    -0.347 OA
BRANCH  24  25
HETATM   25  C   UNK N   1      33.150  14.521   8.782  0.00  0.00     0.206 C 
BRANCH  25  26
HETATM   26  C   UNK N   1      32.828  15.063   7.391  0.00  0.00     0.299 C 
BRANCH  26  27
HETATM   27  N   UNK N   1      31.713  16.021   7.396  0.00  0.00     0.089 N 
BRANCH  27  28
HETATM   28  C   UNK N   1      32.030  17.193   6.591  0.00  0.00     0.268 C 
HETATM   29  C   UNK N   1      33.471  17.125   6.128  0.00  0.00     0.037 C 
ENDBRANCH  27  28
BRANCH  27  30
HETATM   30  C   UNK N   1      31.440  16.466   8.756  0.00  0.00     0.268 C 
HETATM   31  C   UNK N   1      30.803  17.842   8.723  0.00  0.00     0.037 C 
ENDBRANCH  27  30
ENDBRANCH  26  27
ENDBRANCH  25  26
ENDBRANCH  24  25
ENDBRANCH   4  24
TORSDOF 11
ENDMDL
MODEL 9
REMARK VINA RESULT:      -5.8      4.710      7.770
REMARK  11 active torsions:
REMARK  status: ('A' for Active; 'I' for Inactive)
REMARK    1  A    between atoms: O_4  and  C_18 
REMARK    2  A    between atoms: O_4  and  C_25 
REMARK    3  A    between atoms: N_6  and  C_13 
REMARK    4  A    between atoms: N_6  and  C_16 
REMARK    5  A    between atoms: N_6  and  C_17 
REMARK    6  A    between atoms: C_7  and  C_8 
REMARK    7  A    between atoms: C_7  and  C_10 
REMARK    8  A    between atoms: C_9  and  C_15 
REMARK    9  A    between atoms: C_10  and  C_14 
REMARK   10  A    between atoms: C_13  and  C_18 
REMARK   11  A    between atoms: C_15  and  C_20 
ROOT
HETATM    1  I   UNK N   1      35.515  15.382  11.568  0.00  0.00    -0.042 I 
HETATM    2  I   UNK N   1      37.142  12.633   6.294  0.00  0.00    -0.042 I 
HETATM    3  C   UNK N   1      34.535  15.964   7.366  0.00  0.00     0.018 A 
HETATM    4  C   UNK N   1      36.128  14.124   8.795  0.00  0.00     0.101 A 
HETATM    5  C   UNK N   1      34.602  16.010   8.766  0.00  0.00     0.036 A 
HETATM    6  C   UNK N   1      35.270  14.988   6.702  0.00  0.00     0.036 A 
HETATM    7  C   UNK N   1      35.395  15.113   9.482  0.00  0.00     0.042 A 
HETATM    8  C   UNK N   1      36.056  14.069   7.396  0.00  0.00     0.042 A 
ENDROOT
BRANCH   3   9
HETATM    9  C   UNK N   1      33.738  17.009   6.659  0.00  0.00     0.195 C 
HETATM   10  O   UNK N   1      34.357  17.968   6.223  0.00  0.00    -0.287 OA
BRANCH   9  11
HETATM   11  C   UNK N   1      32.263  16.937   6.341  0.00  0.00     0.058 A 
HETATM   12  C   UNK N   1      31.530  16.571   5.187  0.00  0.00     0.069 A 
HETATM   13  O   UNK N   1      30.240  16.756   5.402  0.00  0.00    -0.313 OA
HETATM   14  C   UNK N   1      30.079  17.218   6.611  0.00  0.00     0.087 A 
HETATM   15  C   UNK N   1      31.286  17.347   7.239  0.00  0.00     0.014 A 
HETATM   16  C   UNK N   1      28.882  17.582   7.222  0.00  0.00     0.038 A 
HETATM   17  C   UNK N   1      31.377  17.853   8.536  0.00  0.00     0.015 A 
HETATM   18  C   UNK N   1      30.188  18.229   9.185  0.00  0.00     0.001 A 
HETATM   19  C   UNK N   1      28.944  18.096   8.529  0.00  0.00     0.003 A 
BRANCH  12  20
HETATM   20  C   UNK N   1      32.020  16.095   3.865  0.00  0.00     0.066 C 
BRANCH  20  21
HETATM   21  C   UNK N   1      31.778  14.607   3.682  0.00  0.00     0.006 C 
BRANCH  21  22
HETATM   22  C   UNK N   1      33.020  13.825   4.078  0.00  0.00    -0.004 C 
HETATM   23  C   UNK N   1      32.690  12.789   5.137  0.00  0.00     0.005 C 
ENDBRANCH  21  22
ENDBRANCH  20  21
ENDBRANCH  12  20
ENDBRANCH   9  11
ENDBRANCH   3   9
BRANCH   4  24
HETATM   24  O   UNK N   1      36.900  13.237   9.455  0.00  0.00    -0.347 OA
BRANCH  24  25
HETATM   25  C   UNK N   1      36.342  12.102   9.993  0.00  0.00     0.206 C 
BRANCH  25  26
HETATM   26  C   UNK N   1      37.215  11.555  11.121  0.00  0.00     0.299 C 
BRANCH  26  27
HETATM   27  N   UNK N   1      36.443  11.216  12.326  0.00  0.00     0.089 N 
BRANCH  27  28
HETATM   28  C   UNK N   1      35.017  11.416  12.104  0.00  0.00     0.268 C 
HETATM   29  C   UNK N   1      34.224  10.426  12.932  0.00  0.00     0.037 C 
ENDBRANCH  27  28
BRANCH  27  30
HETATM   30  C   UNK N   1      36.852  12.063  13.438  0.00  0.00     0.268 C 
HETATM   31  C   UNK N   1      37.671  11.252  14.423  0.00  0.00     0.037 C 
ENDBRANCH  27  30
ENDBRANCH  26  27
ENDBRANCH  25  26
ENDBRANCH  24  25
ENDBRANCH   4  24
TORSDOF 11
ENDMDL
