REMARK  11 active torsions:
REMARK  status: ('A' for Active; 'I' for Inactive)
REMARK    1  A    between atoms: O_4  and  C_18 
REMARK    2  A    between atoms: O_4  and  C_25 
REMARK    3  A    between atoms: N_6  and  C_13 
REMARK    4  A    between atoms: N_6  and  C_16 
REMARK    5  A    between atoms: N_6  and  C_17 
REMARK    6  A    between atoms: C_7  and  C_8 
REMARK    7  A    between atoms: C_7  and  C_10 
REMARK    8  A    between atoms: C_9  and  C_15 
REMARK    9  A    between atoms: C_10  and  C_14 
REMARK   10  A    between atoms: C_13  and  C_18 
REMARK   11  A    between atoms: C_15  and  C_20 
ROOT
HETATM    1  I   UNK N   1       6.585   4.038  -1.413  0.00  0.00    -0.042 I 
HETATM    2  I   UNK N   1       8.629  -1.664  -0.258  0.00  0.00    -0.042 I 
HETATM    3  C   UNK N   1       4.749   0.325  -0.074  0.00  0.00     0.018 A 
HETATM    4  C   UNK N   1       7.382   1.121  -0.704  0.00  0.00     0.101 A 
HETATM    5  C   UNK N   1       5.030   1.651  -0.432  0.00  0.00     0.036 A 
HETATM    6  C   UNK N   1       5.800  -0.585  -0.035  0.00  0.00     0.036 A 
HETATM    7  C   UNK N   1       6.326   2.053  -0.757  0.00  0.00     0.042 A 
HETATM    8  C   UNK N   1       7.106  -0.204  -0.338  0.00  0.00     0.042 A 
ENDROOT
BRANCH   3   9
HETATM    9  C   UNK N   1       3.328  -0.057   0.174  0.00  0.00     0.195 C 
HETATM   10  O   UNK N   1       2.527   0.859   0.294  0.00  0.00    -0.287 OA
BRANCH   9  11
HETATM   11  C   UNK N   1       2.774  -1.463   0.182  0.00  0.00     0.058 A 
HETATM   12  C   UNK N   1       3.365  -2.745   0.087  0.00  0.00     0.069 A 
HETATM   13  O   UNK N   1       2.421  -3.669   0.067  0.00  0.00    -0.313 OA
HETATM   14  C   UNK N   1       1.258  -3.082   0.140  0.00  0.00     0.087 A 
HETATM   15  C   UNK N   1       1.411  -1.726   0.217  0.00  0.00     0.014 A 
HETATM   16  C   UNK N   1       0.005  -3.687   0.111  0.00  0.00     0.038 A 
HETATM   17  C   UNK N   1       0.306  -0.875   0.273  0.00  0.00     0.015 A 
HETATM   18  C   UNK N   1      -0.976  -1.452   0.249  0.00  0.00     0.001 A 
HETATM   19  C   UNK N   1      -1.126  -2.854   0.166  0.00  0.00     0.003 A 
BRANCH  12  20
HETATM   20  C   UNK N   1       4.799  -3.121  -0.035  0.00  0.00     0.066 C 
BRANCH  20  21
HETATM   21  C   UNK N   1       5.228  -4.059   1.079  0.00  0.00     0.006 C 
BRANCH  21  22
HETATM   22  C   UNK N   1       5.583  -5.421   0.505  0.00  0.00    -0.004 C 
HETATM   23  C   UNK N   1       6.850  -5.341  -0.329  0.00  0.00     0.005 C 
ENDBRANCH  21  22
ENDBRANCH  20  21
ENDBRANCH  12  20
ENDBRANCH   9  11
ENDBRANCH   3   9
BRANCH   4  24
HETATM   24  O   UNK N   1       8.648   1.476  -1.006  0.00  0.00    -0.347 OA
BRANCH  24  25
HETATM   25  C   UNK N   1       9.409   2.162  -0.090  0.00  0.00     0.206 C 
BRANCH  25  26
HETATM   26  C   UNK N   1       9.965   3.445  -0.705  0.00  0.00     0.299 C 
BRANCH  26  27
HETATM   27  N   UNK N   1      10.265   4.476   0.299  0.00  0.00     0.089 N 
BRANCH  27  28
HETATM   28  C   UNK N   1      11.218   3.982   1.284  0.00  0.00     0.268 C 
HETATM   29  C   UNK N   1      12.632   4.271   0.823  0.00  0.00     0.037 C 
ENDBRANCH  27  28
BRANCH  27  30
HETATM   30  C   UNK N   1       9.048   4.862   1.001  0.00  0.00     0.268 C 
HETATM   31  C   UNK N   1       8.601   6.233   0.531  0.00  0.00     0.037 C 
ENDBRANCH  27  30
ENDBRANCH  26  27
ENDBRANCH  25  26
ENDBRANCH  24  25
ENDBRANCH   4  24
TORSDOF 11
