MODEL 1
REMARK VINA RESULT:      -6.5      0.000      0.000
REMARK  8 active torsions:
REMARK  status: ('A' for Active; 'I' for Inactive)
REMARK    1  A    between atoms: S_1  and  C_10 
REMARK    2  A    between atoms: S_1  and  C_14 
REMARK    3  A    between atoms: O_2  and  C_13 
REMARK    4  A    between atoms: O_2  and  C_16 
REMARK    5  A    between atoms: O_3  and  C_21 
REMARK    6  A    between atoms: C_10  and  C_11 
REMARK    7  A    between atoms: C_16  and  C_17 
REMARK    8  A    between atoms: C_17  and  C_21 
ROOT
HETATM    1  N   UNK N   1      34.602  17.573   9.180  0.00  0.00    -0.368 N 
ATOM      2  HN  UNK N   1      35.175  17.916   9.949  1.00  0.00     0.165 HD
HETATM    3  C   UNK N   1      33.980  16.369   9.303  0.00  0.00     0.029 A 
HETATM    4  C   UNK N   1      33.188  15.873   8.251  0.00  0.00    -0.005 A 
HETATM    5  C   UNK N   1      33.067  16.625   7.075  0.00  0.00     0.077 A 
HETATM    6  C   UNK N   1      32.505  14.545   8.365  0.00  0.00     0.053 C 
HETATM    7  C   UNK N   1      33.720  17.865   6.985  0.00  0.00     0.054 A 
HETATM    8  C   UNK N   1      34.479  18.327   8.058  0.00  0.00     0.091 A 
ENDROOT
BRANCH   3   9
HETATM    9  C   UNK N   1      34.228  15.553  10.519  0.00  0.00     0.175 C 
BRANCH   9  10
HETATM   10  S   UNK N   1      35.892  14.850  10.341  0.00  0.00     0.090 S 
HETATM   11  O   UNK N   1      36.546  16.119  10.907  0.00  0.00    -0.249 OA
BRANCH  10  12
HETATM   12  C   UNK N   1      35.805  14.013  11.921  0.00  0.00     0.176 A 
HETATM   13  N   UNK N   1      36.714  14.180  12.914  0.00  0.00    -0.333 N 
HETATM   14  C   UNK N   1      36.284  13.359  13.881  0.00  0.00     0.061 A 
HETATM   15  H   UNK N   1      37.504  14.766  12.922  0.00  0.00     0.168 HD
HETATM   16  C   UNK N   1      35.153  12.723  13.471  0.00  0.00     0.061 A 
HETATM   17  C   UNK N   1      36.854  13.137  15.127  0.00  0.00     0.032 A 
HETATM   18  N   UNK N   1      34.831  13.119  12.233  0.00  0.00    -0.333 N 
HETATM   19  C   UNK N   1      34.490  11.802  14.278  0.00  0.00     0.032 A 
ATOM     20  HN  UNK N   1      34.043  12.820  11.661  1.00  0.00     0.168 HD
HETATM   21  C   UNK N   1      35.037  11.548  15.553  0.00  0.00     0.002 A 
HETATM   22  C   UNK N   1      36.213  12.212  15.975  0.00  0.00     0.002 A 
ENDBRANCH  10  12
ENDBRANCH   9  10
ENDBRANCH   3   9
BRANCH   5  23
HETATM   23  O   UNK N   1      32.346  16.134   6.038  0.00  0.00    -0.350 OA
BRANCH  23  24
HETATM   24  C   UNK N   1      31.239  16.772   5.531  0.00  0.00     0.178 C 
BRANCH  24  25
HETATM   25  C   UNK N   1      30.015  16.360   6.314  0.00  0.00     0.053 C 
BRANCH  25  26
HETATM   26  C   UNK N   1      29.568  17.521   7.175  0.00  0.00     0.169 C 
BRANCH  26  27
HETATM   27  O   UNK N   1      29.855  17.255   8.511  0.00  0.00    -0.396 OA
HETATM   28  C   UNK N   1      30.470  18.419   8.971  0.00  0.00     0.201 C 
ENDBRANCH  26  27
ENDBRANCH  25  26
ENDBRANCH  24  25
ENDBRANCH  23  24
ENDBRANCH   5  23
TORSDOF 8
ENDMDL
MODEL 2
REMARK VINA RESULT:      -6.4      0.388      1.229
REMARK  8 active torsions:
REMARK  status: ('A' for Active; 'I' for Inactive)
REMARK    1  A    between atoms: S_1  and  C_10 
REMARK    2  A    between atoms: S_1  and  C_14 
REMARK    3  A    between atoms: O_2  and  C_13 
REMARK    4  A    between atoms: O_2  and  C_16 
REMARK    5  A    between atoms: O_3  and  C_21 
REMARK    6  A    between atoms: C_10  and  C_11 
REMARK    7  A    between atoms: C_16  and  C_17 
REMARK    8  A    between atoms: C_17  and  C_21 
ROOT
HETATM    1  N   UNK N   1      34.679  17.568   9.214  0.00  0.00    -0.368 N 
ATOM      2  HN  UNK N   1      35.263  17.888   9.986  1.00  0.00     0.165 HD
HETATM    3  C   UNK N   1      34.013  16.387   9.333  0.00  0.00     0.029 A 
HETATM    4  C   UNK N   1      33.206  15.924   8.277  0.00  0.00    -0.005 A 
HETATM    5  C   UNK N   1      33.116  16.683   7.102  0.00  0.00     0.077 A 
HETATM    6  C   UNK N   1      32.474  14.622   8.386  0.00  0.00     0.053 C 
HETATM    7  C   UNK N   1      33.815  17.897   7.017  0.00  0.00     0.054 A 
HETATM    8  C   UNK N   1      34.588  18.328   8.094  0.00  0.00     0.091 A 
ENDROOT
BRANCH   3   9
HETATM    9  C   UNK N   1      34.226  15.561  10.548  0.00  0.00     0.175 C 
BRANCH   9  10
HETATM   10  S   UNK N   1      35.917  14.908  10.439  0.00  0.00     0.090 S 
HETATM   11  O   UNK N   1      36.512  16.211  10.994  0.00  0.00    -0.249 OA
BRANCH  10  12
HETATM   12  C   UNK N   1      35.806  14.106  12.035  0.00  0.00     0.176 A 
HETATM   13  N   UNK N   1      34.872  13.173  12.347  0.00  0.00    -0.333 N 
HETATM   14  C   UNK N   1      35.138  12.871  13.625  0.00  0.00     0.061 A 
HETATM   15  H   UNK N   1      34.165  12.805  11.771  0.00  0.00     0.168 HD
HETATM   16  C   UNK N   1      36.198  13.606  14.058  0.00  0.00     0.061 A 
HETATM   17  C   UNK N   1      34.475  11.967  14.444  0.00  0.00     0.032 A 
HETATM   18  N   UNK N   1      36.637  14.396  13.069  0.00  0.00    -0.333 N 
HETATM   19  C   UNK N   1      36.690  13.499  15.355  0.00  0.00     0.032 A 
ATOM     20  HN  UNK N   1      37.411  15.059  13.090  1.00  0.00     0.168 HD
HETATM   21  C   UNK N   1      36.045  12.591  16.219  0.00  0.00     0.002 A 
HETATM   22  C   UNK N   1      34.943  11.828  15.765  0.00  0.00     0.002 A 
ENDBRANCH  10  12
ENDBRANCH   9  10
ENDBRANCH   3   9
BRANCH   5  23
HETATM   23  O   UNK N   1      32.380  16.221   6.062  0.00  0.00    -0.350 OA
BRANCH  23  24
HETATM   24  C   UNK N   1      31.268  16.876   5.587  0.00  0.00     0.178 C 
BRANCH  24  25
HETATM   25  C   UNK N   1      30.028  16.288   6.217  0.00  0.00     0.053 C 
BRANCH  25  26
HETATM   26  C   UNK N   1      29.295  17.377   6.968  0.00  0.00     0.169 C 
BRANCH  26  27
HETATM   27  O   UNK N   1      30.137  17.939   7.924  0.00  0.00    -0.396 OA
HETATM   28  C   UNK N   1      29.778  17.309   9.115  0.00  0.00     0.201 C 
ENDBRANCH  26  27
ENDBRANCH  25  26
ENDBRANCH  24  25
ENDBRANCH  23  24
ENDBRANCH   5  23
TORSDOF 8
ENDMDL
MODEL 3
REMARK VINA RESULT:      -6.3      2.854      4.598
REMARK  8 active torsions:
REMARK  status: ('A' for Active; 'I' for Inactive)
REMARK    1  A    between atoms: S_1  and  C_10 
REMARK    2  A    between atoms: S_1  and  C_14 
REMARK    3  A    between atoms: O_2  and  C_13 
REMARK    4  A    between atoms: O_2  and  C_16 
REMARK    5  A    between atoms: O_3  and  C_21 
REMARK    6  A    between atoms: C_10  and  C_11 
REMARK    7  A    between atoms: C_16  and  C_17 
REMARK    8  A    between atoms: C_17  and  C_21 
ROOT
HETATM    1  N   UNK N   1      37.744  13.156  11.716  0.00  0.00    -0.368 N 
ATOM      2  HN  UNK N   1      38.231  12.677  12.472  1.00  0.00     0.165 HD
HETATM    3  C   UNK N   1      36.586  13.817  11.988  0.00  0.00     0.029 A 
HETATM    4  C   UNK N   1      35.894  14.481  10.958  0.00  0.00    -0.005 A 
HETATM    5  C   UNK N   1      36.402  14.435   9.654  0.00  0.00     0.077 A 
HETATM    6  C   UNK N   1      34.612  15.202  11.238  0.00  0.00     0.053 C 
HETATM    7  C   UNK N   1      37.602  13.748   9.411  0.00  0.00     0.054 A 
HETATM    8  C   UNK N   1      38.266  13.120  10.463  0.00  0.00     0.091 A 
ENDROOT
BRANCH   3   9
HETATM    9  C   UNK N   1      36.022  13.743  13.360  0.00  0.00     0.175 C 
BRANCH   9  10
HETATM   10  S   UNK N   1      35.004  12.241  13.422  0.00  0.00     0.090 S 
HETATM   11  O   UNK N   1      36.230  11.338  13.219  0.00  0.00    -0.249 OA
BRANCH  10  12
HETATM   12  C   UNK N   1      35.062  12.168  15.209  0.00  0.00     0.176 A 
HETATM   13  N   UNK N   1      35.051  13.263  16.010  0.00  0.00    -0.333 N 
HETATM   14  C   UNK N   1      35.134  12.754  17.247  0.00  0.00     0.061 A 
HETATM   15  H   UNK N   1      34.996  14.209  15.745  0.00  0.00     0.168 HD
HETATM   16  C   UNK N   1      35.195  11.397  17.180  0.00  0.00     0.061 A 
HETATM   17  C   UNK N   1      35.165  13.442  18.452  0.00  0.00     0.032 A 
HETATM   18  N   UNK N   1      35.152  11.002  15.901  0.00  0.00    -0.333 N 
HETATM   19  C   UNK N   1      35.292  10.604  18.320  0.00  0.00     0.032 A 
ATOM     20  HN  UNK N   1      35.181  10.052  15.533  1.00  0.00     0.168 HD
HETATM   21  C   UNK N   1      35.326  11.265  19.565  0.00  0.00     0.002 A 
HETATM   22  C   UNK N   1      35.263  12.677  19.631  0.00  0.00     0.002 A 
ENDBRANCH  10  12
ENDBRANCH   9  10
ENDBRANCH   3   9
BRANCH   5  23
HETATM   23  O   UNK N   1      35.718  15.030   8.647  0.00  0.00    -0.350 OA
BRANCH  23  24
HETATM   24  C   UNK N   1      35.484  14.417   7.439  0.00  0.00     0.178 C 
BRANCH  24  25
HETATM   25  C   UNK N   1      35.126  15.458   6.405  0.00  0.00     0.053 C 
BRANCH  25  26
HETATM   26  C   UNK N   1      34.159  16.447   7.016  0.00  0.00     0.169 C 
BRANCH  26  27
HETATM   27  O   UNK N   1      34.654  17.741   6.873  0.00  0.00    -0.396 OA
HETATM   28  C   UNK N   1      34.277  18.388   8.049  0.00  0.00     0.201 C 
ENDBRANCH  26  27
ENDBRANCH  25  26
ENDBRANCH  24  25
ENDBRANCH  23  24
ENDBRANCH   5  23
TORSDOF 8
ENDMDL
MODEL 4
REMARK VINA RESULT:      -6.3      2.377      7.711
REMARK  8 active torsions:
REMARK  status: ('A' for Active; 'I' for Inactive)
REMARK    1  A    between atoms: S_1  and  C_10 
REMARK    2  A    between atoms: S_1  and  C_14 
REMARK    3  A    between atoms: O_2  and  C_13 
REMARK    4  A    between atoms: O_2  and  C_16 
REMARK    5  A    between atoms: O_3  and  C_21 
REMARK    6  A    between atoms: C_10  and  C_11 
REMARK    7  A    between atoms: C_16  and  C_17 
REMARK    8  A    between atoms: C_17  and  C_21 
ROOT
HETATM    1  N   UNK N   1      35.093  16.518  10.006  0.00  0.00    -0.368 N 
ATOM      2  HN  UNK N   1      35.082  17.485   9.685  1.00  0.00     0.165 HD
HETATM    3  C   UNK N   1      34.771  15.527   9.131  0.00  0.00     0.029 A 
HETATM    4  C   UNK N   1      34.774  14.185   9.553  0.00  0.00    -0.005 A 
HETATM    5  C   UNK N   1      35.092  13.889  10.885  0.00  0.00     0.077 A 
HETATM    6  C   UNK N   1      34.410  13.082   8.607  0.00  0.00     0.053 C 
HETATM    7  C   UNK N   1      35.424  14.937  11.758  0.00  0.00     0.054 A 
HETATM    8  C   UNK N   1      35.427  16.250  11.293  0.00  0.00     0.091 A 
ENDROOT
BRANCH   3   9
HETATM    9  C   UNK N   1      34.328  15.894   7.761  0.00  0.00     0.175 C 
BRANCH   9  10
HETATM   10  S   UNK N   1      34.250  17.706   7.710  0.00  0.00     0.090 S 
HETATM   11  O   UNK N   1      34.201  17.714   6.175  0.00  0.00    -0.249 OA
BRANCH  10  12
HETATM   12  C   UNK N   1      32.473  17.726   7.915  0.00  0.00     0.176 A 
HETATM   13  N   UNK N   1      31.845  18.204   9.019  0.00  0.00    -0.333 N 
HETATM   14  C   UNK N   1      30.546  18.002   8.760  0.00  0.00     0.061 A 
HETATM   15  H   UNK N   1      32.249  18.606   9.821  0.00  0.00     0.168 HD
HETATM   16  C   UNK N   1      30.409  17.418   7.539  0.00  0.00     0.061 A 
HETATM   17  C   UNK N   1      29.458  18.307   9.567  0.00  0.00     0.032 A 
HETATM   18  N   UNK N   1      31.614  17.232   6.985  0.00  0.00    -0.333 N 
HETATM   19  C   UNK N   1      29.163  17.087   7.015  0.00  0.00     0.032 A 
ATOM     20  HN  UNK N   1      31.835  16.817   6.081  1.00  0.00     0.168 HD
HETATM   21  C   UNK N   1      28.031  17.381   7.802  0.00  0.00     0.002 A 
HETATM   22  C   UNK N   1      28.178  17.988   9.072  0.00  0.00     0.002 A 
ENDBRANCH  10  12
ENDBRANCH   9  10
ENDBRANCH   3   9
BRANCH   5  23
HETATM   23  O   UNK N   1      35.051  12.603  11.313  0.00  0.00    -0.350 OA
BRANCH  23  24
HETATM   24  C   UNK N   1      35.472  12.220  12.565  0.00  0.00     0.178 C 
BRANCH  24  25
HETATM   25  C   UNK N   1      34.572  11.125  13.087  0.00  0.00     0.053 C 
BRANCH  25  26
HETATM   26  C   UNK N   1      34.061  11.520  14.455  0.00  0.00     0.169 C 
BRANCH  26  27
HETATM   27  O   UNK N   1      34.384  12.850  14.713  0.00  0.00    -0.396 OA
HETATM   28  C   UNK N   1      34.787  12.856  16.047  0.00  0.00     0.201 C 
ENDBRANCH  26  27
ENDBRANCH  25  26
ENDBRANCH  24  25
ENDBRANCH  23  24
ENDBRANCH   5  23
TORSDOF 8
ENDMDL
MODEL 5
REMARK VINA RESULT:      -6.1      1.590      2.940
REMARK  8 active torsions:
REMARK  status: ('A' for Active; 'I' for Inactive)
REMARK    1  A    between atoms: S_1  and  C_10 
REMARK    2  A    between atoms: S_1  and  C_14 
REMARK    3  A    between atoms: O_2  and  C_13 
REMARK    4  A    between atoms: O_2  and  C_16 
REMARK    5  A    between atoms: O_3  and  C_21 
REMARK    6  A    between atoms: C_10  and  C_11 
REMARK    7  A    between atoms: C_16  and  C_17 
REMARK    8  A    between atoms: C_17  and  C_21 
ROOT
HETATM    1  N   UNK N   1      34.488  17.482   9.217  0.00  0.00    -0.368 N 
ATOM      2  HN  UNK N   1      34.927  17.779  10.088  1.00  0.00     0.165 HD
HETATM    3  C   UNK N   1      33.954  16.233   9.137  0.00  0.00     0.029 A 
HETATM    4  C   UNK N   1      33.347  15.800   7.944  0.00  0.00    -0.005 A 
HETATM    5  C   UNK N   1      33.322  16.663   6.840  0.00  0.00     0.077 A 
HETATM    6  C   UNK N   1      32.764  14.426   7.834  0.00  0.00     0.053 C 
HETATM    7  C   UNK N   1      33.879  17.946   6.960  0.00  0.00     0.054 A 
HETATM    8  C   UNK N   1      34.453  18.341   8.167  0.00  0.00     0.091 A 
ENDROOT
BRANCH   3   9
HETATM    9  C   UNK N   1      34.105  15.312  10.292  0.00  0.00     0.175 C 
BRANCH   9  10
HETATM   10  S   UNK N   1      35.814  14.702  10.247  0.00  0.00     0.090 S 
HETATM   11  O   UNK N   1      36.365  16.052  10.731  0.00  0.00    -0.249 OA
BRANCH  10  12
HETATM   12  C   UNK N   1      35.700  13.994  11.887  0.00  0.00     0.176 A 
HETATM   13  N   UNK N   1      34.823  13.016  12.227  0.00  0.00    -0.333 N 
HETATM   14  C   UNK N   1      35.061  12.814  13.530  0.00  0.00     0.061 A 
HETATM   15  H   UNK N   1      34.166  12.563  11.652  0.00  0.00     0.168 HD
HETATM   16  C   UNK N   1      36.049  13.649  13.949  0.00  0.00     0.061 A 
HETATM   17  C   UNK N   1      34.433  11.916  14.382  0.00  0.00     0.032 A 
HETATM   18  N   UNK N   1      36.469  14.407  12.928  0.00  0.00    -0.333 N 
HETATM   19  C   UNK N   1      36.498  13.659  15.267  0.00  0.00     0.032 A 
ATOM     20  HN  UNK N   1      37.193  15.124  12.931  1.00  0.00     0.168 HD
HETATM   21  C   UNK N   1      35.886  12.761  16.165  0.00  0.00     0.002 A 
HETATM   22  C   UNK N   1      34.859  11.894  15.725  0.00  0.00     0.002 A 
ENDBRANCH  10  12
ENDBRANCH   9  10
ENDBRANCH   3   9
BRANCH   5  23
HETATM   23  O   UNK N   1      32.783  16.238   5.671  0.00  0.00    -0.350 OA
BRANCH  23  24
HETATM   24  C   UNK N   1      32.019  17.047   4.863  0.00  0.00     0.178 C 
BRANCH  24  25
HETATM   25  C   UNK N   1      32.004  16.491   3.459  0.00  0.00     0.053 C 
BRANCH  25  26
HETATM   26  C   UNK N   1      33.353  15.876   3.160  0.00  0.00     0.169 C 
BRANCH  26  27
HETATM   27  O   UNK N   1      33.189  14.739   2.373  0.00  0.00    -0.396 OA
HETATM   28  C   UNK N   1      34.463  14.176   2.309  0.00  0.00     0.201 C 
ENDBRANCH  26  27
ENDBRANCH  25  26
ENDBRANCH  24  25
ENDBRANCH  23  24
ENDBRANCH   5  23
TORSDOF 8
ENDMDL
MODEL 6
REMARK VINA RESULT:      -5.9      4.646     10.071
REMARK  8 active torsions:
REMARK  status: ('A' for Active; 'I' for Inactive)
REMARK    1  A    between atoms: S_1  and  C_10 
REMARK    2  A    between atoms: S_1  and  C_14 
REMARK    3  A    between atoms: O_2  and  C_13 
REMARK    4  A    between atoms: O_2  and  C_16 
REMARK    5  A    between atoms: O_3  and  C_21 
REMARK    6  A    between atoms: C_10  and  C_11 
REMARK    7  A    between atoms: C_16  and  C_17 
REMARK    8  A    between atoms: C_17  and  C_21 
ROOT
HETATM    1  N   UNK N   1      35.109  13.620  17.151  0.00  0.00    -0.368 N 
ATOM      2  HN  UNK N   1      35.037  14.525  16.687  1.00  0.00     0.165 HD
HETATM    3  C   UNK N   1      35.106  12.488  16.397  0.00  0.00     0.029 A 
HETATM    4  C   UNK N   1      35.199  11.228  17.016  0.00  0.00    -0.005 A 
HETATM    5  C   UNK N   1      35.273  11.157  18.413  0.00  0.00     0.077 A 
HETATM    6  C   UNK N   1      35.186   9.971  16.202  0.00  0.00     0.053 C 
HETATM    7  C   UNK N   1      35.278  12.347  19.159  0.00  0.00     0.054 A 
HETATM    8  C   UNK N   1      35.204  13.575  18.504  0.00  0.00     0.091 A 
ENDROOT
BRANCH   3   9
HETATM    9  C   UNK N   1      34.910  12.602  14.929  0.00  0.00     0.175 C 
BRANCH   9  10
HETATM   10  S   UNK N   1      36.551  12.885  14.207  0.00  0.00     0.090 S 
HETATM   11  O   UNK N   1      36.503  11.553  13.444  0.00  0.00    -0.249 OA
BRANCH  10  12
HETATM   12  C   UNK N   1      35.889  13.853  12.856  0.00  0.00     0.176 A 
HETATM   13  N   UNK N   1      36.341  15.087  12.519  0.00  0.00    -0.333 N 
HETATM   14  C   UNK N   1      35.559  15.444  11.491  0.00  0.00     0.061 A 
HETATM   15  H   UNK N   1      37.072  15.600  12.932  0.00  0.00     0.168 HD
HETATM   16  C   UNK N   1      34.668  14.450  11.228  0.00  0.00     0.061 A 
HETATM   17  C   UNK N   1      35.591  16.627  10.764  0.00  0.00     0.032 A 
HETATM   18  N   UNK N   1      34.856  13.434  12.080  0.00  0.00    -0.333 N 
HETATM   19  C   UNK N   1      33.725  14.554  10.209  0.00  0.00     0.032 A 
ATOM     20  HN  UNK N   1      34.344  12.554  12.133  1.00  0.00     0.168 HD
HETATM   21  C   UNK N   1      33.724  15.740   9.447  0.00  0.00     0.002 A 
HETATM   22  C   UNK N   1      34.653  16.771   9.724  0.00  0.00     0.002 A 
ENDBRANCH  10  12
ENDBRANCH   9  10
ENDBRANCH   3   9
BRANCH   5  23
HETATM   23  O   UNK N   1      35.314   9.947  19.021  0.00  0.00    -0.350 OA
BRANCH  23  24
HETATM   24  C   UNK N   1      34.484   9.607  20.063  0.00  0.00     0.178 C 
BRANCH  24  25
HETATM   25  C   UNK N   1      33.284   8.860  19.530  0.00  0.00     0.053 C 
BRANCH  25  26
HETATM   26  C   UNK N   1      32.235   8.777  20.616  0.00  0.00     0.169 C 
BRANCH  26  27
HETATM   27  O   UNK N   1      30.971   8.662  20.042  0.00  0.00    -0.396 OA
HETATM   28  C   UNK N   1      30.726   7.290  20.016  0.00  0.00     0.201 C 
ENDBRANCH  26  27
ENDBRANCH  25  26
ENDBRANCH  24  25
ENDBRANCH  23  24
ENDBRANCH   5  23
TORSDOF 8
ENDMDL
MODEL 7
REMARK VINA RESULT:      -5.8      4.428      8.722
REMARK  8 active torsions:
REMARK  status: ('A' for Active; 'I' for Inactive)
REMARK    1  A    between atoms: S_1  and  C_10 
REMARK    2  A    between atoms: S_1  and  C_14 
REMARK    3  A    between atoms: O_2  and  C_13 
REMARK    4  A    between atoms: O_2  and  C_16 
REMARK    5  A    between atoms: O_3  and  C_21 
REMARK    6  A    between atoms: C_10  and  C_11 
REMARK    7  A    between atoms: C_16  and  C_17 
REMARK    8  A    between atoms: C_17  and  C_21 
ROOT
HETATM    1  N   UNK N   1      31.946  15.770   9.414  0.00  0.00    -0.368 N 
ATOM      2  HN  UNK N   1      31.489  15.992  10.297  1.00  0.00     0.165 HD
HETATM    3  C   UNK N   1      31.955  16.700   8.420  0.00  0.00     0.029 A 
HETATM    4  C   UNK N   1      32.576  16.413   7.191  0.00  0.00    -0.005 A 
HETATM    5  C   UNK N   1      33.162  15.155   6.999  0.00  0.00     0.077 A 
HETATM    6  C   UNK N   1      32.585  17.420   6.083  0.00  0.00     0.053 C 
HETATM    7  C   UNK N   1      33.137  14.221   8.048  0.00  0.00     0.054 A 
HETATM    8  C   UNK N   1      32.529  14.554   9.257  0.00  0.00     0.091 A 
ENDROOT
BRANCH   3   9
HETATM    9  C   UNK N   1      31.222  17.975   8.624  0.00  0.00     0.175 C 
BRANCH   9  10
HETATM   10  S   UNK N   1      29.578  17.533   9.254  0.00  0.00     0.090 S 
HETATM   11  O   UNK N   1      29.551  18.751  10.190  0.00  0.00    -0.249 OA
BRANCH  10  12
HETATM   12  C   UNK N   1      28.740  18.363   7.909  0.00  0.00     0.176 A 
HETATM   13  N   UNK N   1      28.930  18.060   6.600  0.00  0.00    -0.333 N 
HETATM   14  C   UNK N   1      28.140  18.928   5.954  0.00  0.00     0.061 A 
HETATM   15  H   UNK N   1      29.511  17.366   6.215  0.00  0.00     0.168 HD
HETATM   16  C   UNK N   1      27.503  19.725   6.854  0.00  0.00     0.061 A 
HETATM   17  C   UNK N   1      27.956  19.058   4.584  0.00  0.00     0.032 A 
HETATM   18  N   UNK N   1      27.868  19.387   8.098  0.00  0.00    -0.333 N 
HETATM   19  C   UNK N   1      26.621  20.726   6.460  0.00  0.00     0.032 A 
ATOM     20  HN  UNK N   1      27.563  19.802   8.978  1.00  0.00     0.168 HD
HETATM   21  C   UNK N   1      26.405  20.891   5.076  0.00  0.00     0.002 A 
HETATM   22  C   UNK N   1      27.070  20.060   4.143  0.00  0.00     0.002 A 
ENDBRANCH  10  12
ENDBRANCH   9  10
ENDBRANCH   3   9
BRANCH   5  23
HETATM   23  O   UNK N   1      33.720  14.852   5.802  0.00  0.00    -0.350 OA
BRANCH  23  24
HETATM   24  C   UNK N   1      33.305  13.789   5.034  0.00  0.00     0.178 C 
BRANCH  24  25
HETATM   25  C   UNK N   1      32.649  14.302   3.774  0.00  0.00     0.053 C 
BRANCH  25  26
HETATM   26  C   UNK N   1      31.164  14.023   3.846  0.00  0.00     0.169 C 
BRANCH  26  27
HETATM   27  O   UNK N   1      30.491  15.162   4.283  0.00  0.00    -0.396 OA
HETATM   28  C   UNK N   1      29.775  14.733   5.400  0.00  0.00     0.201 C 
ENDBRANCH  26  27
ENDBRANCH  25  26
ENDBRANCH  24  25
ENDBRANCH  23  24
ENDBRANCH   5  23
TORSDOF 8
ENDMDL
MODEL 8
REMARK VINA RESULT:      -5.8      3.129      9.190
REMARK  8 active torsions:
REMARK  status: ('A' for Active; 'I' for Inactive)
REMARK    1  A    between atoms: S_1  and  C_10 
REMARK    2  A    between atoms: S_1  and  C_14 
REMARK    3  A    between atoms: O_2  and  C_13 
REMARK    4  A    between atoms: O_2  and  C_16 
REMARK    5  A    between atoms: O_3  and  C_21 
REMARK    6  A    between atoms: C_10  and  C_11 
REMARK    7  A    between atoms: C_16  and  C_17 
REMARK    8  A    between atoms: C_17  and  C_21 
ROOT
HETATM    1  N   UNK N   1      36.638  15.058  13.782  0.00  0.00    -0.368 N 
ATOM      2  HN  UNK N   1      36.919  15.863  13.224  1.00  0.00     0.165 HD
HETATM    3  C   UNK N   1      35.851  14.102  13.217  0.00  0.00     0.029 A 
HETATM    4  C   UNK N   1      35.447  12.985  13.971  0.00  0.00    -0.005 A 
HETATM    5  C   UNK N   1      35.849  12.883  15.309  0.00  0.00     0.077 A 
HETATM    6  C   UNK N   1      34.571  11.930  13.369  0.00  0.00     0.053 C 
HETATM    7  C   UNK N   1      36.665  13.885  15.857  0.00  0.00     0.054 A 
HETATM    8  C   UNK N   1      37.058  14.966  15.069  0.00  0.00     0.091 A 
ENDROOT
BRANCH   3   9
HETATM    9  C   UNK N   1      35.353  14.308  11.833  0.00  0.00     0.175 C 
BRANCH   9  10
HETATM   10  S   UNK N   1      35.804  16.003  11.367  0.00  0.00     0.090 S 
HETATM   11  O   UNK N   1      36.908  15.506  10.422  0.00  0.00    -0.249 OA
BRANCH  10  12
HETATM   12  C   UNK N   1      34.547  16.084  10.096  0.00  0.00     0.176 A 
HETATM   13  N   UNK N   1      33.944  14.993   9.561  0.00  0.00    -0.333 N 
HETATM   14  C   UNK N   1      33.109  15.506   8.647  0.00  0.00     0.061 A 
HETATM   15  H   UNK N   1      34.086  14.047   9.790  0.00  0.00     0.168 HD
HETATM   16  C   UNK N   1      33.217  16.862   8.639  0.00  0.00     0.061 A 
HETATM   17  C   UNK N   1      32.247  14.822   7.800  0.00  0.00     0.032 A 
HETATM   18  N   UNK N   1      34.121  17.251   9.547  0.00  0.00    -0.333 N 
HETATM   19  C   UNK N   1      32.466  17.658   7.779  0.00  0.00     0.032 A 
ATOM     20  HN  UNK N   1      34.420  18.200   9.772  1.00  0.00     0.168 HD
HETATM   21  C   UNK N   1      31.577  17.002   6.903  0.00  0.00     0.002 A 
HETATM   22  C   UNK N   1      31.468  15.591   6.913  0.00  0.00     0.002 A 
ENDBRANCH  10  12
ENDBRANCH   9  10
ENDBRANCH   3   9
BRANCH   5  23
HETATM   23  O   UNK N   1      35.426  11.835  16.057  0.00  0.00    -0.350 OA
BRANCH  23  24
HETATM   24  C   UNK N   1      35.226  11.920  17.415  0.00  0.00     0.178 C 
BRANCH  24  25
HETATM   25  C   UNK N   1      35.281  10.538  18.021  0.00  0.00     0.053 C 
BRANCH  25  26
HETATM   26  C   UNK N   1      36.083  10.595  19.303  0.00  0.00     0.169 C 
BRANCH  26  27
HETATM   27  O   UNK N   1      35.286  11.085  20.335  0.00  0.00    -0.396 OA
HETATM   28  C   UNK N   1      34.431  10.028  20.644  0.00  0.00     0.201 C 
ENDBRANCH  26  27
ENDBRANCH  25  26
ENDBRANCH  24  25
ENDBRANCH  23  24
ENDBRANCH   5  23
TORSDOF 8
ENDMDL
MODEL 9
REMARK VINA RESULT:      -5.8      2.974      5.008
REMARK  8 active torsions:
REMARK  status: ('A' for Active; 'I' for Inactive)
REMARK    1  A    between atoms: S_1  and  C_10 
REMARK    2  A    between atoms: S_1  and  C_14 
REMARK    3  A    between atoms: O_2  and  C_13 
REMARK    4  A    between atoms: O_2  and  C_16 
REMARK    5  A    between atoms: O_3  and  C_21 
REMARK    6  A    between atoms: C_10  and  C_11 
REMARK    7  A    between atoms: C_16  and  C_17 
REMARK    8  A    between atoms: C_17  and  C_21 
ROOT
HETATM    1  N   UNK N   1      30.296  17.009   9.287  0.00  0.00    -0.368 N 
ATOM      2  HN  UNK N   1      30.944  16.546   9.922  1.00  0.00     0.165 HD
HETATM    3  C   UNK N   1      30.493  16.901   7.945  0.00  0.00     0.029 A 
HETATM    4  C   UNK N   1      29.613  17.537   7.049  0.00  0.00    -0.005 A 
HETATM    5  C   UNK N   1      28.550  18.294   7.559  0.00  0.00     0.077 A 
HETATM    6  C   UNK N   1      29.822  17.438   5.570  0.00  0.00     0.053 C 
HETATM    7  C   UNK N   1      28.375  18.380   8.949  0.00  0.00     0.054 A 
HETATM    8  C   UNK N   1      29.259  17.719   9.800  0.00  0.00     0.091 A 
ENDROOT
BRANCH   3   9
HETATM    9  C   UNK N   1      31.697  16.186   7.451  0.00  0.00     0.175 C 
BRANCH   9  10
HETATM   10  S   UNK N   1      33.074  17.365   7.544  0.00  0.00     0.090 S 
HETATM   11  O   UNK N   1      32.286  18.293   8.480  0.00  0.00    -0.249 OA
BRANCH  10  12
HETATM   12  C   UNK N   1      33.874  16.464   8.868  0.00  0.00     0.176 A 
HETATM   13  N   UNK N   1      33.796  15.118   9.019  0.00  0.00    -0.333 N 
HETATM   14  C   UNK N   1      34.504  14.881  10.132  0.00  0.00     0.061 A 
HETATM   15  H   UNK N   1      33.330  14.468   8.446  0.00  0.00     0.168 HD
HETATM   16  C   UNK N   1      34.984  16.054  10.627  0.00  0.00     0.061 A 
HETATM   17  C   UNK N   1      34.745  13.659  10.746  0.00  0.00     0.032 A 
HETATM   18  N   UNK N   1      34.597  17.070   9.845  0.00  0.00    -0.333 N 
HETATM   19  C   UNK N   1      35.753  16.106  11.786  0.00  0.00     0.032 A 
ATOM     20  HN  UNK N   1      34.798  18.063   9.957  1.00  0.00     0.168 HD
HETATM   21  C   UNK N   1      36.022  14.887  12.439  0.00  0.00     0.002 A 
HETATM   22  C   UNK N   1      35.520  13.669  11.921  0.00  0.00     0.002 A 
ENDBRANCH  10  12
ENDBRANCH   9  10
ENDBRANCH   3   9
BRANCH   5  23
HETATM   23  O   UNK N   1      27.726  18.950   6.705  0.00  0.00    -0.350 OA
BRANCH  23  24
HETATM   24  C   UNK N   1      27.590  20.318   6.702  0.00  0.00     0.178 C 
BRANCH  24  25
HETATM   25  C   UNK N   1      26.844  20.749   5.462  0.00  0.00     0.053 C 
BRANCH  25  26
HETATM   26  C   UNK N   1      27.404  20.006   4.269  0.00  0.00     0.169 C 
BRANCH  26  27
HETATM   27  O   UNK N   1      26.366  19.419   3.549  0.00  0.00    -0.396 OA
HETATM   28  C   UNK N   1      25.260  20.225   3.817  0.00  0.00     0.201 C 
ENDBRANCH  26  27
ENDBRANCH  25  26
ENDBRANCH  24  25
ENDBRANCH  23  24
ENDBRANCH   5  23
TORSDOF 8
ENDMDL
