MODEL 1
REMARK VINA RESULT:      -6.9      0.000      0.000
REMARK  7 active torsions:
REMARK  status: ('A' for Active; 'I' for Inactive)
REMARK    1  A    between atoms: O_2  and  C_15 
REMARK    2  A    between atoms: O_2  and  C_16 
REMARK    3  A    between atoms: C_8  and  C_9 
REMARK    4  A    between atoms: C_9  and  C_10 
REMARK    5  A    between atoms: C_14  and  C_16 
REMARK    6  A    between atoms: C_14  and  C_19 
REMARK    7  A    between atoms: C_21  and  C_23 
ROOT
HETATM    1  C   UNK N   1      31.217  17.272   7.470  0.00  0.00    -0.056 A 
HETATM    2  C   UNK N   1      29.870  17.513   7.747  0.00  0.00     0.010 A 
HETATM    3  C   UNK N   1      31.578  16.481   6.373  0.00  0.00     0.010 A 
HETATM    4  C   UNK N   1      29.235  16.151   5.843  0.00  0.00     0.068 A 
HETATM    5  C   UNK N   1      28.881  16.960   6.936  0.00  0.00     0.037 A 
HETATM    6  C   UNK N   1      30.587  15.924   5.561  0.00  0.00     0.037 A 
ENDROOT
BRANCH   4   7
HETATM    7  O   UNK N   1      28.295  15.588   5.047  0.00  0.00    -0.351 OA
BRANCH   7   8
HETATM    8  C   UNK N   1      28.251  15.753   3.674  0.00  0.00     0.181 C 
BRANCH   8   9
HETATM    9  C   UNK N   1      26.990  16.517   3.267  0.00  0.00     0.083 C 
BRANCH   9  10
HETATM   10  C   UNK N   1      26.952  17.853   3.930  0.00  0.00     0.011 A 
HETATM   11  N   UNK N   1      28.053  18.653   3.924  0.00  0.00    -0.369 N 
HETATM   12  C   UNK N   1      28.056  19.859   4.553  0.00  0.00     0.095 A 
ATOM     13  HN  UNK N   1      28.893  18.342   3.436  1.00  0.00     0.165 HD
HETATM   14  C   UNK N   1      26.916  20.299   5.232  0.00  0.00    -0.043 A 
HETATM   15  C   UNK N   1      25.781  19.488   5.260  0.00  0.00     0.010 A 
HETATM   16  C   UNK N   1      25.795  18.257   4.604  0.00  0.00     0.025 A 
BRANCH  14  17
HETATM   17  C   UNK N   1      26.905  21.615   5.930  0.00  0.00     0.035 C 
HETATM   18  C   UNK N   1      26.245  21.490   7.291  0.00  0.00     0.010 C 
ENDBRANCH  14  17
ENDBRANCH   9  10
ENDBRANCH   8   9
ENDBRANCH   7   8
ENDBRANCH   4   7
BRANCH   1  19
HETATM   19  C   UNK N   1      32.243  17.759   8.433  0.00  0.00     0.063 C 
BRANCH  19  20
HETATM   20  C   UNK N   1      33.589  17.025   8.295  0.00  0.00     0.153 A 
HETATM   21  S   UNK N   1      33.704  15.504   9.355  0.00  0.00    -0.054 SA
HETATM   22  C   UNK N   1      34.892  16.354  10.370  0.00  0.00     0.287 A 
HETATM   23  O   UNK N   1      35.330  15.873  11.401  0.00  0.00    -0.260 OA
HETATM   24  N   UNK N   1      35.288  17.550   9.929  0.00  0.00    -0.287 N 
HETATM   25  C   UNK N   1      34.656  17.943   8.815  0.00  0.00     0.239 A 
HETATM   26  H   UNK N   1      35.978  18.090  10.377  0.00  0.00     0.172 HD
HETATM   27  O   UNK N   1      34.911  19.012   8.287  0.00  0.00    -0.272 OA
ENDBRANCH  19  20
ENDBRANCH   1  19
TORSDOF 7
ENDMDL
MODEL 2
REMARK VINA RESULT:      -6.5      2.054      2.995
REMARK  7 active torsions:
REMARK  status: ('A' for Active; 'I' for Inactive)
REMARK    1  A    between atoms: O_2  and  C_15 
REMARK    2  A    between atoms: O_2  and  C_16 
REMARK    3  A    between atoms: C_8  and  C_9 
REMARK    4  A    between atoms: C_9  and  C_10 
REMARK    5  A    between atoms: C_14  and  C_16 
REMARK    6  A    between atoms: C_14  and  C_19 
REMARK    7  A    between atoms: C_21  and  C_23 
ROOT
HETATM    1  C   UNK N   1      32.651  15.709   8.625  0.00  0.00    -0.056 A 
HETATM    2  C   UNK N   1      32.139  14.890   7.617  0.00  0.00     0.010 A 
HETATM    3  C   UNK N   1      32.410  17.088   8.599  0.00  0.00     0.010 A 
HETATM    4  C   UNK N   1      31.161  16.829   6.538  0.00  0.00     0.068 A 
HETATM    5  C   UNK N   1      31.393  15.443   6.579  0.00  0.00     0.037 A 
HETATM    6  C   UNK N   1      31.664  17.644   7.557  0.00  0.00     0.037 A 
ENDROOT
BRANCH   4   7
HETATM    7  O   UNK N   1      30.451  17.396   5.534  0.00  0.00    -0.351 OA
BRANCH   7   8
HETATM    8  C   UNK N   1      29.106  17.159   5.312  0.00  0.00     0.181 C 
BRANCH   8   9
HETATM    9  C   UNK N   1      28.249  18.091   6.169  0.00  0.00     0.083 C 
BRANCH   9  10
HETATM   10  C   UNK N   1      27.220  18.772   5.331  0.00  0.00     0.011 A 
HETATM   11  N   UNK N   1      25.900  18.485   5.500  0.00  0.00    -0.369 N 
HETATM   12  C   UNK N   1      24.944  19.064   4.724  0.00  0.00     0.095 A 
ATOM     13  HN  UNK N   1      25.621  17.823   6.224  1.00  0.00     0.165 HD
HETATM   14  C   UNK N   1      25.308  19.969   3.722  0.00  0.00    -0.043 A 
HETATM   15  C   UNK N   1      26.657  20.267   3.526  0.00  0.00     0.010 A 
HETATM   16  C   UNK N   1      27.621  19.668   4.335  0.00  0.00     0.025 A 
BRANCH  14  17
HETATM   17  C   UNK N   1      24.274  20.609   2.861  0.00  0.00     0.035 C 
HETATM   18  C   UNK N   1      22.910  19.997   3.125  0.00  0.00     0.010 C 
ENDBRANCH  14  17
ENDBRANCH   9  10
ENDBRANCH   8   9
ENDBRANCH   7   8
ENDBRANCH   4   7
BRANCH   1  19
HETATM   19  C   UNK N   1      33.560  15.110   9.640  0.00  0.00     0.063 C 
BRANCH  19  20
HETATM   20  C   UNK N   1      35.049  15.331   9.316  0.00  0.00     0.153 A 
HETATM   21  S   UNK N   1      36.010  13.747   9.183  0.00  0.00    -0.054 SA
HETATM   22  C   UNK N   1      36.839  14.173  10.698  0.00  0.00     0.287 A 
HETATM   23  O   UNK N   1      37.611  13.411  11.254  0.00  0.00    -0.260 OA
HETATM   24  N   UNK N   1      36.575  15.386  11.186  0.00  0.00    -0.287 N 
HETATM   25  C   UNK N   1      35.658  16.059  10.477  0.00  0.00     0.239 A 
HETATM   26  H   UNK N   1      37.011  15.752  11.989  0.00  0.00     0.172 HD
HETATM   27  O   UNK N   1      35.314  17.185  10.795  0.00  0.00    -0.272 OA
ENDBRANCH  19  20
ENDBRANCH   1  19
TORSDOF 7
ENDMDL
MODEL 3
REMARK VINA RESULT:      -6.5     12.238     13.990
REMARK  7 active torsions:
REMARK  status: ('A' for Active; 'I' for Inactive)
REMARK    1  A    between atoms: O_2  and  C_15 
REMARK    2  A    between atoms: O_2  and  C_16 
REMARK    3  A    between atoms: C_8  and  C_9 
REMARK    4  A    between atoms: C_9  and  C_10 
REMARK    5  A    between atoms: C_14  and  C_16 
REMARK    6  A    between atoms: C_14  and  C_19 
REMARK    7  A    between atoms: C_21  and  C_23 
ROOT
HETATM    1  C   UNK N   1      30.021  21.064  -5.867  0.00  0.00    -0.056 A 
HETATM    2  C   UNK N   1      29.402  22.311  -5.763  0.00  0.00     0.010 A 
HETATM    3  C   UNK N   1      29.714  20.215  -6.937  0.00  0.00     0.010 A 
HETATM    4  C   UNK N   1      28.147  21.857  -7.788  0.00  0.00     0.068 A 
HETATM    5  C   UNK N   1      28.473  22.711  -6.720  0.00  0.00     0.037 A 
HETATM    6  C   UNK N   1      28.780  20.615  -7.896  0.00  0.00     0.037 A 
ENDROOT
BRANCH   4   7
HETATM    7  O   UNK N   1      27.236  22.214  -8.724  0.00  0.00    -0.351 OA
BRANCH   7   8
HETATM    8  C   UNK N   1      27.000  23.522  -9.110  0.00  0.00     0.181 C 
BRANCH   8   9
HETATM    9  C   UNK N   1      25.658  24.008  -8.561  0.00  0.00     0.083 C 
BRANCH   9  10
HETATM   10  C   UNK N   1      25.863  25.132  -7.601  0.00  0.00     0.011 A 
HETATM   11  N   UNK N   1      25.212  25.138  -6.405  0.00  0.00    -0.369 N 
HETATM   12  C   UNK N   1      25.352  26.169  -5.529  0.00  0.00     0.095 A 
ATOM     13  HN  UNK N   1      24.609  24.353  -6.161  1.00  0.00     0.165 HD
HETATM   14  C   UNK N   1      26.170  27.257  -5.850  0.00  0.00    -0.043 A 
HETATM   15  C   UNK N   1      26.835  27.274  -7.076  0.00  0.00     0.010 A 
HETATM   16  C   UNK N   1      26.685  26.205  -7.959  0.00  0.00     0.025 A 
BRANCH  14  17
HETATM   17  C   UNK N   1      26.330  28.395  -4.902  0.00  0.00     0.035 C 
HETATM   18  C   UNK N   1      25.924  27.981  -3.500  0.00  0.00     0.010 C 
ENDBRANCH  14  17
ENDBRANCH   9  10
ENDBRANCH   8   9
ENDBRANCH   7   8
ENDBRANCH   4   7
BRANCH   1  19
HETATM   19  C   UNK N   1      30.902  20.608  -4.757  0.00  0.00     0.063 C 
BRANCH  19  20
HETATM   20  C   UNK N   1      32.148  21.494  -4.578  0.00  0.00     0.153 A 
HETATM   21  S   UNK N   1      33.590  20.940  -5.610  0.00  0.00    -0.054 SA
HETATM   22  C   UNK N   1      34.409  20.432  -4.115  0.00  0.00     0.287 A 
HETATM   23  O   UNK N   1      35.474  19.839  -4.126  0.00  0.00    -0.260 OA
HETATM   24  N   UNK N   1      33.793  20.750  -2.975  0.00  0.00    -0.287 N 
HETATM   25  C   UNK N   1      32.606  21.344  -3.158  0.00  0.00     0.239 A 
HETATM   26  H   UNK N   1      34.174  20.567  -2.086  0.00  0.00     0.172 HD
HETATM   27  O   UNK N   1      31.924  21.699  -2.211  0.00  0.00    -0.272 OA
ENDBRANCH  19  20
ENDBRANCH   1  19
TORSDOF 7
ENDMDL
MODEL 4
REMARK VINA RESULT:      -6.5     12.092     13.992
REMARK  7 active torsions:
REMARK  status: ('A' for Active; 'I' for Inactive)
REMARK    1  A    between atoms: O_2  and  C_15 
REMARK    2  A    between atoms: O_2  and  C_16 
REMARK    3  A    between atoms: C_8  and  C_9 
REMARK    4  A    between atoms: C_9  and  C_10 
REMARK    5  A    between atoms: C_14  and  C_16 
REMARK    6  A    between atoms: C_14  and  C_19 
REMARK    7  A    between atoms: C_21  and  C_23 
ROOT
HETATM    1  C   UNK N   1      29.942  22.129  -5.302  0.00  0.00    -0.056 A 
HETATM    2  C   UNK N   1      29.812  23.281  -4.526  0.00  0.00     0.010 A 
HETATM    3  C   UNK N   1      29.037  21.875  -6.340  0.00  0.00     0.010 A 
HETATM    4  C   UNK N   1      27.855  23.923  -5.807  0.00  0.00     0.068 A 
HETATM    5  C   UNK N   1      28.777  24.179  -4.778  0.00  0.00     0.037 A 
HETATM    6  C   UNK N   1      27.997  22.774  -6.591  0.00  0.00     0.037 A 
ENDROOT
BRANCH   4   7
HETATM    7  O   UNK N   1      26.831  24.771  -6.064  0.00  0.00    -0.351 OA
BRANCH   7   8
HETATM    8  C   UNK N   1      25.723  24.911  -5.246  0.00  0.00     0.181 C 
BRANCH   8   9
HETATM    9  C   UNK N   1      24.928  26.159  -5.631  0.00  0.00     0.083 C 
BRANCH   9  10
HETATM   10  C   UNK N   1      25.763  27.384  -5.457  0.00  0.00     0.011 A 
HETATM   11  N   UNK N   1      26.685  27.724  -6.400  0.00  0.00    -0.369 N 
HETATM   12  C   UNK N   1      27.484  28.814  -6.248  0.00  0.00     0.095 A 
ATOM     13  HN  UNK N   1      26.778  27.149  -7.237  1.00  0.00     0.165 HD
HETATM   14  C   UNK N   1      27.375  29.610  -5.103  0.00  0.00    -0.043 A 
HETATM   15  C   UNK N   1      26.444  29.271  -4.121  0.00  0.00     0.010 A 
HETATM   16  C   UNK N   1      25.629  28.153  -4.297  0.00  0.00     0.025 A 
BRANCH  14  17
HETATM   17  C   UNK N   1      28.246  30.805  -4.920  0.00  0.00     0.035 C 
HETATM   18  C   UNK N   1      29.067  31.061  -6.171  0.00  0.00     0.010 C 
ENDBRANCH  14  17
ENDBRANCH   9  10
ENDBRANCH   8   9
ENDBRANCH   7   8
ENDBRANCH   4   7
BRANCH   1  19
HETATM   19  C   UNK N   1      30.970  21.122  -4.920  0.00  0.00     0.063 C 
BRANCH  19  20
HETATM   20  C   UNK N   1      32.322  21.757  -4.547  0.00  0.00     0.153 A 
HETATM   21  S   UNK N   1      33.742  21.084  -5.537  0.00  0.00    -0.054 SA
HETATM   22  C   UNK N   1      34.332  20.281  -4.063  0.00  0.00     0.287 A 
HETATM   23  O   UNK N   1      35.284  19.521  -4.073  0.00  0.00    -0.260 OA
HETATM   24  N   UNK N   1      33.676  20.572  -2.938  0.00  0.00    -0.287 N 
HETATM   25  C   UNK N   1      32.620  21.375  -3.128  0.00  0.00     0.239 A 
HETATM   26  H   UNK N   1      33.941  20.229  -2.054  0.00  0.00     0.172 HD
HETATM   27  O   UNK N   1      31.923  21.734  -2.194  0.00  0.00    -0.272 OA
ENDBRANCH  19  20
ENDBRANCH   1  19
TORSDOF 7
ENDMDL
MODEL 5
REMARK VINA RESULT:      -6.4     10.804     15.724
REMARK  7 active torsions:
REMARK  status: ('A' for Active; 'I' for Inactive)
REMARK    1  A    between atoms: O_2  and  C_15 
REMARK    2  A    between atoms: O_2  and  C_16 
REMARK    3  A    between atoms: C_8  and  C_9 
REMARK    4  A    between atoms: C_9  and  C_10 
REMARK    5  A    between atoms: C_14  and  C_16 
REMARK    6  A    between atoms: C_14  and  C_19 
REMARK    7  A    between atoms: C_21  and  C_23 
ROOT
HETATM    1  C   UNK N   1      35.588  11.191  17.211  0.00  0.00    -0.056 A 
HETATM    2  C   UNK N   1      35.681  12.081  18.282  0.00  0.00     0.010 A 
HETATM    3  C   UNK N   1      35.024   9.923  17.398  0.00  0.00     0.010 A 
HETATM    4  C   UNK N   1      34.669  10.429  19.742  0.00  0.00     0.068 A 
HETATM    5  C   UNK N   1      35.220  11.706  19.543  0.00  0.00     0.037 A 
HETATM    6  C   UNK N   1      34.564   9.546  18.662  0.00  0.00     0.037 A 
ENDROOT
BRANCH   4   7
HETATM    7  O   UNK N   1      34.227  10.033  20.959  0.00  0.00    -0.351 OA
BRANCH   7   8
HETATM    8  C   UNK N   1      33.231  10.685  21.666  0.00  0.00     0.181 C 
BRANCH   8   9
HETATM    9  C   UNK N   1      32.303   9.673  22.338  0.00  0.00     0.083 C 
BRANCH   9  10
HETATM   10  C   UNK N   1      32.085   8.493  21.451  0.00  0.00     0.011 A 
HETATM   11  N   UNK N   1      32.907   7.412  21.536  0.00  0.00    -0.369 N 
HETATM   12  C   UNK N   1      32.753   6.339  20.713  0.00  0.00     0.095 A 
ATOM     13  HN  UNK N   1      33.653   7.405  22.231  1.00  0.00     0.165 HD
HETATM   14  C   UNK N   1      31.740   6.334  19.750  0.00  0.00    -0.043 A 
HETATM   15  C   UNK N   1      30.895   7.438  19.640  0.00  0.00     0.010 A 
HETATM   16  C   UNK N   1      31.064   8.526  20.496  0.00  0.00     0.025 A 
BRANCH  14  17
HETATM   17  C   UNK N   1      31.561   5.168  18.839  0.00  0.00     0.035 C 
HETATM   18  C   UNK N   1      32.894   4.745  18.249  0.00  0.00     0.010 C 
ENDBRANCH  14  17
ENDBRANCH   9  10
ENDBRANCH   8   9
ENDBRANCH   7   8
ENDBRANCH   4   7
BRANCH   1  19
HETATM   19  C   UNK N   1      36.215  11.566  15.913  0.00  0.00     0.063 C 
BRANCH  19  20
HETATM   20  C   UNK N   1      35.479  12.718  15.203  0.00  0.00     0.153 A 
HETATM   21  S   UNK N   1      34.943  12.287  13.478  0.00  0.00    -0.054 SA
HETATM   22  C   UNK N   1      36.171  13.417  12.861  0.00  0.00     0.287 A 
HETATM   23  O   UNK N   1      36.411  13.532  11.672  0.00  0.00    -0.260 OA
HETATM   24  N   UNK N   1      36.808  14.145  13.780  0.00  0.00    -0.287 N 
HETATM   25  C   UNK N   1      36.459  13.841  15.038  0.00  0.00     0.239 A 
HETATM   26  H   UNK N   1      37.470  14.838  13.557  0.00  0.00     0.172 HD
HETATM   27  O   UNK N   1      36.951  14.424  15.989  0.00  0.00    -0.272 OA
ENDBRANCH  19  20
ENDBRANCH   1  19
TORSDOF 7
ENDMDL
MODEL 6
REMARK VINA RESULT:      -6.4      5.096      7.717
REMARK  7 active torsions:
REMARK  status: ('A' for Active; 'I' for Inactive)
REMARK    1  A    between atoms: O_2  and  C_15 
REMARK    2  A    between atoms: O_2  and  C_16 
REMARK    3  A    between atoms: C_8  and  C_9 
REMARK    4  A    between atoms: C_9  and  C_10 
REMARK    5  A    between atoms: C_14  and  C_16 
REMARK    6  A    between atoms: C_14  and  C_19 
REMARK    7  A    between atoms: C_21  and  C_23 
ROOT
HETATM    1  C   UNK N   1      26.400  19.447   4.112  0.00  0.00    -0.056 A 
HETATM    2  C   UNK N   1      26.377  20.444   3.136  0.00  0.00     0.010 A 
HETATM    3  C   UNK N   1      25.207  18.851   4.536  0.00  0.00     0.010 A 
HETATM    4  C   UNK N   1      23.960  20.272   3.019  0.00  0.00     0.068 A 
HETATM    5  C   UNK N   1      25.164  20.854   2.587  0.00  0.00     0.037 A 
HETATM    6  C   UNK N   1      23.990  19.263   3.987  0.00  0.00     0.037 A 
ENDROOT
BRANCH   4   7
HETATM    7  O   UNK N   1      22.766  20.662   2.513  0.00  0.00    -0.351 OA
BRANCH   7   8
HETATM    8  C   UNK N   1      21.545  20.228   2.999  0.00  0.00     0.181 C 
BRANCH   8   9
HETATM    9  C   UNK N   1      20.574  19.964   1.848  0.00  0.00     0.083 C 
BRANCH   9  10
HETATM   10  C   UNK N   1      20.387  18.497   1.648  0.00  0.00     0.011 A 
HETATM   11  N   UNK N   1      20.038  18.012   0.425  0.00  0.00    -0.369 N 
HETATM   12  C   UNK N   1      19.824  16.683   0.225  0.00  0.00     0.095 A 
ATOM     13  HN  UNK N   1      19.935  18.657  -0.358  1.00  0.00     0.165 HD
HETATM   14  C   UNK N   1      19.954  15.784   1.287  0.00  0.00    -0.043 A 
HETATM   15  C   UNK N   1      20.300  16.264   2.551  0.00  0.00     0.010 A 
HETATM   16  C   UNK N   1      20.521  17.629   2.735  0.00  0.00     0.025 A 
BRANCH  14  17
HETATM   17  C   UNK N   1      19.720  14.326   1.085  0.00  0.00     0.035 C 
HETATM   18  C   UNK N   1      19.355  13.660   2.399  0.00  0.00     0.010 C 
ENDBRANCH  14  17
ENDBRANCH   9  10
ENDBRANCH   8   9
ENDBRANCH   7   8
ENDBRANCH   4   7
BRANCH   1  19
HETATM   19  C   UNK N   1      27.693  19.130   4.780  0.00  0.00     0.063 C 
BRANCH  19  20
HETATM   20  C   UNK N   1      27.779  17.668   5.255  0.00  0.00     0.153 A 
HETATM   21  S   UNK N   1      28.295  17.508   7.033  0.00  0.00    -0.054 SA
HETATM   22  C   UNK N   1      29.850  16.846   6.477  0.00  0.00     0.287 A 
HETATM   23  O   UNK N   1      30.765  16.602   7.244  0.00  0.00    -0.260 OA
HETATM   24  N   UNK N   1      29.953  16.620   5.166  0.00  0.00    -0.287 N 
HETATM   25  C   UNK N   1      28.873  17.006   4.471  0.00  0.00     0.239 A 
HETATM   26  H   UNK N   1      30.744  16.210   4.748  0.00  0.00     0.172 HD
HETATM   27  O   UNK N   1      28.814  16.860   3.262  0.00  0.00    -0.272 OA
ENDBRANCH  19  20
ENDBRANCH   1  19
TORSDOF 7
ENDMDL
MODEL 7
REMARK VINA RESULT:      -6.3      4.075     10.268
REMARK  7 active torsions:
REMARK  status: ('A' for Active; 'I' for Inactive)
REMARK    1  A    between atoms: O_2  and  C_15 
REMARK    2  A    between atoms: O_2  and  C_16 
REMARK    3  A    between atoms: C_8  and  C_9 
REMARK    4  A    between atoms: C_9  and  C_10 
REMARK    5  A    between atoms: C_14  and  C_16 
REMARK    6  A    between atoms: C_14  and  C_19 
REMARK    7  A    between atoms: C_21  and  C_23 
ROOT
HETATM    1  C   UNK N   1      32.268  17.003   8.518  0.00  0.00    -0.056 A 
HETATM    2  C   UNK N   1      31.999  15.658   8.775  0.00  0.00     0.010 A 
HETATM    3  C   UNK N   1      33.578  17.488   8.614  0.00  0.00     0.010 A 
HETATM    4  C   UNK N   1      34.347  15.278   9.250  0.00  0.00     0.068 A 
HETATM    5  C   UNK N   1      33.032  14.796   9.135  0.00  0.00     0.037 A 
HETATM    6  C   UNK N   1      34.614  16.624   8.978  0.00  0.00     0.037 A 
ENDROOT
BRANCH   4   7
HETATM    7  O   UNK N   1      35.368  14.466   9.612  0.00  0.00    -0.351 OA
BRANCH   7   8
HETATM    8  C   UNK N   1      36.431  14.871  10.400  0.00  0.00     0.181 C 
BRANCH   8   9
HETATM    9  C   UNK N   1      37.265  13.665  10.834  0.00  0.00     0.083 C 
BRANCH   9  10
HETATM   10  C   UNK N   1      36.949  13.291  12.244  0.00  0.00     0.011 A 
HETATM   11  N   UNK N   1      37.567  12.226  12.825  0.00  0.00    -0.369 N 
HETATM   12  C   UNK N   1      37.270  11.842  14.096  0.00  0.00     0.095 A 
ATOM     13  HN  UNK N   1      38.268  11.706  12.297  1.00  0.00     0.165 HD
HETATM   14  C   UNK N   1      36.307  12.539  14.832  0.00  0.00    -0.043 A 
HETATM   15  C   UNK N   1      35.655  13.626  14.250  0.00  0.00     0.010 A 
HETATM   16  C   UNK N   1      35.977  14.009  12.948  0.00  0.00     0.025 A 
BRANCH  14  17
HETATM   17  C   UNK N   1      35.968  12.128  16.224  0.00  0.00     0.035 C 
HETATM   18  C   UNK N   1      35.104  13.182  16.893  0.00  0.00     0.010 C 
ENDBRANCH  14  17
ENDBRANCH   9  10
ENDBRANCH   8   9
ENDBRANCH   7   8
ENDBRANCH   4   7
BRANCH   1  19
HETATM   19  C   UNK N   1      31.127  17.927   8.274  0.00  0.00     0.063 C 
BRANCH  19  20
HETATM   20  C   UNK N   1      29.856  17.197   7.802  0.00  0.00     0.153 A 
HETATM   21  S   UNK N   1      29.387  17.607   6.051  0.00  0.00    -0.054 SA
HETATM   22  C   UNK N   1      27.982  18.498   6.682  0.00  0.00     0.287 A 
HETATM   23  O   UNK N   1      27.247  19.148   5.960  0.00  0.00    -0.260 OA
HETATM   24  N   UNK N   1      27.772  18.401   7.996  0.00  0.00    -0.287 N 
HETATM   25  C   UNK N   1      28.715  17.697   8.637  0.00  0.00     0.239 A 
HETATM   26  H   UNK N   1      27.000  18.808   8.451  0.00  0.00     0.172 HD
HETATM   27  O   UNK N   1      28.660  17.516   9.842  0.00  0.00    -0.272 OA
ENDBRANCH  19  20
ENDBRANCH   1  19
TORSDOF 7
ENDMDL
MODEL 8
REMARK VINA RESULT:      -6.3     11.733     16.640
REMARK  7 active torsions:
REMARK  status: ('A' for Active; 'I' for Inactive)
REMARK    1  A    between atoms: O_2  and  C_15 
REMARK    2  A    between atoms: O_2  and  C_16 
REMARK    3  A    between atoms: C_8  and  C_9 
REMARK    4  A    between atoms: C_9  and  C_10 
REMARK    5  A    between atoms: C_14  and  C_16 
REMARK    6  A    between atoms: C_14  and  C_19 
REMARK    7  A    between atoms: C_21  and  C_23 
ROOT
HETATM    1  C   UNK N   1      35.126  12.409  17.161  0.00  0.00    -0.056 A 
HETATM    2  C   UNK N   1      35.210  11.021  17.283  0.00  0.00     0.010 A 
HETATM    3  C   UNK N   1      35.138  13.217  18.305  0.00  0.00     0.010 A 
HETATM    4  C   UNK N   1      35.296  11.239  19.698  0.00  0.00     0.068 A 
HETATM    5  C   UNK N   1      35.300  10.436  18.545  0.00  0.00     0.037 A 
HETATM    6  C   UNK N   1      35.226  12.630  19.570  0.00  0.00     0.037 A 
ENDROOT
BRANCH   4   7
HETATM    7  O   UNK N   1      35.367  10.697  20.936  0.00  0.00    -0.351 OA
BRANCH   7   8
HETATM    8  C   UNK N   1      34.404   9.856  21.465  0.00  0.00     0.181 C 
BRANCH   8   9
HETATM    9  C   UNK N   1      33.163  10.651  21.871  0.00  0.00     0.083 C 
BRANCH   9  10
HETATM   10  C   UNK N   1      32.544  10.064  23.095  0.00  0.00     0.011 A 
HETATM   11  N   UNK N   1      32.338  10.837  24.197  0.00  0.00    -0.369 N 
HETATM   12  C   UNK N   1      31.810  10.317  25.338  0.00  0.00     0.095 A 
ATOM     13  HN  UNK N   1      32.584  11.826  24.166  1.00  0.00     0.165 HD
HETATM   14  C   UNK N   1      31.472   8.962  25.401  0.00  0.00    -0.043 A 
HETATM   15  C   UNK N   1      31.687   8.151  24.286  0.00  0.00     0.010 A 
HETATM   16  C   UNK N   1      32.223   8.703  23.123  0.00  0.00     0.025 A 
BRANCH  14  17
HETATM   17  C   UNK N   1      30.896   8.377  26.644  0.00  0.00     0.035 C 
HETATM   18  C   UNK N   1      29.432   8.751  26.779  0.00  0.00     0.010 C 
ENDBRANCH  14  17
ENDBRANCH   9  10
ENDBRANCH   8   9
ENDBRANCH   7   8
ENDBRANCH   4   7
BRANCH   1  19
HETATM   19  C   UNK N   1      34.890  12.995  15.813  0.00  0.00     0.063 C 
BRANCH  19  20
HETATM   20  C   UNK N   1      35.541  12.177  14.682  0.00  0.00     0.153 A 
HETATM   21  S   UNK N   1      36.563  13.214  13.528  0.00  0.00    -0.054 SA
HETATM   22  C   UNK N   1      35.332  12.948  12.271  0.00  0.00     0.287 A 
HETATM   23  O   UNK N   1      35.378  13.505  11.187  0.00  0.00    -0.260 OA
HETATM   24  N   UNK N   1      34.357  12.091  12.580  0.00  0.00    -0.287 N 
HETATM   25  C   UNK N   1      34.434  11.625  13.834  0.00  0.00     0.239 A 
HETATM   26  H   UNK N   1      33.650  11.826  11.949  0.00  0.00     0.172 HD
HETATM   27  O   UNK N   1      33.617  10.829  14.264  0.00  0.00    -0.272 OA
ENDBRANCH  19  20
ENDBRANCH   1  19
TORSDOF 7
ENDMDL
MODEL 9
REMARK VINA RESULT:      -6.3      1.994      2.475
REMARK  7 active torsions:
REMARK  status: ('A' for Active; 'I' for Inactive)
REMARK    1  A    between atoms: O_2  and  C_15 
REMARK    2  A    between atoms: O_2  and  C_16 
REMARK    3  A    between atoms: C_8  and  C_9 
REMARK    4  A    between atoms: C_9  and  C_10 
REMARK    5  A    between atoms: C_14  and  C_16 
REMARK    6  A    between atoms: C_14  and  C_19 
REMARK    7  A    between atoms: C_21  and  C_23 
ROOT
HETATM    1  C   UNK N   1      33.218  16.382   5.153  0.00  0.00    -0.056 A 
HETATM    2  C   UNK N   1      32.243  17.371   5.292  0.00  0.00     0.010 A 
HETATM    3  C   UNK N   1      33.095  15.411   4.152  0.00  0.00     0.010 A 
HETATM    4  C   UNK N   1      31.002  16.409   3.443  0.00  0.00     0.068 A 
HETATM    5  C   UNK N   1      31.141  17.390   4.440  0.00  0.00     0.037 A 
HETATM    6  C   UNK N   1      31.989  15.428   3.299  0.00  0.00     0.037 A 
ENDROOT
BRANCH   4   7
HETATM    7  O   UNK N   1      29.935  16.394   2.611  0.00  0.00    -0.351 OA
BRANCH   7   8
HETATM    8  C   UNK N   1      28.968  15.404   2.615  0.00  0.00     0.181 C 
BRANCH   8   9
HETATM    9  C   UNK N   1      27.575  16.016   2.769  0.00  0.00     0.083 C 
BRANCH   9  10
HETATM   10  C   UNK N   1      27.578  17.060   3.835  0.00  0.00     0.011 A 
HETATM   11  N   UNK N   1      27.794  18.365   3.515  0.00  0.00    -0.369 N 
HETATM   12  C   UNK N   1      27.838  19.331   4.473  0.00  0.00     0.095 A 
ATOM     13  HN  UNK N   1      27.924  18.625   2.538  1.00  0.00     0.165 HD
HETATM   14  C   UNK N   1      27.668  18.992   5.819  0.00  0.00    -0.043 A 
HETATM   15  C   UNK N   1      27.458  17.658   6.167  0.00  0.00     0.010 A 
HETATM   16  C   UNK N   1      27.409  16.683   5.171  0.00  0.00     0.025 A 
BRANCH  14  17
HETATM   17  C   UNK N   1      27.718  20.037   6.880  0.00  0.00     0.035 C 
HETATM   18  C   UNK N   1      27.187  21.357   6.351  0.00  0.00     0.010 C 
ENDBRANCH  14  17
ENDBRANCH   9  10
ENDBRANCH   8   9
ENDBRANCH   7   8
ENDBRANCH   4   7
BRANCH   1  19
HETATM   19  C   UNK N   1      34.307  16.304   6.165  0.00  0.00     0.063 C 
BRANCH  19  20
HETATM   20  C   UNK N   1      33.800  15.897   7.561  0.00  0.00     0.153 A 
HETATM   21  S   UNK N   1      33.649  17.332   8.729  0.00  0.00    -0.054 SA
HETATM   22  C   UNK N   1      35.031  16.680   9.641  0.00  0.00     0.287 A 
HETATM   23  O   UNK N   1      35.537  17.280  10.573  0.00  0.00    -0.260 OA
HETATM   24  N   UNK N   1      35.475  15.484   9.250  0.00  0.00    -0.287 N 
HETATM   25  C   UNK N   1      34.839  15.004   8.172  0.00  0.00     0.239 A 
HETATM   26  H   UNK N   1      36.199  15.000   9.709  0.00  0.00     0.172 HD
HETATM   27  O   UNK N   1      35.129  13.919   7.698  0.00  0.00    -0.272 OA
ENDBRANCH  19  20
ENDBRANCH   1  19
TORSDOF 7
ENDMDL
