MODEL 1
REMARK VINA RESULT:      -6.9      0.000      0.000
REMARK  11 active torsions:
REMARK  status: ('A' for Active; 'I' for Inactive)
REMARK    1  A    between atoms: O_1  and  C_11 
REMARK    2  A    between atoms: O_1  and  C_13 
REMARK    3  A    between atoms: O_2  and  C_12 
REMARK    4  A    between atoms: O_3  and  C_23 
REMARK    5  A    between atoms: O_3  and  C_24 
REMARK    6  A    between atoms: O_4  and  C_25 
REMARK    7  A    between atoms: N_6  and  C_14 
REMARK    8  A    between atoms: N_6  and  C_20 
REMARK    9  A    between atoms: C_12  and  C_13 
REMARK   10  A    between atoms: C_12  and  C_14 
REMARK   11  A    between atoms: C_20  and  C_23 
ROOT
HETATM    1  C   UNK N   1      29.242  17.762   9.824  0.00  0.00     0.159 C 
ENDROOT
BRANCH   1   2
HETATM    2  O   UNK N   1      29.763  18.759  10.644  0.00  0.00    -0.392 OA
HETATM    3  H   UNK N   1      30.329  18.647  11.424  0.00  0.00     0.210 HD
ENDBRANCH   1   2
BRANCH   1   4
HETATM    4  C   UNK N   1      28.313  18.381   8.778  0.00  0.00     0.209 C 
BRANCH   4   5
HETATM    5  O   UNK N   1      28.982  18.642   7.602  0.00  0.00    -0.348 OA
BRANCH   5   6
HETATM    6  C   UNK N   1      28.366  18.973   6.446  0.00  0.00     0.082 A 
HETATM    7  C   UNK N   1      28.375  18.167   5.289  0.00  0.00     0.036 A 
HETATM    8  C   UNK N   1      28.895  16.922   4.995  0.00  0.00     0.006 A 
HETATM    9  C   UNK N   1      27.735  18.581   4.133  0.00  0.00     0.046 A 
HETATM   10  C   UNK N   1      28.556  16.655   3.687  0.00  0.00     0.043 A 
HETATM   11  C   UNK N   1      29.608  15.998   5.757  0.00  0.00     0.014 A 
HETATM   12  N   UNK N   1      27.846  17.668   3.145  0.00  0.00    -0.355 N 
HETATM   13  C   UNK N   1      28.911  15.465   3.060  0.00  0.00     0.030 A 
HETATM   14  H   UNK N   1      27.488  17.729   2.229  0.00  0.00     0.166 HD
HETATM   15  C   UNK N   1      29.634  14.520   3.808  0.00  0.00     0.002 A 
HETATM   16  C   UNK N   1      29.980  14.785   5.151  0.00  0.00     0.001 A 
HETATM   17  C   UNK N   1      27.056  19.793   4.057  0.00  0.00     0.030 A 
HETATM   18  C   UNK N   1      27.016  20.599   5.204  0.00  0.00     0.005 A 
HETATM   19  C   UNK N   1      27.660  20.189   6.390  0.00  0.00     0.038 A 
ENDBRANCH   5   6
ENDBRANCH   4   5
ENDBRANCH   1   4
BRANCH   1  20
HETATM   20  C   UNK N   1      30.385  16.973   9.181  0.00  0.00     0.147 C 
BRANCH  20  21
HETATM   21  N   UNK N   1      31.512  17.826   8.827  0.00  0.00    -0.417 N 
HETATM   22  H   UNK N   1      31.666  18.770   9.178  0.00  0.00     0.153 HD
BRANCH  21  23
HETATM   23  C   UNK N   1      32.387  17.124   7.897  0.00  0.00     0.140 C 
BRANCH  23  24
HETATM   24  C   UNK N   1      33.719  17.851   7.837  0.00  0.00     0.195 C 
BRANCH  24  25
HETATM   25  O   UNK N   1      34.046  18.088   6.521  0.00  0.00    -0.347 OA
BRANCH  25  26
HETATM   26  C   UNK N   1      33.731  17.287   5.468  0.00  0.00     0.102 A 
HETATM   27  C   UNK N   1      34.308  16.004   5.251  0.00  0.00     0.101 A 
HETATM   28  C   UNK N   1      33.928  15.265   4.115  0.00  0.00     0.039 A 
HETATM   29  C   UNK N   1      32.998  15.776   3.211  0.00  0.00     0.003 A 
HETATM   30  C   UNK N   1      32.431  17.029   3.429  0.00  0.00     0.003 A 
HETATM   31  C   UNK N   1      32.795  17.776   4.548  0.00  0.00     0.039 A 
BRANCH  27  32
HETATM   32  O   UNK N   1      35.211  15.494   6.126  0.00  0.00    -0.353 OA
HETATM   33  C   UNK N   1      36.212  14.620   5.761  0.00  0.00     0.210 C 
ENDBRANCH  27  32
ENDBRANCH  25  26
ENDBRANCH  24  25
ENDBRANCH  23  24
ENDBRANCH  21  23
ENDBRANCH  20  21
ENDBRANCH   1  20
TORSDOF 11
ENDMDL
MODEL 2
REMARK VINA RESULT:      -6.7      5.598      7.728
REMARK  11 active torsions:
REMARK  status: ('A' for Active; 'I' for Inactive)
REMARK    1  A    between atoms: O_1  and  C_11 
REMARK    2  A    between atoms: O_1  and  C_13 
REMARK    3  A    between atoms: O_2  and  C_12 
REMARK    4  A    between atoms: O_3  and  C_23 
REMARK    5  A    between atoms: O_3  and  C_24 
REMARK    6  A    between atoms: O_4  and  C_25 
REMARK    7  A    between atoms: N_6  and  C_14 
REMARK    8  A    between atoms: N_6  and  C_20 
REMARK    9  A    between atoms: C_12  and  C_13 
REMARK   10  A    between atoms: C_12  and  C_14 
REMARK   11  A    between atoms: C_20  and  C_23 
ROOT
HETATM    1  C   UNK N   1      33.814  14.920   9.810  0.00  0.00     0.159 C 
ENDROOT
BRANCH   1   2
HETATM    2  O   UNK N   1      33.014  15.037  10.943  0.00  0.00    -0.392 OA
HETATM    3  H   UNK N   1      32.960  15.789  11.554  0.00  0.00     0.210 HD
ENDBRANCH   1   2
BRANCH   1   4
HETATM    4  C   UNK N   1      34.415  16.281   9.456  0.00  0.00     0.209 C 
BRANCH   4   5
HETATM    5  O   UNK N   1      33.452  17.156   9.003  0.00  0.00    -0.348 OA
BRANCH   5   6
HETATM    6  C   UNK N   1      33.028  17.207   7.721  0.00  0.00     0.082 A 
HETATM    7  C   UNK N   1      31.670  17.231   7.341  0.00  0.00     0.036 A 
HETATM    8  C   UNK N   1      30.481  17.258   8.043  0.00  0.00     0.006 A 
HETATM    9  C   UNK N   1      31.310  17.265   6.004  0.00  0.00     0.046 A 
HETATM   10  C   UNK N   1      29.473  17.296   7.103  0.00  0.00     0.043 A 
HETATM   11  C   UNK N   1      30.195  17.276   9.406  0.00  0.00     0.014 A 
HETATM   12  N   UNK N   1      29.970  17.298   5.848  0.00  0.00    -0.355 N 
HETATM   13  C   UNK N   1      28.130  17.345   7.462  0.00  0.00     0.030 A 
HETATM   14  H   UNK N   1      29.465  17.317   5.002  0.00  0.00     0.166 HD
HETATM   15  C   UNK N   1      27.818  17.360   8.834  0.00  0.00     0.002 A 
HETATM   16  C   UNK N   1      28.847  17.327   9.801  0.00  0.00     0.001 A 
HETATM   17  C   UNK N   1      32.255  17.284   4.984  0.00  0.00     0.030 A 
HETATM   18  C   UNK N   1      33.612  17.283   5.342  0.00  0.00     0.005 A 
HETATM   19  C   UNK N   1      33.994  17.252   6.699  0.00  0.00     0.038 A 
ENDBRANCH   5   6
ENDBRANCH   4   5
ENDBRANCH   1   4
BRANCH   1  20
HETATM   20  C   UNK N   1      34.892  13.860  10.047  0.00  0.00     0.147 C 
BRANCH  20  21
HETATM   21  N   UNK N   1      34.410  12.758  10.869  0.00  0.00    -0.417 N 
HETATM   22  H   UNK N   1      33.619  12.806  11.509  0.00  0.00     0.153 HD
BRANCH  21  23
HETATM   23  C   UNK N   1      35.230  11.576  10.637  0.00  0.00     0.140 C 
BRANCH  23  24
HETATM   24  C   UNK N   1      35.041  10.616  11.798  0.00  0.00     0.195 C 
BRANCH  24  25
HETATM   25  O   UNK N   1      34.211  11.195  12.733  0.00  0.00    -0.347 OA
BRANCH  25  26
HETATM   26  C   UNK N   1      34.514  11.403  14.042  0.00  0.00     0.102 A 
HETATM   27  C   UNK N   1      34.952  12.653  14.562  0.00  0.00     0.101 A 
HETATM   28  C   UNK N   1      35.261  12.755  15.932  0.00  0.00     0.039 A 
HETATM   29  C   UNK N   1      35.139  11.650  16.774  0.00  0.00     0.003 A 
HETATM   30  C   UNK N   1      34.704  10.430  16.263  0.00  0.00     0.003 A 
HETATM   31  C   UNK N   1      34.394  10.310  14.909  0.00  0.00     0.039 A 
BRANCH  27  32
HETATM   32  O   UNK N   1      35.071  13.736  13.754  0.00  0.00    -0.353 OA
HETATM   33  C   UNK N   1      36.266  14.381  13.520  0.00  0.00     0.210 C 
ENDBRANCH  27  32
ENDBRANCH  25  26
ENDBRANCH  24  25
ENDBRANCH  23  24
ENDBRANCH  21  23
ENDBRANCH  20  21
ENDBRANCH   1  20
TORSDOF 11
ENDMDL
MODEL 3
REMARK VINA RESULT:      -6.4      6.975     10.683
REMARK  11 active torsions:
REMARK  status: ('A' for Active; 'I' for Inactive)
REMARK    1  A    between atoms: O_1  and  C_11 
REMARK    2  A    between atoms: O_1  and  C_13 
REMARK    3  A    between atoms: O_2  and  C_12 
REMARK    4  A    between atoms: O_3  and  C_23 
REMARK    5  A    between atoms: O_3  and  C_24 
REMARK    6  A    between atoms: O_4  and  C_25 
REMARK    7  A    between atoms: N_6  and  C_14 
REMARK    8  A    between atoms: N_6  and  C_20 
REMARK    9  A    between atoms: C_12  and  C_13 
REMARK   10  A    between atoms: C_12  and  C_14 
REMARK   11  A    between atoms: C_20  and  C_23 
ROOT
HETATM    1  C   UNK N   1      35.100  13.502  11.774  0.00  0.00     0.159 C 
ENDROOT
BRANCH   1   2
HETATM    2  O   UNK N   1      34.314  13.238  10.656  0.00  0.00    -0.392 OA
HETATM    3  H   UNK N   1      33.676  13.831  10.229  0.00  0.00     0.210 HD
ENDBRANCH   1   2
BRANCH   1   4
HETATM    4  C   UNK N   1      36.392  12.686  11.706  0.00  0.00     0.209 C 
BRANCH   4   5
HETATM    5  O   UNK N   1      36.831  12.332  12.963  0.00  0.00    -0.348 OA
BRANCH   5   6
HETATM    6  C   UNK N   1      36.037  11.783  13.909  0.00  0.00     0.082 A 
HETATM    7  C   UNK N   1      35.815  12.354  15.179  0.00  0.00     0.036 A 
HETATM    8  C   UNK N   1      36.231  13.522  15.789  0.00  0.00     0.006 A 
HETATM    9  C   UNK N   1      35.001  11.724  16.106  0.00  0.00     0.046 A 
HETATM   10  C   UNK N   1      35.660  13.533  17.043  0.00  0.00     0.043 A 
HETATM   11  C   UNK N   1      37.029  14.577  15.352  0.00  0.00     0.014 A 
HETATM   12  N   UNK N   1      34.906  12.432  17.251  0.00  0.00    -0.355 N 
HETATM   13  C   UNK N   1      35.857  14.582  17.935  0.00  0.00     0.030 A 
HETATM   14  H   UNK N   1      34.397  12.197  18.062  0.00  0.00     0.166 HD
HETATM   15  C   UNK N   1      36.664  15.655  17.516  0.00  0.00     0.002 A 
HETATM   16  C   UNK N   1      37.246  15.653  16.230  0.00  0.00     0.001 A 
HETATM   17  C   UNK N   1      34.364  10.518  15.833  0.00  0.00     0.030 A 
HETATM   18  C   UNK N   1      34.554   9.946  14.566  0.00  0.00     0.005 A 
HETATM   19  C   UNK N   1      35.378  10.576  13.611  0.00  0.00     0.038 A 
ENDBRANCH   5   6
ENDBRANCH   4   5
ENDBRANCH   1   4
BRANCH   1  20
HETATM   20  C   UNK N   1      35.375  15.004  11.869  0.00  0.00     0.147 C 
BRANCH  20  21
HETATM   21  N   UNK N   1      34.421  15.789  11.095  0.00  0.00    -0.417 N 
HETATM   22  H   UNK N   1      33.410  15.668  11.115  0.00  0.00     0.153 HD
BRANCH  21  23
HETATM   23  C   UNK N   1      35.132  16.773  10.290  0.00  0.00     0.140 C 
BRANCH  23  24
HETATM   24  C   UNK N   1      34.752  16.577   8.833  0.00  0.00     0.195 C 
BRANCH  24  25
HETATM   25  O   UNK N   1      33.714  17.426   8.518  0.00  0.00    -0.347 OA
BRANCH  25  26
HETATM   26  C   UNK N   1      32.978  17.391   7.375  0.00  0.00     0.102 A 
HETATM   27  C   UNK N   1      31.559  17.287   7.353  0.00  0.00     0.101 A 
HETATM   28  C   UNK N   1      30.895  17.236   6.112  0.00  0.00     0.039 A 
HETATM   29  C   UNK N   1      31.613  17.289   4.918  0.00  0.00     0.003 A 
HETATM   30  C   UNK N   1      33.001  17.396   4.943  0.00  0.00     0.003 A 
HETATM   31  C   UNK N   1      33.676  17.447   6.163  0.00  0.00     0.039 A 
BRANCH  27  32
HETATM   32  O   UNK N   1      30.850  17.240   8.508  0.00  0.00    -0.353 OA
HETATM   33  C   UNK N   1      30.202  18.330   9.046  0.00  0.00     0.210 C 
ENDBRANCH  27  32
ENDBRANCH  25  26
ENDBRANCH  24  25
ENDBRANCH  23  24
ENDBRANCH  21  23
ENDBRANCH  20  21
ENDBRANCH   1  20
TORSDOF 11
ENDMDL
MODEL 4
REMARK VINA RESULT:      -6.3      5.531      7.738
REMARK  11 active torsions:
REMARK  status: ('A' for Active; 'I' for Inactive)
REMARK    1  A    between atoms: O_1  and  C_11 
REMARK    2  A    between atoms: O_1  and  C_13 
REMARK    3  A    between atoms: O_2  and  C_12 
REMARK    4  A    between atoms: O_3  and  C_23 
REMARK    5  A    between atoms: O_3  and  C_24 
REMARK    6  A    between atoms: O_4  and  C_25 
REMARK    7  A    between atoms: N_6  and  C_14 
REMARK    8  A    between atoms: N_6  and  C_20 
REMARK    9  A    between atoms: C_12  and  C_13 
REMARK   10  A    between atoms: C_12  and  C_14 
REMARK   11  A    between atoms: C_20  and  C_23 
ROOT
HETATM    1  C   UNK N   1      34.585  15.825   9.858  0.00  0.00     0.159 C 
ENDROOT
BRANCH   1   2
HETATM    2  O   UNK N   1      34.561  17.164  10.239  0.00  0.00    -0.392 OA
HETATM    3  H   UNK N   1      34.310  17.528  11.103  0.00  0.00     0.210 HD
ENDBRANCH   1   2
BRANCH   1   4
HETATM    4  C   UNK N   1      33.982  15.672   8.461  0.00  0.00     0.209 C 
BRANCH   4   5
HETATM    5  O   UNK N   1      33.637  16.893   7.924  0.00  0.00    -0.348 OA
BRANCH   5   6
HETATM    6  C   UNK N   1      32.941  17.038   6.775  0.00  0.00     0.082 A 
HETATM    7  C   UNK N   1      31.545  17.234   6.719  0.00  0.00     0.036 A 
HETATM    8  C   UNK N   1      30.560  17.375   7.677  0.00  0.00     0.006 A 
HETATM    9  C   UNK N   1      30.896  17.356   5.502  0.00  0.00     0.046 A 
HETATM   10  C   UNK N   1      29.377  17.563   6.996  0.00  0.00     0.043 A 
HETATM   11  C   UNK N   1      30.598  17.379   9.070  0.00  0.00     0.014 A 
HETATM   12  N   UNK N   1      29.570  17.550   5.660  0.00  0.00    -0.355 N 
HETATM   13  C   UNK N   1      28.168  17.756   7.656  0.00  0.00     0.030 A 
HETATM   14  H   UNK N   1      28.891  17.658   4.954  0.00  0.00     0.166 HD
HETATM   15  C   UNK N   1      28.182  17.760   9.063  0.00  0.00     0.002 A 
HETATM   16  C   UNK N   1      29.392  17.573   9.766  0.00  0.00     0.001 A 
HETATM   17  C   UNK N   1      31.578  17.300   4.291  0.00  0.00     0.030 A 
HETATM   18  C   UNK N   1      32.970  17.129   4.326  0.00  0.00     0.005 A 
HETATM   19  C   UNK N   1      33.645  17.005   5.558  0.00  0.00     0.038 A 
ENDBRANCH   5   6
ENDBRANCH   4   5
ENDBRANCH   1   4
BRANCH   1  20
HETATM   20  C   UNK N   1      36.019  15.295   9.925  0.00  0.00     0.147 C 
BRANCH  20  21
HETATM   21  N   UNK N   1      36.354  14.779  11.246  0.00  0.00    -0.417 N 
HETATM   22  H   UNK N   1      36.221  15.282  12.123  0.00  0.00     0.153 HD
BRANCH  21  23
HETATM   23  C   UNK N   1      36.907  13.437  11.125  0.00  0.00     0.140 C 
BRANCH  23  24
HETATM   24  C   UNK N   1      36.841  12.758  12.481  0.00  0.00     0.195 C 
BRANCH  24  25
HETATM   25  O   UNK N   1      35.787  13.280  13.198  0.00  0.00    -0.347 OA
BRANCH  25  26
HETATM   26  C   UNK N   1      35.761  13.475  14.543  0.00  0.00     0.102 A 
HETATM   27  C   UNK N   1      34.781  12.905  15.405  0.00  0.00     0.101 A 
HETATM   28  C   UNK N   1      34.833  13.189  16.783  0.00  0.00     0.039 A 
HETATM   29  C   UNK N   1      35.828  14.015  17.303  0.00  0.00     0.003 A 
HETATM   30  C   UNK N   1      36.788  14.566  16.459  0.00  0.00     0.003 A 
HETATM   31  C   UNK N   1      36.753  14.297  15.091  0.00  0.00     0.039 A 
BRANCH  27  32
HETATM   32  O   UNK N   1      33.810  12.097  14.911  0.00  0.00    -0.353 OA
HETATM   33  C   UNK N   1      33.998  10.758  14.649  0.00  0.00     0.210 C 
ENDBRANCH  27  32
ENDBRANCH  25  26
ENDBRANCH  24  25
ENDBRANCH  23  24
ENDBRANCH  21  23
ENDBRANCH  20  21
ENDBRANCH   1  20
TORSDOF 11
ENDMDL
MODEL 5
REMARK VINA RESULT:      -6.2      7.119     10.012
REMARK  11 active torsions:
REMARK  status: ('A' for Active; 'I' for Inactive)
REMARK    1  A    between atoms: O_1  and  C_11 
REMARK    2  A    between atoms: O_1  and  C_13 
REMARK    3  A    between atoms: O_2  and  C_12 
REMARK    4  A    between atoms: O_3  and  C_23 
REMARK    5  A    between atoms: O_3  and  C_24 
REMARK    6  A    between atoms: O_4  and  C_25 
REMARK    7  A    between atoms: N_6  and  C_14 
REMARK    8  A    between atoms: N_6  and  C_20 
REMARK    9  A    between atoms: C_12  and  C_13 
REMARK   10  A    between atoms: C_12  and  C_14 
REMARK   11  A    between atoms: C_20  and  C_23 
ROOT
HETATM    1  C   UNK N   1      19.516  15.711   5.655  0.00  0.00     0.159 C 
ENDROOT
BRANCH   1   2
HETATM    2  O   UNK N   1      18.133  15.724   5.499  0.00  0.00    -0.392 OA
HETATM    3  H   UNK N   1      17.556  16.499   5.403  0.00  0.00     0.210 HD
ENDBRANCH   1   2
BRANCH   1   4
HETATM    4  C   UNK N   1      20.193  16.039   4.324  0.00  0.00     0.209 C 
BRANCH   4   5
HETATM    5  O   UNK N   1      21.187  16.981   4.483  0.00  0.00    -0.348 OA
BRANCH   5   6
HETATM    6  C   UNK N   1      21.234  18.144   3.798  0.00  0.00     0.082 A 
HETATM    7  C   UNK N   1      22.406  18.912   3.630  0.00  0.00     0.036 A 
HETATM    8  C   UNK N   1      23.723  18.741   4.007  0.00  0.00     0.006 A 
HETATM    9  C   UNK N   1      22.375  20.106   2.929  0.00  0.00     0.046 A 
HETATM   10  C   UNK N   1      24.412  19.835   3.529  0.00  0.00     0.043 A 
HETATM   11  C   UNK N   1      24.378  17.724   4.698  0.00  0.00     0.014 A 
HETATM   12  N   UNK N   1      23.594  20.682   2.868  0.00  0.00    -0.355 N 
HETATM   13  C   UNK N   1      25.782  19.985   3.717  0.00  0.00     0.030 A 
HETATM   14  H   UNK N   1      23.834  21.534   2.436  0.00  0.00     0.166 HD
HETATM   15  C   UNK N   1      26.462  18.973   4.416  0.00  0.00     0.002 A 
HETATM   16  C   UNK N   1      25.763  17.847   4.904  0.00  0.00     0.001 A 
HETATM   17  C   UNK N   1      21.206  20.599   2.358  0.00  0.00     0.030 A 
HETATM   18  C   UNK N   1      20.035  19.838   2.495  0.00  0.00     0.005 A 
HETATM   19  C   UNK N   1      20.051  18.619   3.203  0.00  0.00     0.038 A 
ENDBRANCH   5   6
ENDBRANCH   4   5
ENDBRANCH   1   4
BRANCH   1  20
HETATM   20  C   UNK N   1      19.919  16.690   6.761  0.00  0.00     0.147 C 
BRANCH  20  21
HETATM   21  N   UNK N   1      20.912  16.122   7.664  0.00  0.00    -0.417 N 
HETATM   22  H   UNK N   1      21.576  16.661   8.219  0.00  0.00     0.153 HD
BRANCH  21  23
HETATM   23  C   UNK N   1      20.812  14.669   7.655  0.00  0.00     0.140 C 
BRANCH  23  24
HETATM   24  C   UNK N   1      20.531  14.191   9.068  0.00  0.00     0.195 C 
BRANCH  24  25
HETATM   25  O   UNK N   1      21.066  12.933   9.235  0.00  0.00    -0.347 OA
BRANCH  25  26
HETATM   26  C   UNK N   1      22.134  12.622  10.016  0.00  0.00     0.102 A 
HETATM   27  C   UNK N   1      23.481  12.631   9.553  0.00  0.00     0.101 A 
HETATM   28  C   UNK N   1      24.513  12.271  10.441  0.00  0.00     0.039 A 
HETATM   29  C   UNK N   1      24.227  11.910  11.756  0.00  0.00     0.003 A 
HETATM   30  C   UNK N   1      22.909  11.907  12.208  0.00  0.00     0.003 A 
HETATM   31  C   UNK N   1      21.874  12.260  11.343  0.00  0.00     0.039 A 
BRANCH  27  32
HETATM   32  O   UNK N   1      23.771  12.985   8.276  0.00  0.00    -0.353 OA
HETATM   33  C   UNK N   1      24.887  13.714   7.926  0.00  0.00     0.210 C 
ENDBRANCH  27  32
ENDBRANCH  25  26
ENDBRANCH  24  25
ENDBRANCH  23  24
ENDBRANCH  21  23
ENDBRANCH  20  21
ENDBRANCH   1  20
TORSDOF 11
ENDMDL
MODEL 6
REMARK VINA RESULT:      -6.2      4.884      8.454
REMARK  11 active torsions:
REMARK  status: ('A' for Active; 'I' for Inactive)
REMARK    1  A    between atoms: O_1  and  C_11 
REMARK    2  A    between atoms: O_1  and  C_13 
REMARK    3  A    between atoms: O_2  and  C_12 
REMARK    4  A    between atoms: O_3  and  C_23 
REMARK    5  A    between atoms: O_3  and  C_24 
REMARK    6  A    between atoms: O_4  and  C_25 
REMARK    7  A    between atoms: N_6  and  C_14 
REMARK    8  A    between atoms: N_6  and  C_20 
REMARK    9  A    between atoms: C_12  and  C_13 
REMARK   10  A    between atoms: C_12  and  C_14 
REMARK   11  A    between atoms: C_20  and  C_23 
ROOT
HETATM    1  C   UNK N   1      26.484  17.224   4.216  0.00  0.00     0.159 C 
ENDROOT
BRANCH   1   2
HETATM    2  O   UNK N   1      25.818  18.152   3.421  0.00  0.00    -0.392 OA
HETATM    3  H   UNK N   1      25.308  17.981   2.614  0.00  0.00     0.210 HD
ENDBRANCH   1   2
BRANCH   1   4
HETATM    4  C   UNK N   1      27.171  17.936   5.383  0.00  0.00     0.209 C 
BRANCH   4   5
HETATM    5  O   UNK N   1      28.189  17.173   5.910  0.00  0.00    -0.348 OA
BRANCH   5   6
HETATM    6  C   UNK N   1      28.684  17.339   7.156  0.00  0.00     0.082 A 
HETATM    7  C   UNK N   1      30.062  17.384   7.456  0.00  0.00     0.036 A 
HETATM    8  C   UNK N   1      31.210  17.331   6.691  0.00  0.00     0.006 A 
HETATM    9  C   UNK N   1      30.496  17.540   8.762  0.00  0.00     0.046 A 
HETATM   10  C   UNK N   1      32.269  17.447   7.565  0.00  0.00     0.043 A 
HETATM   11  C   UNK N   1      31.419  17.219   5.318  0.00  0.00     0.014 A 
HETATM   12  N   UNK N   1      31.843  17.572   8.841  0.00  0.00    -0.355 N 
HETATM   13  C   UNK N   1      33.590  17.447   7.130  0.00  0.00     0.030 A 
HETATM   14  H   UNK N   1      32.395  17.665   9.652  0.00  0.00     0.166 HD
HETATM   15  C   UNK N   1      33.824  17.329   5.748  0.00  0.00     0.002 A 
HETATM   16  C   UNK N   1      32.743  17.217   4.847  0.00  0.00     0.001 A 
HETATM   17  C   UNK N   1      29.610  17.665   9.827  0.00  0.00     0.030 A 
HETATM   18  C   UNK N   1      28.235  17.646   9.546  0.00  0.00     0.005 A 
HETATM   19  C   UNK N   1      27.778  17.491   8.221  0.00  0.00     0.038 A 
ENDBRANCH   5   6
ENDBRANCH   4   5
ENDBRANCH   1   4
BRANCH   1  20
HETATM   20  C   UNK N   1      25.499  16.155   4.696  0.00  0.00     0.147 C 
BRANCH  20  21
HETATM   21  N   UNK N   1      25.293  16.203   6.138  0.00  0.00    -0.417 N 
HETATM   22  H   UNK N   1      25.637  16.938   6.755  0.00  0.00     0.153 HD
BRANCH  21  23
HETATM   23  C   UNK N   1      24.521  15.044   6.564  0.00  0.00     0.140 C 
BRANCH  23  24
HETATM   24  C   UNK N   1      25.292  14.316   7.651  0.00  0.00     0.195 C 
BRANCH  24  25
HETATM   25  O   UNK N   1      24.668  13.119   7.924  0.00  0.00    -0.347 OA
BRANCH  25  26
HETATM   26  C   UNK N   1      24.034  12.801   9.084  0.00  0.00     0.102 A 
HETATM   27  C   UNK N   1      22.625  12.888   9.264  0.00  0.00     0.101 A 
HETATM   28  C   UNK N   1      22.072  12.555  10.515  0.00  0.00     0.039 A 
HETATM   29  C   UNK N   1      22.888  12.143  11.568  0.00  0.00     0.003 A 
HETATM   30  C   UNK N   1      24.266  12.053  11.387  0.00  0.00     0.003 A 
HETATM   31  C   UNK N   1      24.832  12.379  10.155  0.00  0.00     0.039 A 
BRANCH  27  32
HETATM   32  O   UNK N   1      21.820  13.285   8.246  0.00  0.00    -0.353 OA
HETATM   33  C   UNK N   1      21.422  12.450   7.225  0.00  0.00     0.210 C 
ENDBRANCH  27  32
ENDBRANCH  25  26
ENDBRANCH  24  25
ENDBRANCH  23  24
ENDBRANCH  21  23
ENDBRANCH  20  21
ENDBRANCH   1  20
TORSDOF 11
ENDMDL
MODEL 7
REMARK VINA RESULT:      -6.2      7.608     11.136
REMARK  11 active torsions:
REMARK  status: ('A' for Active; 'I' for Inactive)
REMARK    1  A    between atoms: O_1  and  C_11 
REMARK    2  A    between atoms: O_1  and  C_13 
REMARK    3  A    between atoms: O_2  and  C_12 
REMARK    4  A    between atoms: O_3  and  C_23 
REMARK    5  A    between atoms: O_3  and  C_24 
REMARK    6  A    between atoms: O_4  and  C_25 
REMARK    7  A    between atoms: N_6  and  C_14 
REMARK    8  A    between atoms: N_6  and  C_20 
REMARK    9  A    between atoms: C_12  and  C_13 
REMARK   10  A    between atoms: C_12  and  C_14 
REMARK   11  A    between atoms: C_20  and  C_23 
ROOT
HETATM    1  C   UNK N   1      35.003  14.437  11.987  0.00  0.00     0.159 C 
ENDROOT
BRANCH   1   2
HETATM    2  O   UNK N   1      34.529  13.455  11.121  0.00  0.00    -0.392 OA
HETATM    3  H   UNK N   1      33.869  12.769  11.310  0.00  0.00     0.210 HD
ENDBRANCH   1   2
BRANCH   1   4
HETATM    4  C   UNK N   1      35.574  13.787  13.248  0.00  0.00     0.209 C 
BRANCH   4   5
HETATM    5  O   UNK N   1      34.637  12.993  13.874  0.00  0.00    -0.348 OA
BRANCH   5   6
HETATM    6  C   UNK N   1      34.859  11.708  14.228  0.00  0.00     0.082 A 
HETATM    7  C   UNK N   1      35.113  11.289  15.551  0.00  0.00     0.036 A 
HETATM    8  C   UNK N   1      35.167  11.941  16.767  0.00  0.00     0.006 A 
HETATM    9  C   UNK N   1      35.350   9.955  15.837  0.00  0.00     0.046 A 
HETATM   10  C   UNK N   1      35.440  10.978  17.715  0.00  0.00     0.043 A 
HETATM   11  C   UNK N   1      34.978  13.273  17.128  0.00  0.00     0.014 A 
HETATM   12  N   UNK N   1      35.558   9.755  17.155  0.00  0.00    -0.355 N 
HETATM   13  C   UNK N   1      35.550  11.283  19.067  0.00  0.00     0.030 A 
HETATM   14  H   UNK N   1      35.754   8.903  17.609  0.00  0.00     0.166 HD
HETATM   15  C   UNK N   1      35.368  12.623  19.454  0.00  0.00     0.002 A 
HETATM   16  C   UNK N   1      35.082  13.613  18.488  0.00  0.00     0.001 A 
HETATM   17  C   UNK N   1      35.342   8.974  14.850  0.00  0.00     0.030 A 
HETATM   18  C   UNK N   1      35.068   9.368  13.532  0.00  0.00     0.005 A 
HETATM   19  C   UNK N   1      34.823  10.722  13.225  0.00  0.00     0.038 A 
ENDBRANCH   5   6
ENDBRANCH   4   5
ENDBRANCH   1   4
BRANCH   1  20
HETATM   20  C   UNK N   1      36.040  15.302  11.267  0.00  0.00     0.147 C 
BRANCH  20  21
HETATM   21  N   UNK N   1      35.744  15.451   9.848  0.00  0.00    -0.417 N 
HETATM   22  H   UNK N   1      36.092  14.841   9.109  0.00  0.00     0.153 HD
BRANCH  21  23
HETATM   23  C   UNK N   1      34.877  16.604   9.645  0.00  0.00     0.140 C 
BRANCH  23  24
HETATM   24  C   UNK N   1      33.580  16.132   9.012  0.00  0.00     0.195 C 
BRANCH  24  25
HETATM   25  O   UNK N   1      32.826  17.227   8.654  0.00  0.00    -0.347 OA
BRANCH  25  26
HETATM   26  C   UNK N   1      31.957  17.286   7.610  0.00  0.00     0.102 A 
HETATM   27  C   UNK N   1      30.545  17.387   7.762  0.00  0.00     0.101 A 
HETATM   28  C   UNK N   1      29.732  17.419   6.613  0.00  0.00     0.039 A 
HETATM   29  C   UNK N   1      30.296  17.354   5.340  0.00  0.00     0.003 A 
HETATM   30  C   UNK N   1      31.678  17.260   5.194  0.00  0.00     0.003 A 
HETATM   31  C   UNK N   1      32.499  17.227   6.320  0.00  0.00     0.039 A 
BRANCH  27  32
HETATM   32  O   UNK N   1      29.985  17.455   8.996  0.00  0.00    -0.353 OA
HETATM   33  C   UNK N   1      29.018  18.374   9.341  0.00  0.00     0.210 C 
ENDBRANCH  27  32
ENDBRANCH  25  26
ENDBRANCH  24  25
ENDBRANCH  23  24
ENDBRANCH  21  23
ENDBRANCH  20  21
ENDBRANCH   1  20
TORSDOF 11
ENDMDL
MODEL 8
REMARK VINA RESULT:      -6.0      3.938      8.474
REMARK  11 active torsions:
REMARK  status: ('A' for Active; 'I' for Inactive)
REMARK    1  A    between atoms: O_1  and  C_11 
REMARK    2  A    between atoms: O_1  and  C_13 
REMARK    3  A    between atoms: O_2  and  C_12 
REMARK    4  A    between atoms: O_3  and  C_23 
REMARK    5  A    between atoms: O_3  and  C_24 
REMARK    6  A    between atoms: O_4  and  C_25 
REMARK    7  A    between atoms: N_6  and  C_14 
REMARK    8  A    between atoms: N_6  and  C_20 
REMARK    9  A    between atoms: C_12  and  C_13 
REMARK   10  A    between atoms: C_12  and  C_14 
REMARK   11  A    between atoms: C_20  and  C_23 
ROOT
HETATM    1  C   UNK N   1      27.160  18.977   4.210  0.00  0.00     0.159 C 
ENDROOT
BRANCH   1   2
HETATM    2  O   UNK N   1      28.336  19.651   3.892  0.00  0.00    -0.392 OA
HETATM    3  H   UNK N   1      28.580  20.560   4.132  0.00  0.00     0.210 HD
ENDBRANCH   1   2
BRANCH   1   4
HETATM    4  C   UNK N   1      27.485  17.705   4.992  0.00  0.00     0.209 C 
BRANCH   4   5
HETATM    5  O   UNK N   1      28.760  17.745   5.513  0.00  0.00    -0.348 OA
BRANCH   5   6
HETATM    6  C   UNK N   1      29.031  17.718   6.837  0.00  0.00     0.082 A 
HETATM    7  C   UNK N   1      30.315  17.490   7.373  0.00  0.00     0.036 A 
HETATM    8  C   UNK N   1      31.564  17.295   6.816  0.00  0.00     0.006 A 
HETATM    9  C   UNK N   1      30.514  17.457   8.744  0.00  0.00     0.046 A 
HETATM   10  C   UNK N   1      32.442  17.146   7.867  0.00  0.00     0.043 A 
HETATM   11  C   UNK N   1      32.008  17.260   5.496  0.00  0.00     0.014 A 
HETATM   12  N   UNK N   1      31.809  17.240   9.056  0.00  0.00    -0.355 N 
HETATM   13  C   UNK N   1      33.804  16.945   7.668  0.00  0.00     0.030 A 
HETATM   14  H   UNK N   1      32.205  17.167   9.955  0.00  0.00     0.166 HD
HETATM   15  C   UNK N   1      34.274  16.901   6.344  0.00  0.00     0.002 A 
HETATM   16  C   UNK N   1      33.379  17.059   5.262  0.00  0.00     0.001 A 
HETATM   17  C   UNK N   1      29.474  17.652   9.647  0.00  0.00     0.030 A 
HETATM   18  C   UNK N   1      28.193  17.903   9.133  0.00  0.00     0.005 A 
HETATM   19  C   UNK N   1      27.976  17.941   7.740  0.00  0.00     0.038 A 
ENDBRANCH   5   6
ENDBRANCH   4   5
ENDBRANCH   1   4
BRANCH   1  20
HETATM   20  C   UNK N   1      26.227  19.907   4.989  0.00  0.00     0.147 C 
BRANCH  20  21
HETATM   21  N   UNK N   1      24.856  19.851   4.497  0.00  0.00    -0.417 N 
HETATM   22  H   UNK N   1      24.051  19.542   5.041  0.00  0.00     0.153 HD
BRANCH  21  23
HETATM   23  C   UNK N   1      24.810  20.303   3.113  0.00  0.00     0.140 C 
BRANCH  23  24
HETATM   24  C   UNK N   1      23.373  20.634   2.755  0.00  0.00     0.195 C 
BRANCH  24  25
HETATM   25  O   UNK N   1      22.528  19.983   3.627  0.00  0.00    -0.347 OA
BRANCH  25  26
HETATM   26  C   UNK N   1      21.778  18.887   3.335  0.00  0.00     0.102 A 
HETATM   27  C   UNK N   1      22.194  17.552   3.601  0.00  0.00     0.101 A 
HETATM   28  C   UNK N   1      21.349  16.486   3.238  0.00  0.00     0.039 A 
HETATM   29  C   UNK N   1      20.119  16.728   2.629  0.00  0.00     0.003 A 
HETATM   30  C   UNK N   1      19.712  18.036   2.375  0.00  0.00     0.003 A 
HETATM   31  C   UNK N   1      20.536  19.104   2.727  0.00  0.00     0.039 A 
BRANCH  27  32
HETATM   32  O   UNK N   1      23.387  17.304   4.197  0.00  0.00    -0.353 OA
HETATM   33  C   UNK N   1      24.053  16.102   4.091  0.00  0.00     0.210 C 
ENDBRANCH  27  32
ENDBRANCH  25  26
ENDBRANCH  24  25
ENDBRANCH  23  24
ENDBRANCH  21  23
ENDBRANCH  20  21
ENDBRANCH   1  20
TORSDOF 11
ENDMDL
MODEL 9
REMARK VINA RESULT:      -5.9      5.108      8.717
REMARK  11 active torsions:
REMARK  status: ('A' for Active; 'I' for Inactive)
REMARK    1  A    between atoms: O_1  and  C_11 
REMARK    2  A    between atoms: O_1  and  C_13 
REMARK    3  A    between atoms: O_2  and  C_12 
REMARK    4  A    between atoms: O_3  and  C_23 
REMARK    5  A    between atoms: O_3  and  C_24 
REMARK    6  A    between atoms: O_4  and  C_25 
REMARK    7  A    between atoms: N_6  and  C_14 
REMARK    8  A    between atoms: N_6  and  C_20 
REMARK    9  A    between atoms: C_12  and  C_13 
REMARK   10  A    between atoms: C_12  and  C_14 
REMARK   11  A    between atoms: C_20  and  C_23 
ROOT
HETATM    1  C   UNK N   1      25.034  18.017   4.365  0.00  0.00     0.159 C 
ENDROOT
BRANCH   1   2
HETATM    2  O   UNK N   1      24.503  18.779   5.402  0.00  0.00    -0.392 OA
HETATM    3  H   UNK N   1      24.983  19.362   6.012  0.00  0.00     0.210 HD
ENDBRANCH   1   2
BRANCH   1   4
HETATM    4  C   UNK N   1      26.549  18.213   4.298  0.00  0.00     0.209 C 
BRANCH   4   5
HETATM    5  O   UNK N   1      27.222  17.043   4.574  0.00  0.00    -0.348 OA
BRANCH   5   6
HETATM    6  C   UNK N   1      28.566  16.921   4.525  0.00  0.00     0.082 A 
HETATM    7  C   UNK N   1      29.418  17.143   5.628  0.00  0.00     0.036 A 
HETATM    8  C   UNK N   1      29.202  17.465   6.953  0.00  0.00     0.006 A 
HETATM    9  C   UNK N   1      30.791  17.017   5.498  0.00  0.00     0.046 A 
HETATM   10  C   UNK N   1      30.443  17.526   7.548  0.00  0.00     0.043 A 
HETATM   11  C   UNK N   1      28.039  17.684   7.689  0.00  0.00     0.014 A 
HETATM   12  N   UNK N   1      31.427  17.256   6.664  0.00  0.00    -0.355 N 
HETATM   13  C   UNK N   1      30.601  17.816   8.900  0.00  0.00     0.030 A 
HETATM   14  H   UNK N   1      32.398  17.238   6.833  0.00  0.00     0.166 HD
HETATM   15  C   UNK N   1      29.441  18.045   9.661  0.00  0.00     0.002 A 
HETATM   16  C   UNK N   1      28.166  17.978   9.058  0.00  0.00     0.001 A 
HETATM   17  C   UNK N   1      31.391  16.662   4.294  0.00  0.00     0.030 A 
HETATM   18  C   UNK N   1      30.559  16.415   3.192  0.00  0.00     0.005 A 
HETATM   19  C   UNK N   1      29.160  16.537   3.309  0.00  0.00     0.038 A 
ENDBRANCH   5   6
ENDBRANCH   4   5
ENDBRANCH   1   4
BRANCH   1  20
HETATM   20  C   UNK N   1      24.654  16.547   4.559  0.00  0.00     0.147 C 
BRANCH  20  21
HETATM   21  N   UNK N   1      24.561  16.183   5.967  0.00  0.00    -0.417 N 
HETATM   22  H   UNK N   1      24.663  16.830   6.748  0.00  0.00     0.153 HD
BRANCH  21  23
HETATM   23  C   UNK N   1      24.297  14.755   6.090  0.00  0.00     0.140 C 
BRANCH  23  24
HETATM   24  C   UNK N   1      24.601  14.324   7.514  0.00  0.00     0.195 C 
BRANCH  24  25
HETATM   25  O   UNK N   1      23.827  13.230   7.830  0.00  0.00    -0.347 OA
BRANCH  25  26
HETATM   26  C   UNK N   1      23.515  12.815   9.087  0.00  0.00     0.102 A 
HETATM   27  C   UNK N   1      22.181  12.701   9.573  0.00  0.00     0.101 A 
HETATM   28  C   UNK N   1      21.969  12.282  10.900  0.00  0.00     0.039 A 
HETATM   29  C   UNK N   1      23.046  11.980  11.732  0.00  0.00     0.003 A 
HETATM   30  C   UNK N   1      24.349  12.087  11.252  0.00  0.00     0.003 A 
HETATM   31  C   UNK N   1      24.579  12.501   9.941  0.00  0.00     0.039 A 
BRANCH  27  32
HETATM   32  O   UNK N   1      21.125  12.989   8.771  0.00  0.00    -0.353 OA
HETATM   33  C   UNK N   1      20.578  14.248   8.660  0.00  0.00     0.210 C 
ENDBRANCH  27  32
ENDBRANCH  25  26
ENDBRANCH  24  25
ENDBRANCH  23  24
ENDBRANCH  21  23
ENDBRANCH  20  21
ENDBRANCH   1  20
TORSDOF 11
ENDMDL
