REMARK  11 active torsions:
REMARK  status: ('A' for Active; 'I' for Inactive)
REMARK    1  A    between atoms: O_1  and  C_11 
REMARK    2  A    between atoms: O_1  and  C_13 
REMARK    3  A    between atoms: O_2  and  C_12 
REMARK    4  A    between atoms: O_3  and  C_23 
REMARK    5  A    between atoms: O_3  and  C_24 
REMARK    6  A    between atoms: O_4  and  C_25 
REMARK    7  A    between atoms: N_6  and  C_14 
REMARK    8  A    between atoms: N_6  and  C_20 
REMARK    9  A    between atoms: C_12  and  C_13 
REMARK   10  A    between atoms: C_12  and  C_14 
REMARK   11  A    between atoms: C_20  and  C_23 
ROOT
HETATM    1  C   UNK N   1       4.155  -0.167   0.492  0.00  0.00     0.159 C 
ENDROOT
BRANCH   1   2
HETATM    2  O   UNK N   1       2.944   0.047   1.144  0.00  0.00    -0.392 OA
HETATM    3  H   UNK N   1       2.652   0.853   1.599  0.00  0.00     0.210 HD
ENDBRANCH   1   2
BRANCH   1   4
HETATM    4  C   UNK N   1       4.515   1.057  -0.351  0.00  0.00     0.209 C 
BRANCH   4   5
HETATM    5  O   UNK N   1       5.293   1.946   0.358  0.00  0.00    -0.348 OA
BRANCH   5   6
HETATM    6  C   UNK N   1       5.363   3.267   0.083  0.00  0.00     0.082 A 
HETATM    7  C   UNK N   1       4.237   4.083  -0.153  0.00  0.00     0.036 A 
HETATM    8  C   UNK N   1       2.874   3.860  -0.138  0.00  0.00     0.006 A 
HETATM    9  C   UNK N   1       4.387   5.428  -0.448  0.00  0.00     0.046 A 
HETATM   10  C   UNK N   1       2.277   5.067  -0.431  0.00  0.00     0.043 A 
HETATM   11  C   UNK N   1       2.111   2.725   0.128  0.00  0.00     0.014 A 
HETATM   12  N   UNK N   1       3.196   6.037  -0.627  0.00  0.00    -0.355 N 
HETATM   13  C   UNK N   1       0.895   5.213  -0.486  0.00  0.00     0.030 A 
HETATM   14  H   UNK N   1       3.033   6.982  -0.852  0.00  0.00     0.166 HD
HETATM   15  C   UNK N   1       0.105   4.079  -0.226  0.00  0.00     0.002 A 
HETATM   16  C   UNK N   1       0.711   2.841   0.081  0.00  0.00     0.001 A 
HETATM   17  C   UNK N   1       5.637   6.035  -0.518  0.00  0.00     0.030 A 
HETATM   18  C   UNK N   1       6.768   5.245  -0.264  0.00  0.00     0.005 A 
HETATM   19  C   UNK N   1       6.631   3.875   0.040  0.00  0.00     0.038 A 
ENDBRANCH   5   6
ENDBRANCH   4   5
ENDBRANCH   1   4
BRANCH   1  20
HETATM   20  C   UNK N   1       5.242  -0.497   1.518  0.00  0.00     0.147 C 
BRANCH  20  21
HETATM   21  N   UNK N   1       6.025  -1.665   1.135  0.00  0.00    -0.417 N 
HETATM   22  H   UNK N   1       6.061  -2.542   1.653  0.00  0.00     0.153 HD
BRANCH  21  23
HETATM   23  C   UNK N   1       6.747  -1.390  -0.100  0.00  0.00     0.140 C 
BRANCH  23  24
HETATM   24  C   UNK N   1       6.265  -2.352  -1.171  0.00  0.00     0.195 C 
BRANCH  24  25
HETATM   25  O   UNK N   1       6.614  -3.636  -0.816  0.00  0.00    -0.347 OA
BRANCH  25  26
HETATM   26  C   UNK N   1       5.778  -4.568  -0.285  0.00  0.00     0.102 A 
HETATM   27  C   UNK N   1       4.380  -4.366  -0.108  0.00  0.00     0.101 A 
HETATM   28  C   UNK N   1       3.608  -5.390   0.473  0.00  0.00     0.039 A 
HETATM   29  C   UNK N   1       4.198  -6.589   0.870  0.00  0.00     0.003 A 
HETATM   30  C   UNK N   1       5.565  -6.786   0.690  0.00  0.00     0.003 A 
HETATM   31  C   UNK N   1       6.346  -5.783   0.117  0.00  0.00     0.039 A 
BRANCH  27  32
HETATM   32  O   UNK N   1       3.794  -3.205  -0.494  0.00  0.00    -0.353 OA
HETATM   33  C   UNK N   1       2.446  -2.954  -0.359  0.00  0.00     0.210 C 
ENDBRANCH  27  32
ENDBRANCH  25  26
ENDBRANCH  24  25
ENDBRANCH  23  24
ENDBRANCH  21  23
ENDBRANCH  20  21
ENDBRANCH   1  20
TORSDOF 11
