MODEL 1
REMARK VINA RESULT:      -8.1      0.000      0.000
REMARK  3 active torsions:
REMARK  status: ('A' for Active; 'I' for Inactive)
REMARK    1  A    between atoms: O_4  and  C_26 
REMARK    2  A    between atoms: N_6  and  C_12 
REMARK    3  A    between atoms: C_25  and  C_26 
ROOT
HETATM    1  F   UNK N   1      30.908  16.420   2.562  0.00  0.00    -0.204 F 
HETATM    2  O   UNK N   1      28.543  16.777   6.768  0.00  0.00    -0.344 OA
HETATM    3  O   UNK N   1      34.309  17.664   5.891  0.00  0.00    -0.286 OA
HETATM    4  N   UNK N   1      30.902  17.459   8.004  0.00  0.00    -0.346 N 
HETATM    5  C   UNK N   1      29.678  17.359   8.822  0.00  0.00     0.110 C 
HETATM    6  C   UNK N   1      29.639  16.542   4.628  0.00  0.00     0.105 A 
HETATM    7  C   UNK N   1      30.876  17.220   6.651  0.00  0.00     0.085 A 
HETATM    8  C   UNK N   1      29.669  16.847   6.022  0.00  0.00     0.126 A 
HETATM    9  C   UNK N   1      28.413  17.436   7.969  0.00  0.00     0.201 C 
HETATM   10  C   UNK N   1      32.064  17.297   5.898  0.00  0.00     0.048 A 
HETATM   11  C   UNK N   1      30.847  16.678   3.891  0.00  0.00     0.146 A 
HETATM   12  C   UNK N   1      32.084  17.724   8.634  0.00  0.00     0.114 A 
HETATM   13  C   UNK N   1      32.030  17.046   4.526  0.00  0.00     0.062 A 
HETATM   14  C   UNK N   1      29.586  18.495   9.833  0.00  0.00     0.035 C 
HETATM   15  C   UNK N   1      33.276  17.601   6.538  0.00  0.00     0.202 A 
HETATM   16  C   UNK N   1      33.290  17.807   7.931  0.00  0.00     0.104 A 
ENDROOT
BRANCH   6  17
HETATM   17  N   UNK N   1      28.422  16.103   3.979  0.00  0.00    -0.373 N 
HETATM   18  C   UNK N   1      27.459  17.064   3.461  0.00  0.00     0.153 C 
HETATM   19  C   UNK N   1      26.104  16.409   3.193  0.00  0.00     0.291 C 
HETATM   20  N   UNK N   1      25.854  15.404   4.221  0.00  0.00     0.087 N 
HETATM   21  C   UNK N   1      26.756  14.265   4.027  0.00  0.00     0.291 C 
HETATM   22  C   UNK N   1      24.500  14.914   4.037  0.00  0.00     0.310 C 
HETATM   23  C   UNK N   1      28.192  14.695   3.695  0.00  0.00     0.153 C 
ENDBRANCH   6  17
BRANCH  16  24
HETATM   24  C   UNK N   1      34.537  18.092   8.689  0.00  0.00     0.181 C 
HETATM   25  O   UNK N   1      34.895  17.365   9.602  0.00  0.00    -0.646 OA
BRANCH  24  26
HETATM   26  O   UNK N   1      35.280  19.173   8.379  0.00  0.00    -0.772 OA
HETATM   27  H   UNK N   1      36.035  19.081   7.832  0.00  0.00     0.167 HD
ENDBRANCH  24  26
ENDBRANCH  16  24
TORSDOF 3
ENDMDL
MODEL 2
REMARK VINA RESULT:      -7.6      4.127      8.393
REMARK  3 active torsions:
REMARK  status: ('A' for Active; 'I' for Inactive)
REMARK    1  A    between atoms: O_4  and  C_26 
REMARK    2  A    between atoms: N_6  and  C_12 
REMARK    3  A    between atoms: C_25  and  C_26 
ROOT
HETATM    1  F   UNK N   1      28.680  19.852   4.532  0.00  0.00    -0.204 F 
HETATM    2  O   UNK N   1      25.479  16.455   5.805  0.00  0.00    -0.344 OA
HETATM    3  O   UNK N   1      24.412  21.235   2.515  0.00  0.00    -0.286 OA
HETATM    4  N   UNK N   1      23.533  17.807   4.409  0.00  0.00    -0.346 N 
HETATM    5  C   UNK N   1      23.162  16.569   5.122  0.00  0.00     0.110 C 
HETATM    6  C   UNK N   1      27.144  18.116   5.248  0.00  0.00     0.105 A 
HETATM    7  C   UNK N   1      24.821  18.283   4.434  0.00  0.00     0.085 A 
HETATM    8  C   UNK N   1      25.815  17.601   5.170  0.00  0.00     0.126 A 
HETATM    9  C   UNK N   1      24.382  15.707   5.444  0.00  0.00     0.201 C 
HETATM   10  C   UNK N   1      25.144  19.481   3.765  0.00  0.00     0.048 A 
HETATM   11  C   UNK N   1      27.443  19.299   4.522  0.00  0.00     0.146 A 
HETATM   12  C   UNK N   1      22.549  18.513   3.781  0.00  0.00     0.114 A 
HETATM   13  C   UNK N   1      26.452  19.961   3.801  0.00  0.00     0.062 A 
HETATM   14  C   UNK N   1      22.229  15.700   4.289  0.00  0.00     0.035 C 
HETATM   15  C   UNK N   1      24.139  20.193   3.091  0.00  0.00     0.202 A 
HETATM   16  C   UNK N   1      22.818  19.709   3.107  0.00  0.00     0.104 A 
ENDROOT
BRANCH   6  17
HETATM   17  N   UNK N   1      28.159  17.460   6.045  0.00  0.00    -0.373 N 
HETATM   18  C   UNK N   1      28.322  17.774   7.457  0.00  0.00     0.153 C 
HETATM   19  C   UNK N   1      29.671  17.285   7.986  0.00  0.00     0.291 C 
HETATM   20  N   UNK N   1      30.677  17.453   6.942  0.00  0.00     0.087 N 
HETATM   21  C   UNK N   1      30.435  16.489   5.865  0.00  0.00     0.291 C 
HETATM   22  C   UNK N   1      31.969  17.134   7.520  0.00  0.00     0.310 C 
HETATM   23  C   UNK N   1      28.949  16.367   5.499  0.00  0.00     0.153 C 
ENDBRANCH   6  17
BRANCH  16  24
HETATM   24  C   UNK N   1      21.691  20.425   2.453  0.00  0.00     0.181 C 
HETATM   25  O   UNK N   1      20.970  19.858   1.648  0.00  0.00    -0.646 OA
BRANCH  24  26
HETATM   26  O   UNK N   1      21.463  21.723   2.739  0.00  0.00    -0.772 OA
HETATM   27  H   UNK N   1      20.713  21.966   3.245  0.00  0.00     0.167 HD
ENDBRANCH  24  26
ENDBRANCH  16  24
TORSDOF 3
ENDMDL
MODEL 3
REMARK VINA RESULT:      -7.3      6.632      9.838
REMARK  3 active torsions:
REMARK  status: ('A' for Active; 'I' for Inactive)
REMARK    1  A    between atoms: O_4  and  C_26 
REMARK    2  A    between atoms: N_6  and  C_12 
REMARK    3  A    between atoms: C_25  and  C_26 
ROOT
HETATM    1  F   UNK N   1      36.580  14.726  14.051  0.00  0.00    -0.204 F 
HETATM    2  O   UNK N   1      34.500  11.992  10.645  0.00  0.00    -0.344 OA
HETATM    3  O   UNK N   1      35.652  17.767  10.297  0.00  0.00    -0.286 OA
HETATM    4  N   UNK N   1      34.321  14.202   9.020  0.00  0.00    -0.346 N 
HETATM    5  C   UNK N   1      33.788  12.917   8.528  0.00  0.00     0.110 C 
HETATM    6  C   UNK N   1      35.516  13.279  12.419  0.00  0.00     0.105 A 
HETATM    7  C   UNK N   1      34.898  14.304  10.262  0.00  0.00     0.085 A 
HETATM    8  C   UNK N   1      34.969  13.174  11.105  0.00  0.00     0.126 A 
HETATM    9  C   UNK N   1      34.355  11.729   9.302  0.00  0.00     0.201 C 
HETATM   10  C   UNK N   1      35.378  15.548  10.718  0.00  0.00     0.048 A 
HETATM   11  C   UNK N   1      36.033  14.538  12.825  0.00  0.00     0.146 A 
HETATM   12  C   UNK N   1      34.163  15.312   8.241  0.00  0.00     0.114 A 
HETATM   13  C   UNK N   1      35.956  15.644  11.983  0.00  0.00     0.062 A 
HETATM   14  C   UNK N   1      34.142  12.687   7.064  0.00  0.00     0.035 C 
HETATM   15  C   UNK N   1      35.244  16.685   9.905  0.00  0.00     0.202 A 
HETATM   16  C   UNK N   1      34.617  16.569   8.650  0.00  0.00     0.104 A 
ENDROOT
BRANCH   6  17
HETATM   17  N   UNK N   1      35.544  12.144  13.316  0.00  0.00    -0.373 N 
HETATM   18  C   UNK N   1      34.392  11.813  14.143  0.00  0.00     0.153 C 
HETATM   19  C   UNK N   1      34.771  10.857  15.274  0.00  0.00     0.291 C 
HETATM   20  N   UNK N   1      36.108  11.196  15.751  0.00  0.00     0.087 N 
HETATM   21  C   UNK N   1      37.101  10.833  14.736  0.00  0.00     0.291 C 
HETATM   22  C   UNK N   1      36.377  10.384  16.923  0.00  0.00     0.310 C 
HETATM   23  C   UNK N   1      36.664  11.215  13.314  0.00  0.00     0.153 C 
ENDBRANCH   6  17
BRANCH  16  24
HETATM   24  C   UNK N   1      34.400  17.732   7.749  0.00  0.00     0.181 C 
HETATM   25  O   UNK N   1      34.294  17.579   6.543  0.00  0.00    -0.646 OA
BRANCH  24  26
HETATM   26  O   UNK N   1      34.333  18.976   8.262  0.00  0.00    -0.772 OA
HETATM   27  H   UNK N   1      33.970  19.674   7.752  0.00  0.00     0.167 HD
ENDBRANCH  24  26
ENDBRANCH  16  24
TORSDOF 3
ENDMDL
MODEL 4
REMARK VINA RESULT:      -6.9      3.796      5.616
REMARK  3 active torsions:
REMARK  status: ('A' for Active; 'I' for Inactive)
REMARK    1  A    between atoms: O_4  and  C_26 
REMARK    2  A    between atoms: N_6  and  C_12 
REMARK    3  A    between atoms: C_25  and  C_26 
ROOT
HETATM    1  F   UNK N   1      33.300  18.841   8.058  0.00  0.00    -0.204 F 
HETATM    2  O   UNK N   1      33.134  14.328   6.323  0.00  0.00    -0.344 OA
HETATM    3  O   UNK N   1      36.433  16.245  10.823  0.00  0.00    -0.286 OA
HETATM    4  N   UNK N   1      34.964  13.560   8.226  0.00  0.00    -0.346 N 
HETATM    5  C   UNK N   1      34.476  12.551   7.266  0.00  0.00     0.110 C 
HETATM    6  C   UNK N   1      33.171  16.616   7.097  0.00  0.00     0.105 A 
HETATM    7  C   UNK N   1      34.520  14.859   8.181  0.00  0.00     0.085 A 
HETATM    8  C   UNK N   1      33.598  15.257   7.189  0.00  0.00     0.126 A 
HETATM    9  C   UNK N   1      33.169  12.980   6.601  0.00  0.00     0.201 C 
HETATM   10  C   UNK N   1      35.021  15.808   9.093  0.00  0.00     0.048 A 
HETATM   11  C   UNK N   1      33.661  17.534   8.064  0.00  0.00     0.146 A 
HETATM   12  C   UNK N   1      35.928  13.192   9.120  0.00  0.00     0.114 A 
HETATM   13  C   UNK N   1      34.570  17.126   9.036  0.00  0.00     0.062 A 
HETATM   14  C   UNK N   1      34.194  11.218   7.948  0.00  0.00     0.035 C 
HETATM   15  C   UNK N   1      35.990  15.424  10.034  0.00  0.00     0.202 A 
HETATM   16  C   UNK N   1      36.460  14.098  10.042  0.00  0.00     0.104 A 
ENDROOT
BRANCH   6  17
HETATM   17  N   UNK N   1      32.270  17.053   6.051  0.00  0.00    -0.373 N 
HETATM   18  C   UNK N   1      30.840  17.173   6.294  0.00  0.00     0.153 C 
HETATM   19  C   UNK N   1      30.055  17.252   4.985  0.00  0.00     0.291 C 
HETATM   20  N   UNK N   1      30.693  16.387   3.998  0.00  0.00     0.087 N 
HETATM   21  C   UNK N   1      31.975  16.968   3.589  0.00  0.00     0.291 C 
HETATM   22  C   UNK N   1      29.842  16.356   2.823  0.00  0.00     0.310 C 
HETATM   23  C   UNK N   1      32.781  17.523   4.772  0.00  0.00     0.153 C 
ENDBRANCH   6  17
BRANCH  16  24
HETATM   24  C   UNK N   1      37.513  13.623  10.978  0.00  0.00     0.181 C 
HETATM   25  O   UNK N   1      38.582  13.208  10.561  0.00  0.00    -0.646 OA
BRANCH  24  26
HETATM   26  O   UNK N   1      37.287  13.637  12.307  0.00  0.00    -0.772 OA
HETATM   27  H   UNK N   1      36.426  13.465  12.637  0.00  0.00     0.167 HD
ENDBRANCH  24  26
ENDBRANCH  16  24
TORSDOF 3
ENDMDL
MODEL 5
REMARK VINA RESULT:      -6.8      1.997      3.348
REMARK  3 active torsions:
REMARK  status: ('A' for Active; 'I' for Inactive)
REMARK    1  A    between atoms: O_4  and  C_26 
REMARK    2  A    between atoms: N_6  and  C_12 
REMARK    3  A    between atoms: C_25  and  C_26 
ROOT
HETATM    1  F   UNK N   1      26.874  16.845   7.364  0.00  0.00    -0.204 F 
HETATM    2  O   UNK N   1      29.803  16.763   3.514  0.00  0.00    -0.344 OA
HETATM    3  O   UNK N   1      31.399  17.638   9.126  0.00  0.00    -0.286 OA
HETATM    4  N   UNK N   1      31.948  17.217   5.172  0.00  0.00    -0.346 N 
HETATM    5  C   UNK N   1      32.188  17.104   3.720  0.00  0.00     0.110 C 
HETATM    6  C   UNK N   1      28.256  16.818   5.369  0.00  0.00     0.105 A 
HETATM    7  C   UNK N   1      30.685  17.098   5.696  0.00  0.00     0.085 A 
HETATM    8  C   UNK N   1      29.580  16.888   4.842  0.00  0.00     0.126 A 
HETATM    9  C   UNK N   1      31.031  16.411   3.002  0.00  0.00     0.201 C 
HETATM   10  C   UNK N   1      30.480  17.235   7.084  0.00  0.00     0.048 A 
HETATM   11  C   UNK N   1      28.095  16.912   6.777  0.00  0.00     0.146 A 
HETATM   12  C   UNK N   1      33.005  17.517   5.982  0.00  0.00     0.114 A 
HETATM   13  C   UNK N   1      29.193  17.120   7.607  0.00  0.00     0.062 A 
HETATM   14  C   UNK N   1      33.435  16.283   3.420  0.00  0.00     0.035 C 
HETATM   15  C   UNK N   1      31.571  17.512   7.923  0.00  0.00     0.202 A 
HETATM   16  C   UNK N   1      32.853  17.667   7.364  0.00  0.00     0.104 A 
ENDROOT
BRANCH   6  17
HETATM   17  N   UNK N   1      27.108  16.661   4.502  0.00  0.00    -0.373 N 
HETATM   18  C   UNK N   1      26.417  17.819   3.954  0.00  0.00     0.153 C 
HETATM   19  C   UNK N   1      25.035  17.444   3.417  0.00  0.00     0.291 C 
HETATM   20  N   UNK N   1      24.455  16.420   4.280  0.00  0.00     0.087 N 
HETATM   21  C   UNK N   1      25.175  15.157   4.099  0.00  0.00     0.291 C 
HETATM   22  C   UNK N   1      23.088  16.200   3.844  0.00  0.00     0.310 C 
HETATM   23  C   UNK N   1      26.698  15.345   4.034  0.00  0.00     0.153 C 
ENDBRANCH   6  17
BRANCH  16  24
HETATM   24  C   UNK N   1      34.051  18.001   8.179  0.00  0.00     0.181 C 
HETATM   25  O   UNK N   1      34.931  18.721   7.734  0.00  0.00    -0.646 OA
BRANCH  24  26
HETATM   26  O   UNK N   1      34.181  17.496   9.422  0.00  0.00    -0.772 OA
HETATM   27  H   UNK N   1      34.430  18.056  10.131  0.00  0.00     0.167 HD
ENDBRANCH  24  26
ENDBRANCH  16  24
TORSDOF 3
ENDMDL
MODEL 6
REMARK VINA RESULT:      -6.8      5.514      7.719
REMARK  3 active torsions:
REMARK  status: ('A' for Active; 'I' for Inactive)
REMARK    1  A    between atoms: O_4  and  C_26 
REMARK    2  A    between atoms: N_6  and  C_12 
REMARK    3  A    between atoms: C_25  and  C_26 
ROOT
HETATM    1  F   UNK N   1      34.806  17.429   9.382  0.00  0.00    -0.204 F 
HETATM    2  O   UNK N   1      33.972  12.686   8.926  0.00  0.00    -0.344 OA
HETATM    3  O   UNK N   1      36.430  15.393  13.556  0.00  0.00    -0.286 OA
HETATM    4  N   UNK N   1      35.034  12.287  11.431  0.00  0.00    -0.346 N 
HETATM    5  C   UNK N   1      34.564  11.115  10.667  0.00  0.00     0.110 C 
HETATM    6  C   UNK N   1      34.376  15.064   9.046  0.00  0.00     0.105 A 
HETATM    7  C   UNK N   1      34.946  13.556  10.913  0.00  0.00     0.085 A 
HETATM    8  C   UNK N   1      34.422  13.757   9.617  0.00  0.00     0.126 A 
HETATM    9  C   UNK N   1      33.607  11.511   9.544  0.00  0.00     0.201 C 
HETATM   10  C   UNK N   1      35.425  14.655  11.653  0.00  0.00     0.048 A 
HETATM   11  C   UNK N   1      34.823  16.154   9.841  0.00  0.00     0.146 A 
HETATM   12  C   UNK N   1      35.628  12.077  12.641  0.00  0.00     0.114 A 
HETATM   13  C   UNK N   1      35.338  15.940  11.116  0.00  0.00     0.062 A 
HETATM   14  C   UNK N   1      33.806  10.135  11.553  0.00  0.00     0.035 C 
HETATM   15  C   UNK N   1      36.008  14.445  12.912  0.00  0.00     0.202 A 
HETATM   16  C   UNK N   1      36.122  13.134  13.412  0.00  0.00     0.104 A 
ENDROOT
BRANCH   6  17
HETATM   17  N   UNK N   1      33.896  15.280   7.698  0.00  0.00    -0.373 N 
HETATM   18  C   UNK N   1      34.794  15.183   6.556  0.00  0.00     0.153 C 
HETATM   19  C   UNK N   1      34.188  15.829   5.310  0.00  0.00     0.291 C 
HETATM   20  N   UNK N   1      33.426  17.007   5.712  0.00  0.00     0.087 N 
HETATM   21  C   UNK N   1      32.216  16.592   6.427  0.00  0.00     0.291 C 
HETATM   22  C   UNK N   1      32.997  17.687   4.504  0.00  0.00     0.310 C 
HETATM   23  C   UNK N   1      32.477  15.458   7.428  0.00  0.00     0.153 C 
ENDBRANCH   6  17
BRANCH  16  24
HETATM   24  C   UNK N   1      36.764  12.823  14.717  0.00  0.00     0.181 C 
HETATM   25  O   UNK N   1      36.503  11.791  15.314  0.00  0.00    -0.646 OA
BRANCH  24  26
HETATM   26  O   UNK N   1      37.636  13.695  15.261  0.00  0.00    -0.772 OA
HETATM   27  H   UNK N   1      37.324  14.393  15.803  0.00  0.00     0.167 HD
ENDBRANCH  24  26
ENDBRANCH  16  24
TORSDOF 3
ENDMDL
MODEL 7
REMARK VINA RESULT:      -6.6      4.838      9.387
REMARK  3 active torsions:
REMARK  status: ('A' for Active; 'I' for Inactive)
REMARK    1  A    between atoms: O_4  and  C_26 
REMARK    2  A    between atoms: N_6  and  C_12 
REMARK    3  A    between atoms: C_25  and  C_26 
ROOT
HETATM    1  F   UNK N   1      26.542  21.212   3.566  0.00  0.00    -0.204 F 
HETATM    2  O   UNK N   1      25.140  16.992   5.472  0.00  0.00    -0.344 OA
HETATM    3  O   UNK N   1      21.874  20.602   2.139  0.00  0.00    -0.286 OA
HETATM    4  N   UNK N   1      22.668  17.323   4.315  0.00  0.00    -0.346 N 
HETATM    5  C   UNK N   1      22.910  16.122   5.137  0.00  0.00     0.110 C 
HETATM    6  C   UNK N   1      25.924  19.101   4.590  0.00  0.00     0.105 A 
HETATM    7  C   UNK N   1      23.651  18.264   4.123  0.00  0.00     0.085 A 
HETATM    8  C   UNK N   1      24.913  18.104   4.737  0.00  0.00     0.126 A 
HETATM    9  C   UNK N   1      24.401  15.842   5.317  0.00  0.00     0.201 C 
HETATM   10  C   UNK N   1      23.387  19.414   3.354  0.00  0.00     0.048 A 
HETATM   11  C   UNK N   1      25.637  20.223   3.768  0.00  0.00     0.146 A 
HETATM   12  C   UNK N   1      21.418  17.520   3.804  0.00  0.00     0.114 A 
HETATM   13  C   UNK N   1      24.388  20.367   3.170  0.00  0.00     0.062 A 
HETATM   14  C   UNK N   1      22.312  14.875   4.497  0.00  0.00     0.035 C 
HETATM   15  C   UNK N   1      22.110  19.603   2.801  0.00  0.00     0.202 A 
HETATM   16  C   UNK N   1      21.105  18.647   3.038  0.00  0.00     0.104 A 
ENDROOT
BRANCH   6  17
HETATM   17  N   UNK N   1      27.202  18.981   5.259  0.00  0.00    -0.373 N 
HETATM   18  C   UNK N   1      28.277  18.184   4.686  0.00  0.00     0.153 C 
HETATM   19  C   UNK N   1      29.356  17.872   5.723  0.00  0.00     0.291 C 
HETATM   20  N   UNK N   1      28.719  17.659   7.019  0.00  0.00     0.087 N 
HETATM   21  C   UNK N   1      28.202  18.932   7.530  0.00  0.00     0.291 C 
HETATM   22  C   UNK N   1      29.743  17.211   7.945  0.00  0.00     0.310 C 
HETATM   23  C   UNK N   1      27.501  19.766   6.448  0.00  0.00     0.153 C 
ENDBRANCH   6  17
BRANCH  16  24
HETATM   24  C   UNK N   1      19.717  18.795   2.524  0.00  0.00     0.181 C 
HETATM   25  O   UNK N   1      19.003  19.710   2.901  0.00  0.00    -0.646 OA
BRANCH  24  26
HETATM   26  O   UNK N   1      19.230  17.902   1.639  0.00  0.00    -0.772 OA
HETATM   27  H   UNK N   1      18.305  17.766   1.572  0.00  0.00     0.167 HD
ENDBRANCH  24  26
ENDBRANCH  16  24
TORSDOF 3
ENDMDL
MODEL 8
REMARK VINA RESULT:      -6.5      9.754     11.004
REMARK  3 active torsions:
REMARK  status: ('A' for Active; 'I' for Inactive)
REMARK    1  A    between atoms: O_4  and  C_26 
REMARK    2  A    between atoms: N_6  and  C_12 
REMARK    3  A    between atoms: C_25  and  C_26 
ROOT
HETATM    1  F   UNK N   1      19.329  14.229   0.303  0.00  0.00    -0.204 F 
HETATM    2  O   UNK N   1      20.781  14.941   4.862  0.00  0.00    -0.344 OA
HETATM    3  O   UNK N   1      20.513  18.995   0.585  0.00  0.00    -0.286 OA
HETATM    4  N   UNK N   1      21.211  17.594   4.281  0.00  0.00    -0.346 N 
HETATM    5  C   UNK N   1      21.513  17.110   5.642  0.00  0.00     0.110 C 
HETATM    6  C   UNK N   1      20.070  14.478   2.600  0.00  0.00     0.105 A 
HETATM    7  C   UNK N   1      20.723  16.747   3.316  0.00  0.00     0.085 A 
HETATM    8  C   UNK N   1      20.524  15.380   3.609  0.00  0.00     0.126 A 
HETATM    9  C   UNK N   1      20.812  15.787   5.947  0.00  0.00     0.201 C 
HETATM   10  C   UNK N   1      20.465  17.229   2.018  0.00  0.00     0.048 A 
HETATM   11  C   UNK N   1      19.775  15.010   1.317  0.00  0.00     0.146 A 
HETATM   12  C   UNK N   1      21.496  18.894   3.976  0.00  0.00     0.114 A 
HETATM   13  C   UNK N   1      19.976  16.360   1.042  0.00  0.00     0.062 A 
HETATM   14  C   UNK N   1      21.050  18.098   6.704  0.00  0.00     0.035 C 
HETATM   15  C   UNK N   1      20.728  18.573   1.711  0.00  0.00     0.202 A 
HETATM   16  C   UNK N   1      21.262  19.419   2.701  0.00  0.00     0.104 A 
ENDROOT
BRANCH   6  17
HETATM   17  N   UNK N   1      19.917  13.064   2.868  0.00  0.00    -0.373 N 
HETATM   18  C   UNK N   1      18.653  12.524   3.347  0.00  0.00     0.153 C 
HETATM   19  C   UNK N   1      18.830  11.123   3.934  0.00  0.00     0.291 C 
HETATM   20  N   UNK N   1      20.114  11.059   4.625  0.00  0.00     0.087 N 
HETATM   21  C   UNK N   1      21.203  11.089   3.645  0.00  0.00     0.291 C 
HETATM   22  C   UNK N   1      20.184   9.779   5.305  0.00  0.00     0.310 C 
HETATM   23  C   UNK N   1      20.971  12.120   2.531  0.00  0.00     0.153 C 
ENDBRANCH   6  17
BRANCH  16  24
HETATM   24  C   UNK N   1      21.607  20.842   2.445  0.00  0.00     0.181 C 
HETATM   25  O   UNK N   1      22.631  21.330   2.894  0.00  0.00    -0.646 OA
BRANCH  24  26
HETATM   26  O   UNK N   1      20.775  21.614   1.717  0.00  0.00    -0.772 OA
HETATM   27  H   UNK N   1      20.078  21.220   1.228  0.00  0.00     0.167 HD
ENDBRANCH  24  26
ENDBRANCH  16  24
TORSDOF 3
ENDMDL
MODEL 9
REMARK VINA RESULT:      -6.5      2.440      3.700
REMARK  3 active torsions:
REMARK  status: ('A' for Active; 'I' for Inactive)
REMARK    1  A    between atoms: O_4  and  C_26 
REMARK    2  A    between atoms: N_6  and  C_12 
REMARK    3  A    between atoms: C_25  and  C_26 
ROOT
HETATM    1  F   UNK N   1      28.052  16.865   6.169  0.00  0.00    -0.204 F 
HETATM    2  O   UNK N   1      31.784  14.299   4.467  0.00  0.00    -0.344 OA
HETATM    3  O   UNK N   1      31.993  18.458   8.646  0.00  0.00    -0.286 OA
HETATM    4  N   UNK N   1      33.453  15.633   6.197  0.00  0.00    -0.346 N 
HETATM    5  C   UNK N   1      34.035  14.626   5.288  0.00  0.00     0.110 C 
HETATM    6  C   UNK N   1      29.864  15.551   5.229  0.00  0.00     0.105 A 
HETATM    7  C   UNK N   1      32.107  15.906   6.190  0.00  0.00     0.085 A 
HETATM    8  C   UNK N   1      31.255  15.237   5.284  0.00  0.00     0.126 A 
HETATM    9  C   UNK N   1      32.976  13.669   4.743  0.00  0.00     0.201 C 
HETATM   10  C   UNK N   1      31.582  16.889   7.051  0.00  0.00     0.048 A 
HETATM   11  C   UNK N   1      29.361  16.513   6.145  0.00  0.00     0.146 A 
HETATM   12  C   UNK N   1      34.296  16.344   7.001  0.00  0.00     0.114 A 
HETATM   13  C   UNK N   1      30.215  17.165   7.032  0.00  0.00     0.062 A 
HETATM   14  C   UNK N   1      35.072  13.763   5.996  0.00  0.00     0.035 C 
HETATM   15  C   UNK N   1      32.442  17.600   7.902  0.00  0.00     0.202 A 
HETATM   16  C   UNK N   1      33.824  17.333   7.870  0.00  0.00     0.104 A 
ENDROOT
BRANCH   6  17
HETATM   17  N   UNK N   1      28.987  14.917   4.268  0.00  0.00    -0.373 N 
HETATM   18  C   UNK N   1      28.076  13.854   4.669  0.00  0.00     0.153 C 
HETATM   19  C   UNK N   1      27.558  13.074   3.461  0.00  0.00     0.291 C 
HETATM   20  N   UNK N   1      28.627  12.968   2.473  0.00  0.00     0.087 N 
HETATM   21  C   UNK N   1      28.875  14.281   1.871  0.00  0.00     0.291 C 
HETATM   22  C   UNK N   1      28.163  12.092   1.414  0.00  0.00     0.310 C 
HETATM   23  C   UNK N   1      28.883  15.416   2.905  0.00  0.00     0.153 C 
ENDBRANCH   6  17
BRANCH  16  24
HETATM   24  C   UNK N   1      34.805  18.071   8.709  0.00  0.00     0.181 C 
HETATM   25  O   UNK N   1      35.197  19.181   8.385  0.00  0.00    -0.646 OA
BRANCH  24  26
HETATM   26  O   UNK N   1      35.284  17.508   9.836  0.00  0.00    -0.772 OA
HETATM   27  H   UNK N   1      34.993  16.655  10.093  0.00  0.00     0.167 HD
ENDBRANCH  24  26
ENDBRANCH  16  24
TORSDOF 3
ENDMDL
