REMARK  3 active torsions:
REMARK  status: ('A' for Active; 'I' for Inactive)
REMARK    1  A    between atoms: O_4  and  C_26 
REMARK    2  A    between atoms: N_6  and  C_12 
REMARK    3  A    between atoms: C_25  and  C_26 
ROOT
HETATM    1  F   UNK N   1       5.751   3.505  -0.339  0.00  0.00    -0.204 F 
HETATM    2  O   UNK N   1       3.150  -0.573  -0.235  0.00  0.00    -0.344 OA
HETATM    3  O   UNK N   1       9.024  -0.141   0.102  0.00  0.00    -0.286 OA
HETATM    4  N   UNK N   1       5.476  -2.016   0.023  0.00  0.00    -0.346 N 
HETATM    5  C   UNK N   1       4.194  -2.745  -0.038  0.00  0.00     0.110 C 
HETATM    6  C   UNK N   1       4.362   1.515  -0.328  0.00  0.00     0.105 A 
HETATM    7  C   UNK N   1       5.519  -0.645  -0.045  0.00  0.00     0.085 A 
HETATM    8  C   UNK N   1       4.326   0.094  -0.201  0.00  0.00     0.126 A 
HETATM    9  C   UNK N   1       3.006  -1.840   0.283  0.00  0.00     0.201 C 
HETATM   10  C   UNK N   1       6.758   0.025  -0.009  0.00  0.00     0.048 A 
HETATM   11  C   UNK N   1       5.625   2.159  -0.239  0.00  0.00     0.146 A 
HETATM   12  C   UNK N   1       6.632  -2.740   0.076  0.00  0.00     0.114 A 
HETATM   13  C   UNK N   1       6.793   1.417  -0.086  0.00  0.00     0.062 A 
HETATM   14  C   UNK N   1       4.150  -3.887   0.969  0.00  0.00     0.035 C 
HETATM   15  C   UNK N   1       7.947  -0.716   0.077  0.00  0.00     0.202 A 
HETATM   16  C   UNK N   1       7.886  -2.122   0.109  0.00  0.00     0.104 A 
ENDROOT
BRANCH   6  17
HETATM   17  N   UNK N   1       3.154   2.282  -0.546  0.00  0.00    -0.373 N 
HETATM   18  C   UNK N   1       3.165   3.736  -0.474  0.00  0.00     0.153 C 
HETATM   19  C   UNK N   1       1.751   4.300  -0.335  0.00  0.00     0.291 C 
HETATM   20  N   UNK N   1       0.963   3.400   0.501  0.00  0.00     0.087 N 
HETATM   21  C   UNK N   1       0.696   2.157  -0.228  0.00  0.00     0.291 C 
HETATM   22  C   UNK N   1      -0.318   4.036   0.747  0.00  0.00     0.310 C 
HETATM   23  C   UNK N   1       1.926   1.636  -0.985  0.00  0.00     0.153 C 
ENDBRANCH   6  17
BRANCH  16  24
HETATM   24  C   UNK N   1       9.100  -2.979   0.158  0.00  0.00     0.181 C 
HETATM   25  O   UNK N   1      10.216  -2.485   0.172  0.00  0.00    -0.646 OA
BRANCH  24  26
HETATM   26  O   UNK N   1       8.975  -4.321   0.174  0.00  0.00    -0.772 OA
HETATM   27  H   UNK N   1       8.123  -4.712   0.184  0.00  0.00     0.167 HD
ENDBRANCH  24  26
ENDBRANCH  16  24
TORSDOF 3
