MODEL 1
REMARK VINA RESULT:      -4.3      0.000      0.000
REMARK  10 active torsions:
REMARK  status: ('A' for Active; 'I' for Inactive)
REMARK    1  A    between atoms: S_1  and  P_2 
REMARK    2  A    between atoms: S_1  and  C_11 
REMARK    3  A    between atoms: P_2  and  O_3 
REMARK    4  A    between atoms: P_2  and  O_4 
REMARK    5  A    between atoms: N_6  and  C_8 
REMARK    6  A    between atoms: N_6  and  C_10 
REMARK    7  A    between atoms: N_7  and  C_12 
REMARK    8  A    between atoms: C_8  and  C_9 
REMARK    9  A    between atoms: C_9  and  C_12 
REMARK   10  A    between atoms: C_10  and  C_11 
ROOT
HETATM    1  C   UNK N   1      35.687  15.872  11.555  0.00  0.00     0.124 C 
ENDROOT
BRANCH   1   2
HETATM    2  N   UNK N   1      36.631  14.899  11.042  0.00  0.00    -0.420 N 
HETATM    3  H   UNK N   1      37.180  14.977  10.186  0.00  0.00     0.153 HD
BRANCH   2   4
HETATM    4  C   UNK N   1      36.646  13.790  11.977  0.00  0.00     0.115 C 
BRANCH   4   5
HETATM    5  C   UNK N   1      36.071  14.245  13.302  0.00  0.00     0.038 C 
BRANCH   5   6
HETATM    6  C   UNK N   1      36.058  13.084  14.274  0.00  0.00     0.112 C 
BRANCH   6   7
HETATM    7  N   UNK N   1      37.421  12.745  14.638  0.00  0.00    -0.430 N 
HETATM    8  H   UNK N   1      38.022  12.258  13.973  0.00  0.00     0.149 HD
HETATM    9  H   UNK N   1      37.779  12.994  15.560  0.00  0.00     0.149 HD
ENDBRANCH   6   7
ENDBRANCH   5   6
ENDBRANCH   4   5
ENDBRANCH   2   4
ENDBRANCH   1   2
BRANCH   1  10
HETATM   10  C   UNK N   1      35.369  16.876  10.469  0.00  0.00     0.105 C 
BRANCH  10  11
HETATM   11  S   UNK N   1      34.728  16.017   9.006  0.00  0.00    -0.050 SA
BRANCH  11  12
HETATM   12  P   UNK N   1      34.271  17.881   8.018  0.00  0.00     0.301 P 
HETATM   13  O   UNK N   1      32.811  18.321   8.317  0.00  0.00    -0.645 OA
BRANCH  12  14
HETATM   14  O   UNK N   1      34.341  17.796   6.286  0.00  0.00    -0.321 OA
HETATM   15  H   UNK N   1      35.096  17.814   5.677  0.00  0.00     0.221 HD
ENDBRANCH  12  14
BRANCH  12  16
HETATM   16  O   UNK N   1      35.261  19.211   8.530  0.00  0.00    -0.321 OA
HETATM   17  H   UNK N   1      36.087  19.578   8.880  0.00  0.00     0.221 HD
ENDBRANCH  12  16
ENDBRANCH  11  12
ENDBRANCH  10  11
ENDBRANCH   1  10
TORSDOF 10
ENDMDL
MODEL 2
REMARK VINA RESULT:      -4.3      5.203      6.583
REMARK  10 active torsions:
REMARK  status: ('A' for Active; 'I' for Inactive)
REMARK    1  A    between atoms: S_1  and  P_2 
REMARK    2  A    between atoms: S_1  and  C_11 
REMARK    3  A    between atoms: P_2  and  O_3 
REMARK    4  A    between atoms: P_2  and  O_4 
REMARK    5  A    between atoms: N_6  and  C_8 
REMARK    6  A    between atoms: N_6  and  C_10 
REMARK    7  A    between atoms: N_7  and  C_12 
REMARK    8  A    between atoms: C_8  and  C_9 
REMARK    9  A    between atoms: C_9  and  C_12 
REMARK   10  A    between atoms: C_10  and  C_11 
ROOT
HETATM    1  C   UNK N   1      33.021  17.588   7.553  0.00  0.00     0.124 C 
ENDROOT
BRANCH   1   2
HETATM    2  N   UNK N   1      32.330  17.596   8.828  0.00  0.00    -0.420 N 
HETATM    3  H   UNK N   1      32.661  18.015   9.697  0.00  0.00     0.153 HD
BRANCH   2   4
HETATM    4  C   UNK N   1      31.076  16.892   8.633  0.00  0.00     0.115 C 
BRANCH   4   5
HETATM    5  C   UNK N   1      29.987  17.891   8.304  0.00  0.00     0.038 C 
BRANCH   5   6
HETATM    6  C   UNK N   1      29.143  18.145   9.535  0.00  0.00     0.112 C 
BRANCH   6   7
HETATM    7  N   UNK N   1      27.792  18.486   9.132  0.00  0.00    -0.430 N 
HETATM    8  H   UNK N   1      27.505  18.375   8.159  0.00  0.00     0.149 HD
HETATM    9  H   UNK N   1      27.128  18.837   9.822  0.00  0.00     0.149 HD
ENDBRANCH   6   7
ENDBRANCH   5   6
ENDBRANCH   4   5
ENDBRANCH   2   4
ENDBRANCH   1   2
BRANCH   1  10
HETATM   10  C   UNK N   1      34.484  17.281   7.784  0.00  0.00     0.105 C 
BRANCH  10  11
HETATM   11  S   UNK N   1      34.683  15.531   8.217  0.00  0.00    -0.050 SA
BRANCH  11  12
HETATM   12  P   UNK N   1      35.323  16.023  10.220  0.00  0.00     0.301 P 
HETATM   13  O   UNK N   1      35.345  17.563  10.430  0.00  0.00    -0.645 OA
BRANCH  12  14
HETATM   14  O   UNK N   1      36.945  15.524  10.584  0.00  0.00    -0.321 OA
HETATM   15  H   UNK N   1      37.284  14.719  11.005  0.00  0.00     0.221 HD
ENDBRANCH  12  14
BRANCH  12  16
HETATM   16  O   UNK N   1      34.281  15.409  11.464  0.00  0.00    -0.321 OA
HETATM   17  H   UNK N   1      34.038  15.290  12.395  0.00  0.00     0.221 HD
ENDBRANCH  12  16
ENDBRANCH  11  12
ENDBRANCH  10  11
ENDBRANCH   1  10
TORSDOF 10
ENDMDL
MODEL 3
REMARK VINA RESULT:      -4.2     21.130     22.003
REMARK  10 active torsions:
REMARK  status: ('A' for Active; 'I' for Inactive)
REMARK    1  A    between atoms: S_1  and  P_2 
REMARK    2  A    between atoms: S_1  and  C_11 
REMARK    3  A    between atoms: P_2  and  O_3 
REMARK    4  A    between atoms: P_2  and  O_4 
REMARK    5  A    between atoms: N_6  and  C_8 
REMARK    6  A    between atoms: N_6  and  C_10 
REMARK    7  A    between atoms: N_7  and  C_12 
REMARK    8  A    between atoms: C_8  and  C_9 
REMARK    9  A    between atoms: C_9  and  C_12 
REMARK   10  A    between atoms: C_10  and  C_11 
ROOT
HETATM    1  C   UNK N   1      26.273  23.862  -5.471  0.00  0.00     0.124 C 
ENDROOT
BRANCH   1   2
HETATM    2  N   UNK N   1      25.136  24.762  -5.450  0.00  0.00    -0.420 N 
HETATM    3  H   UNK N   1      24.221  24.576  -5.039  0.00  0.00     0.153 HD
BRANCH   2   4
HETATM    4  C   UNK N   1      25.547  25.978  -6.127  0.00  0.00     0.115 C 
BRANCH   4   5
HETATM    5  C   UNK N   1      24.811  27.157  -5.527  0.00  0.00     0.038 C 
BRANCH   5   6
HETATM    6  C   UNK N   1      25.773  27.993  -4.710  0.00  0.00     0.112 C 
BRANCH   6   7
HETATM    7  N   UNK N   1      25.591  27.700  -3.301  0.00  0.00    -0.430 N 
HETATM    8  H   UNK N   1      25.807  28.407  -2.599  0.00  0.00     0.149 HD
HETATM    9  H   UNK N   1      25.245  26.785  -3.012  0.00  0.00     0.149 HD
ENDBRANCH   6   7
ENDBRANCH   5   6
ENDBRANCH   4   5
ENDBRANCH   2   4
ENDBRANCH   1   2
BRANCH   1  10
HETATM   10  C   UNK N   1      26.956  23.956  -6.818  0.00  0.00     0.105 C 
BRANCH  10  11
HETATM   11  S   UNK N   1      27.286  22.291  -7.456  0.00  0.00    -0.050 SA
BRANCH  11  12
HETATM   12  P   UNK N   1      25.242  22.057  -8.114  0.00  0.00     0.301 P 
HETATM   13  O   UNK N   1      24.626  23.431  -8.498  0.00  0.00    -0.645 OA
BRANCH  12  14
HETATM   14  O   UNK N   1      24.175  21.442  -6.893  0.00  0.00    -0.321 OA
HETATM   15  H   UNK N   1      23.859  20.541  -6.718  0.00  0.00     0.221 HD
ENDBRANCH  12  14
BRANCH  12  16
HETATM   16  O   UNK N   1      25.066  21.068  -9.529  0.00  0.00    -0.321 OA
HETATM   17  H   UNK N   1      25.420  20.644 -10.326  0.00  0.00     0.221 HD
ENDBRANCH  12  16
ENDBRANCH  11  12
ENDBRANCH  10  11
ENDBRANCH   1  10
TORSDOF 10
ENDMDL
MODEL 4
REMARK VINA RESULT:      -4.1      4.611      5.685
REMARK  10 active torsions:
REMARK  status: ('A' for Active; 'I' for Inactive)
REMARK    1  A    between atoms: S_1  and  P_2 
REMARK    2  A    between atoms: S_1  and  C_11 
REMARK    3  A    between atoms: P_2  and  O_3 
REMARK    4  A    between atoms: P_2  and  O_4 
REMARK    5  A    between atoms: N_6  and  C_8 
REMARK    6  A    between atoms: N_6  and  C_10 
REMARK    7  A    between atoms: N_7  and  C_12 
REMARK    8  A    between atoms: C_8  and  C_9 
REMARK    9  A    between atoms: C_9  and  C_12 
REMARK   10  A    between atoms: C_10  and  C_11 
ROOT
HETATM    1  C   UNK N   1      31.526  15.987   7.835  0.00  0.00     0.124 C 
ENDROOT
BRANCH   1   2
HETATM    2  N   UNK N   1      31.966  16.009   9.216  0.00  0.00    -0.420 N 
HETATM    3  H   UNK N   1      31.779  16.742   9.901  0.00  0.00     0.153 HD
BRANCH   2   4
HETATM    4  C   UNK N   1      32.723  14.792   9.439  0.00  0.00     0.115 C 
BRANCH   4   5
HETATM    5  C   UNK N   1      33.951  15.111  10.266  0.00  0.00     0.038 C 
BRANCH   5   6
HETATM    6  C   UNK N   1      34.645  16.328   9.693  0.00  0.00     0.112 C 
BRANCH   6   7
HETATM    7  N   UNK N   1      35.147  17.152  10.777  0.00  0.00    -0.430 N 
HETATM    8  H   UNK N   1      34.526  17.434  11.535  0.00  0.00     0.149 HD
HETATM    9  H   UNK N   1      36.123  17.448  10.781  0.00  0.00     0.149 HD
ENDBRANCH   6   7
ENDBRANCH   5   6
ENDBRANCH   4   5
ENDBRANCH   2   4
ENDBRANCH   1   2
BRANCH   1  10
HETATM   10  C   UNK N   1      30.896  17.319   7.492  0.00  0.00     0.105 C 
BRANCH  10  11
HETATM   11  S   UNK N   1      29.158  17.076   7.036  0.00  0.00    -0.050 SA
BRANCH  11  12
HETATM   12  P   UNK N   1      28.474  17.881   8.920  0.00  0.00     0.301 P 
HETATM   13  O   UNK N   1      27.628  16.833   9.693  0.00  0.00    -0.645 OA
BRANCH  12  14
HETATM   14  O   UNK N   1      27.413  19.245   8.759  0.00  0.00    -0.321 OA
HETATM   15  H   UNK N   1      26.455  19.293   8.612  0.00  0.00     0.221 HD
ENDBRANCH  12  14
BRANCH  12  16
HETATM   16  O   UNK N   1      29.754  18.323  10.004  0.00  0.00    -0.321 OA
HETATM   17  H   UNK N   1      30.661  18.615  10.183  0.00  0.00     0.221 HD
ENDBRANCH  12  16
ENDBRANCH  11  12
ENDBRANCH  10  11
ENDBRANCH   1  10
TORSDOF 10
ENDMDL
MODEL 5
REMARK VINA RESULT:      -4.1      1.606      2.204
REMARK  10 active torsions:
REMARK  status: ('A' for Active; 'I' for Inactive)
REMARK    1  A    between atoms: S_1  and  P_2 
REMARK    2  A    between atoms: S_1  and  C_11 
REMARK    3  A    between atoms: P_2  and  O_3 
REMARK    4  A    between atoms: P_2  and  O_4 
REMARK    5  A    between atoms: N_6  and  C_8 
REMARK    6  A    between atoms: N_6  and  C_10 
REMARK    7  A    between atoms: N_7  and  C_12 
REMARK    8  A    between atoms: C_8  and  C_9 
REMARK    9  A    between atoms: C_9  and  C_12 
REMARK   10  A    between atoms: C_10  and  C_11 
ROOT
HETATM    1  C   UNK N   1      35.965  15.852  11.297  0.00  0.00     0.124 C 
ENDROOT
BRANCH   1   2
HETATM    2  N   UNK N   1      36.939  15.101  10.530  0.00  0.00    -0.420 N 
HETATM    3  H   UNK N   1      37.480  15.442   9.735  0.00  0.00     0.153 HD
BRANCH   2   4
HETATM    4  C   UNK N   1      36.998  13.771  11.106  0.00  0.00     0.115 C 
BRANCH   4   5
HETATM    5  C   UNK N   1      35.879  13.612  12.114  0.00  0.00     0.038 C 
BRANCH   5   6
HETATM    6  C   UNK N   1      35.101  12.349  11.812  0.00  0.00     0.112 C 
BRANCH   6   7
HETATM    7  N   UNK N   1      34.234  12.577  10.671  0.00  0.00    -0.430 N 
HETATM    8  H   UNK N   1      34.075  13.526  10.332  0.00  0.00     0.149 HD
HETATM    9  H   UNK N   1      33.785  11.788  10.207  0.00  0.00     0.149 HD
ENDBRANCH   6   7
ENDBRANCH   5   6
ENDBRANCH   4   5
ENDBRANCH   2   4
ENDBRANCH   1   2
BRANCH   1  10
HETATM   10  C   UNK N   1      35.256  16.827  10.383  0.00  0.00     0.105 C 
BRANCH  10  11
HETATM   11  S   UNK N   1      34.770  15.988   8.850  0.00  0.00    -0.050 SA
BRANCH  11  12
HETATM   12  P   UNK N   1      34.147  17.846   7.943  0.00  0.00     0.301 P 
HETATM   13  O   UNK N   1      35.040  19.022   8.427  0.00  0.00    -0.645 OA
BRANCH  12  14
HETATM   14  O   UNK N   1      32.538  18.334   8.370  0.00  0.00    -0.321 OA
HETATM   15  H   UNK N   1      31.762  18.522   7.820  0.00  0.00     0.221 HD
ENDBRANCH  12  14
BRANCH  12  16
HETATM   16  O   UNK N   1      34.271  17.862   6.213  0.00  0.00    -0.321 OA
HETATM   17  H   UNK N   1      34.632  18.213   5.383  0.00  0.00     0.221 HD
ENDBRANCH  12  16
ENDBRANCH  11  12
ENDBRANCH  10  11
ENDBRANCH   1  10
TORSDOF 10
ENDMDL
MODEL 6
REMARK VINA RESULT:      -4.0     13.071     14.003
REMARK  10 active torsions:
REMARK  status: ('A' for Active; 'I' for Inactive)
REMARK    1  A    between atoms: S_1  and  P_2 
REMARK    2  A    between atoms: S_1  and  C_11 
REMARK    3  A    between atoms: P_2  and  O_3 
REMARK    4  A    between atoms: P_2  and  O_4 
REMARK    5  A    between atoms: N_6  and  C_8 
REMARK    6  A    between atoms: N_6  and  C_10 
REMARK    7  A    between atoms: N_7  and  C_12 
REMARK    8  A    between atoms: C_8  and  C_9 
REMARK    9  A    between atoms: C_9  and  C_12 
REMARK   10  A    between atoms: C_10  and  C_11 
ROOT
HETATM    1  C   UNK N   1      25.155  18.680   4.024  0.00  0.00     0.124 C 
ENDROOT
BRANCH   1   2
HETATM    2  N   UNK N   1      25.626  18.964   5.365  0.00  0.00    -0.420 N 
HETATM    3  H   UNK N   1      25.124  18.790   6.235  0.00  0.00     0.153 HD
BRANCH   2   4
HETATM    4  C   UNK N   1      26.949  19.545   5.235  0.00  0.00     0.115 C 
BRANCH   4   5
HETATM    5  C   UNK N   1      27.344  20.190   6.547  0.00  0.00     0.038 C 
BRANCH   5   6
HETATM    6  C   UNK N   1      26.426  21.360   6.833  0.00  0.00     0.112 C 
BRANCH   6   7
HETATM    7  N   UNK N   1      25.827  21.192   8.144  0.00  0.00    -0.430 N 
HETATM    8  H   UNK N   1      26.053  20.374   8.709  0.00  0.00     0.149 HD
HETATM    9  H   UNK N   1      25.179  21.895   8.501  0.00  0.00     0.149 HD
ENDBRANCH   6   7
ENDBRANCH   5   6
ENDBRANCH   4   5
ENDBRANCH   2   4
ENDBRANCH   1   2
BRANCH   1  10
HETATM   10  C   UNK N   1      23.950  19.545   3.727  0.00  0.00     0.105 C 
BRANCH  10  11
HETATM   11  S   UNK N   1      22.433  18.569   3.911  0.00  0.00    -0.050 SA
BRANCH  11  12
HETATM   12  P   UNK N   1      21.278  20.017   2.800  0.00  0.00     0.301 P 
HETATM   13  O   UNK N   1      22.209  21.044   2.099  0.00  0.00    -0.645 OA
BRANCH  12  14
HETATM   14  O   UNK N   1      20.237  20.994   3.786  0.00  0.00    -0.321 OA
HETATM   15  H   UNK N   1      19.582  20.749   4.458  0.00  0.00     0.221 HD
ENDBRANCH  12  14
BRANCH  12  16
HETATM   16  O   UNK N   1      20.320  19.328   1.528  0.00  0.00    -0.321 OA
HETATM   17  H   UNK N   1      20.157  18.656   0.847  0.00  0.00     0.221 HD
ENDBRANCH  12  16
ENDBRANCH  11  12
ENDBRANCH  10  11
ENDBRANCH   1  10
TORSDOF 10
ENDMDL
MODEL 7
REMARK VINA RESULT:      -4.0      2.506      3.059
REMARK  10 active torsions:
REMARK  status: ('A' for Active; 'I' for Inactive)
REMARK    1  A    between atoms: S_1  and  P_2 
REMARK    2  A    between atoms: S_1  and  C_11 
REMARK    3  A    between atoms: P_2  and  O_3 
REMARK    4  A    between atoms: P_2  and  O_4 
REMARK    5  A    between atoms: N_6  and  C_8 
REMARK    6  A    between atoms: N_6  and  C_10 
REMARK    7  A    between atoms: N_7  and  C_12 
REMARK    8  A    between atoms: C_8  and  C_9 
REMARK    9  A    between atoms: C_9  and  C_12 
REMARK   10  A    between atoms: C_10  and  C_11 
ROOT
HETATM    1  C   UNK N   1      36.950  13.028  10.561  0.00  0.00     0.124 C 
ENDROOT
BRANCH   1   2
HETATM    2  N   UNK N   1      37.406  13.404  11.884  0.00  0.00    -0.420 N 
HETATM    3  H   UNK N   1      38.275  13.887  12.114  0.00  0.00     0.153 HD
BRANCH   2   4
HETATM    4  C   UNK N   1      36.391  12.963  12.823  0.00  0.00     0.115 C 
BRANCH   4   5
HETATM    5  C   UNK N   1      37.062  12.331  14.024  0.00  0.00     0.038 C 
BRANCH   5   6
HETATM    6  C   UNK N   1      36.646  13.065  15.281  0.00  0.00     0.112 C 
BRANCH   6   7
HETATM    7  N   UNK N   1      37.252  14.383  15.293  0.00  0.00    -0.430 N 
HETATM    8  H   UNK N   1      36.672  15.214  15.179  0.00  0.00     0.149 HD
HETATM    9  H   UNK N   1      38.260  14.478  15.416  0.00  0.00     0.149 HD
ENDBRANCH   6   7
ENDBRANCH   5   6
ENDBRANCH   4   5
ENDBRANCH   2   4
ENDBRANCH   1   2
BRANCH   1  10
HETATM   10  C   UNK N   1      37.107  14.209   9.627  0.00  0.00     0.105 C 
BRANCH  10  11
HETATM   11  S   UNK N   1      35.563  14.479   8.715  0.00  0.00    -0.050 SA
BRANCH  11  12
HETATM   12  P   UNK N   1      34.774  15.744  10.277  0.00  0.00     0.301 P 
HETATM   13  O   UNK N   1      35.897  16.169  11.262  0.00  0.00    -0.645 OA
BRANCH  12  14
HETATM   14  O   UNK N   1      33.597  14.966  11.287  0.00  0.00    -0.321 OA
HETATM   15  H   UNK N   1      33.190  14.087  11.230  0.00  0.00     0.221 HD
ENDBRANCH  12  14
BRANCH  12  16
HETATM   16  O   UNK N   1      34.087  17.230   9.701  0.00  0.00    -0.321 OA
HETATM   17  H   UNK N   1      34.162  18.102   9.282  0.00  0.00     0.221 HD
ENDBRANCH  12  16
ENDBRANCH  11  12
ENDBRANCH  10  11
ENDBRANCH   1  10
TORSDOF 10
ENDMDL
MODEL 8
REMARK VINA RESULT:      -3.9      5.868      7.518
REMARK  10 active torsions:
REMARK  status: ('A' for Active; 'I' for Inactive)
REMARK    1  A    between atoms: S_1  and  P_2 
REMARK    2  A    between atoms: S_1  and  C_11 
REMARK    3  A    between atoms: P_2  and  O_3 
REMARK    4  A    between atoms: P_2  and  O_4 
REMARK    5  A    between atoms: N_6  and  C_8 
REMARK    6  A    between atoms: N_6  and  C_10 
REMARK    7  A    between atoms: N_7  and  C_12 
REMARK    8  A    between atoms: C_8  and  C_9 
REMARK    9  A    between atoms: C_9  and  C_12 
REMARK   10  A    between atoms: C_10  and  C_11 
ROOT
HETATM    1  C   UNK N   1      31.395  16.856   8.319  0.00  0.00     0.124 C 
ENDROOT
BRANCH   1   2
HETATM    2  N   UNK N   1      30.804  17.502   9.475  0.00  0.00    -0.420 N 
HETATM    3  H   UNK N   1      30.886  17.203  10.446  0.00  0.00     0.153 HD
BRANCH   2   4
HETATM    4  C   UNK N   1      30.072  18.655   8.987  0.00  0.00     0.115 C 
BRANCH   4   5
HETATM    5  C   UNK N   1      28.656  18.241   8.644  0.00  0.00     0.038 C 
BRANCH   5   6
HETATM    6  C   UNK N   1      28.145  19.086   7.497  0.00  0.00     0.112 C 
BRANCH   6   7
HETATM    7  N   UNK N   1      27.056  19.924   7.963  0.00  0.00    -0.430 N 
HETATM    8  H   UNK N   1      26.321  20.214   7.319  0.00  0.00     0.149 HD
HETATM    9  H   UNK N   1      27.025  20.223   8.938  0.00  0.00     0.149 HD
ENDBRANCH   6   7
ENDBRANCH   5   6
ENDBRANCH   4   5
ENDBRANCH   2   4
ENDBRANCH   1   2
BRANCH   1  10
HETATM   10  C   UNK N   1      32.866  17.204   8.253  0.00  0.00     0.105 C 
BRANCH  10  11
HETATM   11  S   UNK N   1      33.842  15.700   7.983  0.00  0.00    -0.050 SA
BRANCH  11  12
HETATM   12  P   UNK N   1      34.474  15.649  10.047  0.00  0.00     0.301 P 
HETATM   13  O   UNK N   1      35.725  14.744  10.218  0.00  0.00    -0.645 OA
BRANCH  12  14
HETATM   14  O   UNK N   1      33.302  14.958  11.125  0.00  0.00    -0.321 OA
HETATM   15  H   UNK N   1      32.366  15.167  11.267  0.00  0.00     0.221 HD
ENDBRANCH  12  14
BRANCH  12  16
HETATM   16  O   UNK N   1      34.939  17.195  10.680  0.00  0.00    -0.321 OA
HETATM   17  H   UNK N   1      35.607  17.830  10.983  0.00  0.00     0.221 HD
ENDBRANCH  12  16
ENDBRANCH  11  12
ENDBRANCH  10  11
ENDBRANCH   1  10
TORSDOF 10
ENDMDL
MODEL 9
REMARK VINA RESULT:      -3.9      6.611      8.458
REMARK  10 active torsions:
REMARK  status: ('A' for Active; 'I' for Inactive)
REMARK    1  A    between atoms: S_1  and  P_2 
REMARK    2  A    between atoms: S_1  and  C_11 
REMARK    3  A    between atoms: P_2  and  O_3 
REMARK    4  A    between atoms: P_2  and  O_4 
REMARK    5  A    between atoms: N_6  and  C_8 
REMARK    6  A    between atoms: N_6  and  C_10 
REMARK    7  A    between atoms: N_7  and  C_12 
REMARK    8  A    between atoms: C_8  and  C_9 
REMARK    9  A    between atoms: C_9  and  C_12 
REMARK   10  A    between atoms: C_10  and  C_11 
ROOT
HETATM    1  C   UNK N   1      30.433  16.563   6.663  0.00  0.00     0.124 C 
ENDROOT
BRANCH   1   2
HETATM    2  N   UNK N   1      29.552  17.568   7.224  0.00  0.00    -0.420 N 
HETATM    3  H   UNK N   1      29.526  17.880   8.195  0.00  0.00     0.153 HD
BRANCH   2   4
HETATM    4  C   UNK N   1      28.712  18.046   6.142  0.00  0.00     0.115 C 
BRANCH   4   5
HETATM    5  C   UNK N   1      27.905  19.234   6.623  0.00  0.00     0.038 C 
BRANCH   5   6
HETATM    6  C   UNK N   1      27.703  20.205   5.479  0.00  0.00     0.112 C 
BRANCH   6   7
HETATM    7  N   UNK N   1      28.311  19.666   4.276  0.00  0.00    -0.430 N 
HETATM    8  H   UNK N   1      28.156  18.692   4.016  0.00  0.00     0.149 HD
HETATM    9  H   UNK N   1      28.894  20.263   3.690  0.00  0.00     0.149 HD
ENDBRANCH   6   7
ENDBRANCH   5   6
ENDBRANCH   4   5
ENDBRANCH   2   4
ENDBRANCH   1   2
BRANCH   1  10
HETATM   10  C   UNK N   1      31.629  16.386   7.573  0.00  0.00     0.105 C 
BRANCH  10  11
HETATM   11  S   UNK N   1      32.015  17.958   8.392  0.00  0.00    -0.050 SA
BRANCH  11  12
HETATM   12  P   UNK N   1      34.097  17.821   7.837  0.00  0.00     0.301 P 
HETATM   13  O   UNK N   1      34.258  17.826   6.291  0.00  0.00    -0.645 OA
BRANCH  12  14
HETATM   14  O   UNK N   1      34.864  16.347   8.336  0.00  0.00    -0.321 OA
HETATM   15  H   UNK N   1      35.389  16.137   9.125  0.00  0.00     0.221 HD
ENDBRANCH  12  14
BRANCH  12  16
HETATM   16  O   UNK N   1      35.065  19.146   8.399  0.00  0.00    -0.321 OA
HETATM   17  H   UNK N   1      35.879  19.511   8.780  0.00  0.00     0.221 HD
ENDBRANCH  12  16
ENDBRANCH  11  12
ENDBRANCH  10  11
ENDBRANCH   1  10
TORSDOF 10
ENDMDL
