MODEL 1
REMARK VINA RESULT:      -7.4      0.000      0.000
REMARK  7 active torsions:
REMARK  status: ('A' for Active; 'I' for Inactive)
REMARK    1  A    between atoms: O_1  and  C_23 
REMARK    2  A    between atoms: O_2  and  C_24 
REMARK    3  A    between atoms: O_3  and  C_25 
REMARK    4  A    between atoms: N_4  and  C_13 
REMARK    5  A    between atoms: N_4  and  C_19 
REMARK    6  A    between atoms: N_9  and  C_20 
REMARK       I    between atoms: N_10  and  C_26 
REMARK    7  A    between atoms: C_11  and  C_13 
ROOT
HETATM    1  N   UNK N   1      20.646  13.629  10.180  0.00  0.00    -0.191 N 
ATOM      2  HN  UNK N   1      19.784  14.005  10.577  1.00  0.00     0.184 HD
HETATM    3  N   UNK N   1      22.360  12.021  10.227  0.00  0.00    -0.176 N 
ATOM      4  HN  UNK N   1      22.775  11.196  10.660  1.00  0.00     0.186 HD
HETATM    5  N   UNK N   1      20.591  11.899  11.833  0.00  0.00    -0.234 N 
HETATM    6  C   UNK N   1      22.285  15.489   6.844  0.00  0.00    -0.034 A 
HETATM    7  C   UNK N   1      22.949  14.375   7.396  0.00  0.00    -0.038 A 
HETATM    8  C   UNK N   1      22.405  13.732   8.544  0.00  0.00     0.042 A 
HETATM    9  C   UNK N   1      21.208  14.240   9.109  0.00  0.00     0.063 A 
HETATM   10  C   UNK N   1      21.117  15.978   7.430  0.00  0.00     0.011 A 
HETATM   11  C   UNK N   1      20.586  15.361   8.559  0.00  0.00     0.031 A 
HETATM   12  C   UNK N   1      24.194  13.878   6.720  0.00  0.00     0.050 C 
HETATM   13  C   UNK N   1      22.975  12.586   9.158  0.00  0.00     0.127 A 
HETATM   14  C   UNK N   1      21.207  12.526  10.736  0.00  0.00     0.677 A 
HETATM   15  H   UNK N   1      19.756  12.256  12.213  0.00  0.00     0.174 HD
HETATM   16  H   UNK N   1      21.000  11.094  12.227  0.00  0.00     0.174 HD
ENDROOT
BRANCH   6  17
HETATM   17  C   UNK N   1      22.752  16.071   5.552  0.00  0.00     0.159 C 
BRANCH  17  18
HETATM   18  N   UNK N   1      23.392  17.356   5.664  0.00  0.00    -0.386 N 
HETATM   19  H   UNK N   1      24.114  17.505   6.316  0.00  0.00     0.160 HD
BRANCH  18  20
HETATM   20  C   UNK N   1      22.956  18.396   4.812  0.00  0.00     0.033 A 
HETATM   21  C   UNK N   1      21.597  18.543   4.561  0.00  0.00     0.069 A 
HETATM   22  C   UNK N   1      21.135  19.432   3.574  0.00  0.00     0.106 A 
HETATM   23  C   UNK N   1      22.075  20.206   2.837  0.00  0.00     0.135 A 
HETATM   24  C   UNK N   1      23.447  20.078   3.120  0.00  0.00     0.106 A 
HETATM   25  C   UNK N   1      23.878  19.159   4.089  0.00  0.00     0.069 A 
BRANCH  22  26
HETATM   26  O   UNK N   1      19.807  19.531   3.317  0.00  0.00    -0.353 OA
HETATM   27  C   UNK N   1      19.091  18.574   2.634  0.00  0.00     0.210 C 
ENDBRANCH  22  26
BRANCH  23  28
HETATM   28  O   UNK N   1      21.713  21.068   1.848  0.00  0.00    -0.351 OA
HETATM   29  C   UNK N   1      21.096  20.723   0.667  0.00  0.00     0.210 C 
ENDBRANCH  23  28
BRANCH  24  30
HETATM   30  O   UNK N   1      24.337  20.832   2.427  0.00  0.00    -0.353 OA
HETATM   31  C   UNK N   1      25.702  20.725   2.581  0.00  0.00     0.210 C 
ENDBRANCH  24  30
ENDBRANCH  18  20
ENDBRANCH  17  18
ENDBRANCH   6  17
BRANCH  13  32
HETATM   32  N   UNK N   1      24.167  12.001   8.682  0.00  0.00    -0.384 N 
HETATM   33  H   UNK N   1      24.383  11.062   8.886  0.00  0.00     0.157 HD
HETATM   34  H   UNK N   1      24.790  12.537   8.140  0.00  0.00     0.157 HD
ENDBRANCH  13  32
TORSDOF 7
ENDMDL
MODEL 2
REMARK VINA RESULT:      -7.1      7.985     10.721
REMARK  7 active torsions:
REMARK  status: ('A' for Active; 'I' for Inactive)
REMARK    1  A    between atoms: O_1  and  C_23 
REMARK    2  A    between atoms: O_2  and  C_24 
REMARK    3  A    between atoms: O_3  and  C_25 
REMARK    4  A    between atoms: N_4  and  C_13 
REMARK    5  A    between atoms: N_4  and  C_19 
REMARK    6  A    between atoms: N_9  and  C_20 
REMARK       I    between atoms: N_10  and  C_26 
REMARK    7  A    between atoms: C_11  and  C_13 
ROOT
HETATM    1  N   UNK N   1      26.454  20.345   6.298  0.00  0.00    -0.191 N 
ATOM      2  HN  UNK N   1      25.841  20.923   5.722  1.00  0.00     0.184 HD
HETATM    3  N   UNK N   1      27.256  19.744   8.424  0.00  0.00    -0.176 N 
ATOM      4  HN  UNK N   1      27.238  19.874   9.436  1.00  0.00     0.186 HD
HETATM    5  N   UNK N   1      25.566  21.427   8.239  0.00  0.00    -0.234 N 
HETATM    6  C   UNK N   1      28.876  17.529   4.430  0.00  0.00    -0.034 A 
HETATM    7  C   UNK N   1      28.945  17.663   5.832  0.00  0.00    -0.038 A 
HETATM    8  C   UNK N   1      28.129  18.629   6.486  0.00  0.00     0.042 A 
HETATM    9  C   UNK N   1      27.270  19.441   5.702  0.00  0.00     0.063 A 
HETATM   10  C   UNK N   1      28.033  18.352   3.682  0.00  0.00     0.011 A 
HETATM   11  C   UNK N   1      27.241  19.307   4.314  0.00  0.00     0.031 A 
HETATM   12  C   UNK N   1      29.855  16.744   6.593  0.00  0.00     0.050 C 
HETATM   13  C   UNK N   1      28.098  18.824   7.892  0.00  0.00     0.127 A 
HETATM   14  C   UNK N   1      26.438  20.497   7.646  0.00  0.00     0.677 A 
HETATM   15  H   UNK N   1      24.968  21.980   7.686  0.00  0.00     0.174 HD
HETATM   16  H   UNK N   1      25.553  21.526   9.219  0.00  0.00     0.174 HD
ENDROOT
BRANCH   6  17
HETATM   17  C   UNK N   1      29.601  16.417   3.750  0.00  0.00     0.159 C 
BRANCH  17  18
HETATM   18  N   UNK N   1      30.794  16.814   3.048  0.00  0.00    -0.386 N 
HETATM   19  H   UNK N   1      30.740  17.255   2.170  0.00  0.00     0.160 HD
BRANCH  18  20
HETATM   20  C   UNK N   1      32.044  16.555   3.655  0.00  0.00     0.033 A 
HETATM   21  C   UNK N   1      32.676  15.340   3.414  0.00  0.00     0.069 A 
HETATM   22  C   UNK N   1      33.816  14.960   4.145  0.00  0.00     0.106 A 
HETATM   23  C   UNK N   1      34.339  15.844   5.131  0.00  0.00     0.135 A 
HETATM   24  C   UNK N   1      33.716  17.086   5.344  0.00  0.00     0.106 A 
HETATM   25  C   UNK N   1      32.561  17.422   4.622  0.00  0.00     0.069 A 
BRANCH  22  26
HETATM   26  O   UNK N   1      34.394  13.754   3.923  0.00  0.00    -0.353 OA
HETATM   27  C   UNK N   1      34.811  13.327   2.682  0.00  0.00     0.210 C 
ENDBRANCH  22  26
BRANCH  23  28
HETATM   28  O   UNK N   1      35.422  15.541   5.898  0.00  0.00    -0.351 OA
HETATM   29  C   UNK N   1      35.417  14.728   7.010  0.00  0.00     0.210 C 
ENDBRANCH  23  28
BRANCH  24  30
HETATM   30  O   UNK N   1      34.231  17.933   6.272  0.00  0.00    -0.353 OA
HETATM   31  C   UNK N   1      33.743  18.037   7.555  0.00  0.00     0.210 C 
ENDBRANCH  24  30
ENDBRANCH  18  20
ENDBRANCH  17  18
ENDBRANCH   6  17
BRANCH  13  32
HETATM   32  N   UNK N   1      28.915  18.075   8.765  0.00  0.00    -0.384 N 
HETATM   33  H   UNK N   1      28.905  17.090   8.741  0.00  0.00     0.157 HD
HETATM   34  H   UNK N   1      29.501  18.541   9.403  0.00  0.00     0.157 HD
ENDBRANCH  13  32
TORSDOF 7
ENDMDL
MODEL 3
REMARK VINA RESULT:      -7.0     10.777     13.799
REMARK  7 active torsions:
REMARK  status: ('A' for Active; 'I' for Inactive)
REMARK    1  A    between atoms: O_1  and  C_23 
REMARK    2  A    between atoms: O_2  and  C_24 
REMARK    3  A    between atoms: O_3  and  C_25 
REMARK    4  A    between atoms: N_4  and  C_13 
REMARK    5  A    between atoms: N_4  and  C_19 
REMARK    6  A    between atoms: N_9  and  C_20 
REMARK       I    between atoms: N_10  and  C_26 
REMARK    7  A    between atoms: C_11  and  C_13 
ROOT
HETATM    1  N   UNK N   1      28.877  17.486   6.093  0.00  0.00    -0.191 N 
ATOM      2  HN  UNK N   1      28.074  17.574   6.717  1.00  0.00     0.184 HD
HETATM    3  N   UNK N   1      29.730  17.284   3.912  0.00  0.00    -0.176 N 
ATOM      4  HN  UNK N   1      29.562  17.224   2.908  1.00  0.00     0.186 HD
HETATM    5  N   UNK N   1      27.369  17.484   4.235  0.00  0.00    -0.234 N 
HETATM    6  C   UNK N   1      32.691  17.440   7.745  0.00  0.00    -0.034 A 
HETATM    7  C   UNK N   1      32.554  17.315   6.348  0.00  0.00    -0.038 A 
HETATM    8  C   UNK N   1      31.253  17.319   5.767  0.00  0.00     0.042 A 
HETATM    9  C   UNK N   1      30.126  17.442   6.618  0.00  0.00     0.063 A 
HETATM   10  C   UNK N   1      31.563  17.543   8.560  0.00  0.00     0.011 A 
HETATM   11  C   UNK N   1      30.288  17.536   8.000  0.00  0.00     0.031 A 
HETATM   12  C   UNK N   1      33.798  17.222   5.513  0.00  0.00     0.050 C 
HETATM   13  C   UNK N   1      31.005  17.232   4.372  0.00  0.00     0.127 A 
HETATM   14  C   UNK N   1      28.673  17.414   4.754  0.00  0.00     0.677 A 
HETATM   15  H   UNK N   1      26.593  17.576   4.834  0.00  0.00     0.174 HD
HETATM   16  H   UNK N   1      27.228  17.439   3.261  0.00  0.00     0.174 HD
ENDROOT
BRANCH   6  17
HETATM   17  C   UNK N   1      34.045  17.598   8.350  0.00  0.00     0.159 C 
BRANCH  17  18
HETATM   18  N   UNK N   1      34.159  17.130   9.707  0.00  0.00    -0.386 N 
HETATM   19  H   UNK N   1      33.945  17.720  10.465  0.00  0.00     0.160 HD
BRANCH  18  20
HETATM   20  C   UNK N   1      34.586  15.799   9.920  0.00  0.00     0.033 A 
HETATM   21  C   UNK N   1      34.386  15.214  11.165  0.00  0.00     0.069 A 
HETATM   22  C   UNK N   1      34.965  13.972  11.483  0.00  0.00     0.106 A 
HETATM   23  C   UNK N   1      35.751  13.299  10.506  0.00  0.00     0.135 A 
HETATM   24  C   UNK N   1      35.921  13.880   9.237  0.00  0.00     0.106 A 
HETATM   25  C   UNK N   1      35.357  15.135   8.961  0.00  0.00     0.069 A 
BRANCH  22  26
HETATM   26  O   UNK N   1      34.790  13.437  12.717  0.00  0.00    -0.353 OA
HETATM   27  C   UNK N   1      35.610  13.713  13.788  0.00  0.00     0.210 C 
ENDBRANCH  22  26
BRANCH  23  28
HETATM   28  O   UNK N   1      36.367  12.108  10.742  0.00  0.00    -0.351 OA
HETATM   29  C   UNK N   1      37.617  11.946  11.296  0.00  0.00     0.210 C 
ENDBRANCH  23  28
BRANCH  24  30
HETATM   30  O   UNK N   1      36.655  13.224   8.302  0.00  0.00    -0.353 OA
HETATM   31  C   UNK N   1      37.933  13.593   7.948  0.00  0.00     0.210 C 
ENDBRANCH  24  30
ENDBRANCH  18  20
ENDBRANCH  17  18
ENDBRANCH   6  17
BRANCH  13  32
HETATM   32  N   UNK N   1      32.053  17.102   3.436  0.00  0.00    -0.384 N 
HETATM   33  H   UNK N   1      32.367  17.881   2.923  0.00  0.00     0.157 HD
HETATM   34  H   UNK N   1      32.474  16.223   3.295  0.00  0.00     0.157 HD
ENDBRANCH  13  32
TORSDOF 7
ENDMDL
MODEL 4
REMARK VINA RESULT:      -6.9      4.757      6.426
REMARK  7 active torsions:
REMARK  status: ('A' for Active; 'I' for Inactive)
REMARK    1  A    between atoms: O_1  and  C_23 
REMARK    2  A    between atoms: O_2  and  C_24 
REMARK    3  A    between atoms: O_3  and  C_25 
REMARK    4  A    between atoms: N_4  and  C_13 
REMARK    5  A    between atoms: N_4  and  C_19 
REMARK    6  A    between atoms: N_9  and  C_20 
REMARK       I    between atoms: N_10  and  C_26 
REMARK    7  A    between atoms: C_11  and  C_13 
ROOT
HETATM    1  N   UNK N   1      28.525  19.143   8.682  0.00  0.00    -0.191 N 
ATOM      2  HN  UNK N   1      28.268  19.848   9.374  1.00  0.00     0.184 HD
HETATM    3  N   UNK N   1      29.629  17.136   8.154  0.00  0.00    -0.176 N 
ATOM      4  HN  UNK N   1      30.195  16.343   8.455  1.00  0.00     0.186 HD
HETATM    5  N   UNK N   1      29.661  17.936  10.408  0.00  0.00    -0.234 N 
HETATM    6  C   UNK N   1      27.179  19.598   4.775  0.00  0.00    -0.034 A 
HETATM    7  C   UNK N   1      27.987  18.487   5.091  0.00  0.00    -0.038 A 
HETATM    8  C   UNK N   1      28.464  18.322   6.423  0.00  0.00     0.042 A 
HETATM    9  C   UNK N   1      28.117  19.291   7.398  0.00  0.00     0.063 A 
HETATM   10  C   UNK N   1      26.866  20.545   5.752  0.00  0.00     0.011 A 
HETATM   11  C   UNK N   1      27.339  20.396   7.053  0.00  0.00     0.031 A 
HETATM   12  C   UNK N   1      28.283  17.489   4.010  0.00  0.00     0.050 C 
HETATM   13  C   UNK N   1      29.256  17.225   6.853  0.00  0.00     0.127 A 
HETATM   14  C   UNK N   1      29.269  18.076   9.065  0.00  0.00     0.677 A 
HETATM   15  H   UNK N   1      29.408  18.611  11.079  0.00  0.00     0.174 HD
HETATM   16  H   UNK N   1      30.194  17.154  10.682  0.00  0.00     0.174 HD
ENDROOT
BRANCH   6  17
HETATM   17  C   UNK N   1      26.541  19.699   3.431  0.00  0.00     0.159 C 
BRANCH  17  18
HETATM   18  N   UNK N   1      25.397  20.570   3.368  0.00  0.00    -0.386 N 
HETATM   19  H   UNK N   1      25.507  21.542   3.263  0.00  0.00     0.160 HD
BRANCH  18  20
HETATM   20  C   UNK N   1      24.111  19.991   3.462  0.00  0.00     0.033 A 
HETATM   21  C   UNK N   1      23.971  18.740   4.052  0.00  0.00     0.069 A 
HETATM   22  C   UNK N   1      22.750  18.044   3.991  0.00  0.00     0.106 A 
HETATM   23  C   UNK N   1      21.639  18.640   3.333  0.00  0.00     0.135 A 
HETATM   24  C   UNK N   1      21.777  19.921   2.768  0.00  0.00     0.106 A 
HETATM   25  C   UNK N   1      23.016  20.576   2.817  0.00  0.00     0.069 A 
BRANCH  22  26
HETATM   26  O   UNK N   1      22.646  16.807   4.539  0.00  0.00    -0.353 OA
HETATM   27  C   UNK N   1      23.679  15.896   4.560  0.00  0.00     0.210 C 
ENDBRANCH  22  26
BRANCH  23  28
HETATM   28  O   UNK N   1      20.432  18.022   3.207  0.00  0.00    -0.351 OA
HETATM   29  C   UNK N   1      20.089  17.120   2.225  0.00  0.00     0.210 C 
ENDBRANCH  23  28
BRANCH  24  30
HETATM   30  O   UNK N   1      20.708  20.492   2.158  0.00  0.00    -0.353 OA
HETATM   31  C   UNK N   1      20.693  20.841   0.826  0.00  0.00     0.210 C 
ENDBRANCH  24  30
ENDBRANCH  18  20
ENDBRANCH  17  18
ENDBRANCH   6  17
BRANCH  13  32
HETATM   32  N   UNK N   1      29.663  16.207   5.966  0.00  0.00    -0.384 N 
HETATM   33  H   UNK N   1      29.347  15.282   6.083  0.00  0.00     0.157 HD
HETATM   34  H   UNK N   1      30.269  16.424   5.220  0.00  0.00     0.157 HD
ENDBRANCH  13  32
TORSDOF 7
ENDMDL
MODEL 5
REMARK VINA RESULT:      -6.9     10.638     13.740
REMARK  7 active torsions:
REMARK  status: ('A' for Active; 'I' for Inactive)
REMARK    1  A    between atoms: O_1  and  C_23 
REMARK    2  A    between atoms: O_2  and  C_24 
REMARK    3  A    between atoms: O_3  and  C_25 
REMARK    4  A    between atoms: N_4  and  C_13 
REMARK    5  A    between atoms: N_4  and  C_19 
REMARK    6  A    between atoms: N_9  and  C_20 
REMARK       I    between atoms: N_10  and  C_26 
REMARK    7  A    between atoms: C_11  and  C_13 
ROOT
HETATM    1  N   UNK N   1      28.700  17.624   6.422  0.00  0.00    -0.191 N 
ATOM      2  HN  UNK N   1      27.953  17.668   7.116  1.00  0.00     0.184 HD
HETATM    3  N   UNK N   1      29.367  17.614   4.168  0.00  0.00    -0.176 N 
ATOM      4  HN  UNK N   1      29.116  17.653   3.180  1.00  0.00     0.186 HD
HETATM    5  N   UNK N   1      27.046  17.829   4.705  0.00  0.00    -0.234 N 
HETATM    6  C   UNK N   1      32.634  17.345   7.737  0.00  0.00    -0.034 A 
HETATM    7  C   UNK N   1      32.379  17.356   6.351  0.00  0.00    -0.038 A 
HETATM    8  C   UNK N   1      31.037  17.442   5.884  0.00  0.00     0.042 A 
HETATM    9  C   UNK N   1      29.986  17.505   6.834  0.00  0.00     0.063 A 
HETATM   10  C   UNK N   1      31.579  17.392   8.650  0.00  0.00     0.011 A 
HETATM   11  C   UNK N   1      30.263  17.465   8.200  0.00  0.00     0.031 A 
HETATM   12  C   UNK N   1      33.548  17.319   5.410  0.00  0.00     0.050 C 
HETATM   13  C   UNK N   1      30.673  17.493   4.512  0.00  0.00     0.127 A 
HETATM   14  C   UNK N   1      28.386  17.684   5.104  0.00  0.00     0.677 A 
HETATM   15  H   UNK N   1      26.325  17.880   5.373  0.00  0.00     0.174 HD
HETATM   16  H   UNK N   1      26.826  17.881   3.746  0.00  0.00     0.174 HD
ENDROOT
BRANCH   6  17
HETATM   17  C   UNK N   1      34.037  17.418   8.239  0.00  0.00     0.159 C 
BRANCH  17  18
HETATM   18  N   UNK N   1      34.194  17.120   9.639  0.00  0.00    -0.386 N 
HETATM   19  H   UNK N   1      33.897  17.758  10.327  0.00  0.00     0.160 HD
BRANCH  18  20
HETATM   20  C   UNK N   1      34.785  15.887   9.997  0.00  0.00     0.033 A 
HETATM   21  C   UNK N   1      35.455  15.149   9.029  0.00  0.00     0.069 A 
HETATM   22  C   UNK N   1      35.886  13.836   9.290  0.00  0.00     0.106 A 
HETATM   23  C   UNK N   1      35.647  13.264  10.571  0.00  0.00     0.135 A 
HETATM   24  C   UNK N   1      34.999  14.029  11.558  0.00  0.00     0.106 A 
HETATM   25  C   UNK N   1      34.554  15.325  11.257  0.00  0.00     0.069 A 
BRANCH  22  26
HETATM   26  O   UNK N   1      36.503  13.118   8.318  0.00  0.00    -0.353 OA
HETATM   27  C   UNK N   1      36.313  13.340   6.972  0.00  0.00     0.210 C 
ENDBRANCH  22  26
BRANCH  23  28
HETATM   28  O   UNK N   1      36.008  11.992  10.895  0.00  0.00    -0.351 OA
HETATM   29  C   UNK N   1      37.278  11.576  11.227  0.00  0.00     0.210 C 
ENDBRANCH  23  28
BRANCH  24  30
HETATM   30  O   UNK N   1      34.792  13.486  12.784  0.00  0.00    -0.353 OA
HETATM   31  C   UNK N   1      35.630  13.695  13.857  0.00  0.00     0.210 C 
ENDBRANCH  24  30
ENDBRANCH  18  20
ENDBRANCH  17  18
ENDBRANCH   6  17
BRANCH  13  32
HETATM   32  N   UNK N   1      31.637  17.431   3.484  0.00  0.00    -0.384 N 
HETATM   33  H   UNK N   1      32.490  16.959   3.623  0.00  0.00     0.157 HD
HETATM   34  H   UNK N   1      31.455  17.865   2.619  0.00  0.00     0.157 HD
ENDBRANCH  13  32
TORSDOF 7
ENDMDL
MODEL 6
REMARK VINA RESULT:      -6.9      1.347      2.289
REMARK  7 active torsions:
REMARK  status: ('A' for Active; 'I' for Inactive)
REMARK    1  A    between atoms: O_1  and  C_23 
REMARK    2  A    between atoms: O_2  and  C_24 
REMARK    3  A    between atoms: O_3  and  C_25 
REMARK    4  A    between atoms: N_4  and  C_13 
REMARK    5  A    between atoms: N_4  and  C_19 
REMARK    6  A    between atoms: N_9  and  C_20 
REMARK       I    between atoms: N_10  and  C_26 
REMARK    7  A    between atoms: C_11  and  C_13 
ROOT
HETATM    1  N   UNK N   1      23.942  12.337  10.801  0.00  0.00    -0.191 N 
ATOM      2  HN  UNK N   1      24.851  11.974  11.089  1.00  0.00     0.184 HD
HETATM    3  N   UNK N   1      21.661  12.673  11.257  0.00  0.00    -0.176 N 
ATOM      4  HN  UNK N   1      20.869  12.561  11.890  1.00  0.00     0.186 HD
HETATM    5  N   UNK N   1      23.038  11.595  12.888  0.00  0.00    -0.234 N 
HETATM    6  C   UNK N   1      23.637  14.254   7.124  0.00  0.00    -0.034 A 
HETATM    7  C   UNK N   1      22.479  14.114   7.916  0.00  0.00    -0.038 A 
HETATM    8  C   UNK N   1      22.565  13.452   9.174  0.00  0.00     0.042 A 
HETATM    9  C   UNK N   1      23.820  12.941   9.593  0.00  0.00     0.063 A 
HETATM   10  C   UNK N   1      24.856  13.728   7.555  0.00  0.00     0.011 A 
HETATM   11  C   UNK N   1      24.944  13.069   8.778  0.00  0.00     0.031 A 
HETATM   12  C   UNK N   1      21.196  14.711   7.417  0.00  0.00     0.050 C 
HETATM   13  C   UNK N   1      21.470  13.285  10.062  0.00  0.00     0.127 A 
HETATM   14  C   UNK N   1      22.879  12.206  11.632  0.00  0.00     0.677 A 
HETATM   15  H   UNK N   1      23.916  11.251  13.172  0.00  0.00     0.174 HD
HETATM   16  H   UNK N   1      22.264  11.511  13.491  0.00  0.00     0.174 HD
ENDROOT
BRANCH   6  17
HETATM   17  C   UNK N   1      23.597  15.083   5.885  0.00  0.00     0.159 C 
BRANCH  17  18
HETATM   18  N   UNK N   1      24.001  16.454   6.061  0.00  0.00    -0.386 N 
HETATM   19  H   UNK N   1      24.673  16.699   6.737  0.00  0.00     0.160 HD
BRANCH  18  20
HETATM   20  C   UNK N   1      23.407  17.437   5.237  0.00  0.00     0.033 A 
HETATM   21  C   UNK N   1      22.133  17.216   4.728  0.00  0.00     0.069 A 
HETATM   22  C   UNK N   1      21.586  18.068   3.752  0.00  0.00     0.106 A 
HETATM   23  C   UNK N   1      22.342  19.185   3.297  0.00  0.00     0.135 A 
HETATM   24  C   UNK N   1      23.617  19.422   3.842  0.00  0.00     0.106 A 
HETATM   25  C   UNK N   1      24.148  18.535   4.790  0.00  0.00     0.069 A 
BRANCH  22  26
HETATM   26  O   UNK N   1      20.357  17.812   3.239  0.00  0.00    -0.353 OA
HETATM   27  C   UNK N   1      20.121  16.869   2.263  0.00  0.00     0.210 C 
ENDBRANCH  22  26
BRANCH  23  28
HETATM   28  O   UNK N   1      21.896  20.041   2.338  0.00  0.00    -0.351 OA
HETATM   29  C   UNK N   1      20.862  20.939   2.480  0.00  0.00     0.210 C 
ENDBRANCH  23  28
BRANCH  24  30
HETATM   30  O   UNK N   1      24.326  20.499   3.418  0.00  0.00    -0.353 OA
HETATM   31  C   UNK N   1      25.537  20.401   2.770  0.00  0.00     0.210 C 
ENDBRANCH  24  30
ENDBRANCH  18  20
ENDBRANCH  17  18
ENDBRANCH   6  17
BRANCH  13  32
HETATM   32  N   UNK N   1      20.176  13.750   9.743  0.00  0.00    -0.384 N 
HETATM   33  H   UNK N   1      19.382  13.205   9.947  0.00  0.00     0.157 HD
HETATM   34  H   UNK N   1      20.067  14.628   9.312  0.00  0.00     0.157 HD
ENDBRANCH  13  32
TORSDOF 7
ENDMDL
MODEL 7
REMARK VINA RESULT:      -6.9     14.977     17.281
REMARK  7 active torsions:
REMARK  status: ('A' for Active; 'I' for Inactive)
REMARK    1  A    between atoms: O_1  and  C_23 
REMARK    2  A    between atoms: O_2  and  C_24 
REMARK    3  A    between atoms: O_3  and  C_25 
REMARK    4  A    between atoms: N_4  and  C_13 
REMARK    5  A    between atoms: N_4  and  C_19 
REMARK    6  A    between atoms: N_9  and  C_20 
REMARK       I    between atoms: N_10  and  C_26 
REMARK    7  A    between atoms: C_11  and  C_13 
ROOT
HETATM    1  N   UNK N   1      35.342  11.352  20.687  0.00  0.00    -0.191 N 
ATOM      2  HN  UNK N   1      35.378  12.094  21.387  1.00  0.00     0.184 HD
HETATM    3  N   UNK N   1      35.297   9.058  20.173  0.00  0.00    -0.176 N 
ATOM      4  HN  UNK N   1      35.299   8.089  20.492  1.00  0.00     0.186 HD
HETATM    5  N   UNK N   1      35.352   9.747  22.463  0.00  0.00    -0.234 N 
HETATM    6  C   UNK N   1      35.139  12.403  16.670  0.00  0.00    -0.034 A 
HETATM    7  C   UNK N   1      35.173  11.037  17.015  0.00  0.00    -0.038 A 
HETATM    8  C   UNK N   1      35.252  10.660  18.386  0.00  0.00     0.042 A 
HETATM    9  C   UNK N   1      35.303  11.677  19.372  0.00  0.00     0.063 A 
HETATM   10  C   UNK N   1      35.207  13.384  17.661  0.00  0.00     0.011 A 
HETATM   11  C   UNK N   1      35.295  13.022  19.003  0.00  0.00     0.031 A 
HETATM   12  C   UNK N   1      35.082  10.020  15.914  0.00  0.00     0.050 C 
HETATM   13  C   UNK N   1      35.259   9.315  18.842  0.00  0.00     0.127 A 
HETATM   14  C   UNK N   1      35.333  10.057  21.092  0.00  0.00     0.677 A 
HETATM   15  H   UNK N   1      35.380  10.462  23.140  0.00  0.00     0.174 HD
HETATM   16  H   UNK N   1      35.337   8.805  22.751  0.00  0.00     0.174 HD
ENDROOT
BRANCH   6  17
HETATM   17  C   UNK N   1      34.895  12.811  15.256  0.00  0.00     0.159 C 
BRANCH  17  18
HETATM   18  N   UNK N   1      35.813  13.794  14.744  0.00  0.00    -0.386 N 
HETATM   19  H   UNK N   1      36.198  14.481  15.334  0.00  0.00     0.160 HD
BRANCH  18  20
HETATM   20  C   UNK N   1      36.146  13.745  13.371  0.00  0.00     0.033 A 
HETATM   21  C   UNK N   1      36.771  12.612  12.864  0.00  0.00     0.069 A 
HETATM   22  C   UNK N   1      37.296  12.597  11.559  0.00  0.00     0.106 A 
HETATM   23  C   UNK N   1      37.164  13.754  10.741  0.00  0.00     0.135 A 
HETATM   24  C   UNK N   1      36.500  14.885  11.248  0.00  0.00     0.106 A 
HETATM   25  C   UNK N   1      36.017  14.880  12.565  0.00  0.00     0.069 A 
BRANCH  22  26
HETATM   26  O   UNK N   1      37.937  11.494  11.098  0.00  0.00    -0.353 OA
HETATM   27  C   UNK N   1      37.299  10.308  10.810  0.00  0.00     0.210 C 
ENDBRANCH  22  26
BRANCH  23  28
HETATM   28  O   UNK N   1      37.667  13.830   9.478  0.00  0.00    -0.351 OA
HETATM   29  C   UNK N   1      37.097  13.279   8.352  0.00  0.00     0.210 C 
ENDBRANCH  23  28
BRANCH  24  30
HETATM   30  O   UNK N   1      36.362  15.979  10.457  0.00  0.00    -0.353 OA
HETATM   31  C   UNK N   1      35.210  16.731  10.399  0.00  0.00     0.210 C 
ENDBRANCH  24  30
ENDBRANCH  18  20
ENDBRANCH  17  18
ENDBRANCH   6  17
BRANCH  13  32
HETATM   32  N   UNK N   1      35.217   8.226  17.947  0.00  0.00    -0.384 N 
HETATM   33  H   UNK N   1      35.939   8.086  17.292  0.00  0.00     0.157 HD
HETATM   34  H   UNK N   1      34.459   7.599  17.978  0.00  0.00     0.157 HD
ENDBRANCH  13  32
TORSDOF 7
ENDMDL
MODEL 8
REMARK VINA RESULT:      -6.8      9.985     12.906
REMARK  7 active torsions:
REMARK  status: ('A' for Active; 'I' for Inactive)
REMARK    1  A    between atoms: O_1  and  C_23 
REMARK    2  A    between atoms: O_2  and  C_24 
REMARK    3  A    between atoms: O_3  and  C_25 
REMARK    4  A    between atoms: N_4  and  C_13 
REMARK    5  A    between atoms: N_4  and  C_19 
REMARK    6  A    between atoms: N_9  and  C_20 
REMARK       I    between atoms: N_10  and  C_26 
REMARK    7  A    between atoms: C_11  and  C_13 
ROOT
HETATM    1  N   UNK N   1      27.429  19.695   7.531  0.00  0.00    -0.191 N 
ATOM      2  HN  UNK N   1      26.949  20.154   8.306  1.00  0.00     0.184 HD
HETATM    3  N   UNK N   1      27.705  19.399   5.215  0.00  0.00    -0.176 N 
ATOM      4  HN  UNK N   1      27.430  19.640   4.263  1.00  0.00     0.186 HD
HETATM    5  N   UNK N   1      26.091  20.974   6.013  0.00  0.00    -0.234 N 
HETATM    6  C   UNK N   1      30.449  16.970   8.386  0.00  0.00    -0.034 A 
HETATM    7  C   UNK N   1      30.114  17.213   7.038  0.00  0.00    -0.038 A 
HETATM    8  C   UNK N   1      29.075  18.137   6.729  0.00  0.00     0.042 A 
HETATM    9  C   UNK N   1      28.397  18.784   7.793  0.00  0.00     0.063 A 
HETATM   10  C   UNK N   1      29.755  17.610   9.413  0.00  0.00     0.011 A 
HETATM   11  C   UNK N   1      28.731  18.505   9.118  0.00  0.00     0.031 A 
HETATM   12  C   UNK N   1      30.900  16.512   5.969  0.00  0.00     0.050 C 
HETATM   13  C   UNK N   1      28.680  18.477   5.408  0.00  0.00     0.127 A 
HETATM   14  C   UNK N   1      27.084  20.009   6.257  0.00  0.00     0.677 A 
HETATM   15  H   UNK N   1      25.632  21.423   6.760  0.00  0.00     0.174 HD
HETATM   16  H   UNK N   1      25.851  21.204   5.086  0.00  0.00     0.174 HD
ENDROOT
BRANCH   6  17
HETATM   17  C   UNK N   1      31.638  16.132   8.719  0.00  0.00     0.159 C 
BRANCH  17  18
HETATM   18  N   UNK N   1      32.803  16.872   9.128  0.00  0.00    -0.386 N 
HETATM   19  H   UNK N   1      32.749  17.836   9.316  0.00  0.00     0.160 HD
BRANCH  18  20
HETATM   20  C   UNK N   1      34.027  16.175   9.252  0.00  0.00     0.033 A 
HETATM   21  C   UNK N   1      34.570  15.553   8.134  0.00  0.00     0.069 A 
HETATM   22  C   UNK N   1      35.675  14.690   8.251  0.00  0.00     0.106 A 
HETATM   23  C   UNK N   1      36.254  14.468   9.532  0.00  0.00     0.135 A 
HETATM   24  C   UNK N   1      35.721  15.128  10.654  0.00  0.00     0.106 A 
HETATM   25  C   UNK N   1      34.599  15.958  10.509  0.00  0.00     0.069 A 
BRANCH  22  26
HETATM   26  O   UNK N   1      36.165  14.061   7.154  0.00  0.00    -0.353 OA
HETATM   27  C   UNK N   1      36.151  14.613   5.892  0.00  0.00     0.210 C 
ENDBRANCH  22  26
BRANCH  23  28
HETATM   28  O   UNK N   1      37.307  13.628   9.735  0.00  0.00    -0.351 OA
HETATM   29  C   UNK N   1      38.633  13.941   9.542  0.00  0.00     0.210 C 
ENDBRANCH  23  28
BRANCH  24  30
HETATM   30  O   UNK N   1      36.290  14.928  11.870  0.00  0.00    -0.353 OA
HETATM   31  C   UNK N   1      35.720  14.151  12.854  0.00  0.00     0.210 C 
ENDBRANCH  24  30
ENDBRANCH  18  20
ENDBRANCH  17  18
ENDBRANCH   6  17
BRANCH  13  32
HETATM   32  N   UNK N   1      29.284  17.889   4.277  0.00  0.00    -0.384 N 
HETATM   33  H   UNK N   1      30.144  17.416   4.355  0.00  0.00     0.157 HD
HETATM   34  H   UNK N   1      28.840  17.952   3.400  0.00  0.00     0.157 HD
ENDBRANCH  13  32
TORSDOF 7
ENDMDL
MODEL 9
REMARK VINA RESULT:      -6.8     14.963     16.972
REMARK  7 active torsions:
REMARK  status: ('A' for Active; 'I' for Inactive)
REMARK    1  A    between atoms: O_1  and  C_23 
REMARK    2  A    between atoms: O_2  and  C_24 
REMARK    3  A    between atoms: O_3  and  C_25 
REMARK    4  A    between atoms: N_4  and  C_13 
REMARK    5  A    between atoms: N_4  and  C_19 
REMARK    6  A    between atoms: N_9  and  C_20 
REMARK       I    between atoms: N_10  and  C_26 
REMARK    7  A    between atoms: C_11  and  C_13 
ROOT
HETATM    1  N   UNK N   1      35.367   9.583  19.157  0.00  0.00    -0.191 N 
ATOM      2  HN  UNK N   1      35.535   8.622  18.859  1.00  0.00     0.184 HD
HETATM    3  N   UNK N   1      34.754  11.099  20.846  0.00  0.00    -0.176 N 
ATOM      4  HN  UNK N   1      34.467  11.266  21.810  1.00  0.00     0.186 HD
HETATM    5  N   UNK N   1      34.861   8.763  21.347  0.00  0.00    -0.234 N 
HETATM    6  C   UNK N   1      35.935  12.652  16.410  0.00  0.00    -0.034 A 
HETATM    7  C   UNK N   1      35.501  12.976  17.712  0.00  0.00    -0.038 A 
HETATM    8  C   UNK N   1      35.293  11.935  18.661  0.00  0.00     0.042 A 
HETATM    9  C   UNK N   1      35.521  10.593  18.266  0.00  0.00     0.063 A 
HETATM   10  C   UNK N   1      36.137  11.320  16.043  0.00  0.00     0.011 A 
HETATM   11  C   UNK N   1      35.924  10.298  16.964  0.00  0.00     0.031 A 
HETATM   12  C   UNK N   1      35.313  14.423  18.062  0.00  0.00     0.050 C 
HETATM   13  C   UNK N   1      34.888  12.154  20.005  0.00  0.00     0.127 A 
HETATM   14  C   UNK N   1      34.993   9.827  20.438  0.00  0.00     0.677 A 
HETATM   15  H   UNK N   1      35.030   7.835  21.064  0.00  0.00     0.174 HD
HETATM   16  H   UNK N   1      34.598   8.947  22.278  0.00  0.00     0.174 HD
ENDROOT
BRANCH   6  17
HETATM   17  C   UNK N   1      36.311  13.736  15.457  0.00  0.00     0.159 C 
BRANCH  17  18
HETATM   18  N   UNK N   1      37.112  13.308  14.341  0.00  0.00    -0.386 N 
HETATM   19  H   UNK N   1      38.044  13.020  14.469  0.00  0.00     0.160 HD
BRANCH  18  20
HETATM   20  C   UNK N   1      36.523  13.312  13.055  0.00  0.00     0.033 A 
HETATM   21  C   UNK N   1      36.778  12.255  12.189  0.00  0.00     0.069 A 
HETATM   22  C   UNK N   1      36.378  12.311  10.842  0.00  0.00     0.106 A 
HETATM   23  C   UNK N   1      35.684  13.459  10.367  0.00  0.00     0.135 A 
HETATM   24  C   UNK N   1      35.398  14.510  11.258  0.00  0.00     0.106 A 
HETATM   25  C   UNK N   1      35.839  14.438  12.588  0.00  0.00     0.069 A 
BRANCH  22  26
HETATM   26  O   UNK N   1      36.672  11.287  10.003  0.00  0.00    -0.353 OA
HETATM   27  C   UNK N   1      35.776  10.295   9.671  0.00  0.00     0.210 C 
ENDBRANCH  22  26
BRANCH  23  28
HETATM   28  O   UNK N   1      35.285  13.603   9.073  0.00  0.00    -0.351 OA
HETATM   29  C   UNK N   1      36.060  14.086   8.043  0.00  0.00     0.210 C 
ENDBRANCH  23  28
BRANCH  24  30
HETATM   30  O   UNK N   1      34.719  15.594  10.804  0.00  0.00    -0.353 OA
HETATM   31  C   UNK N   1      35.313  16.813  10.563  0.00  0.00     0.210 C 
ENDBRANCH  24  30
ENDBRANCH  18  20
ENDBRANCH  17  18
ENDBRANCH   6  17
BRANCH  13  32
HETATM   32  N   UNK N   1      34.628  13.448  20.502  0.00  0.00    -0.384 N 
HETATM   33  H   UNK N   1      34.982  14.244  20.042  0.00  0.00     0.157 HD
HETATM   34  H   UNK N   1      34.087  13.558  21.318  0.00  0.00     0.157 HD
ENDBRANCH  13  32
TORSDOF 7
ENDMDL
