MODEL 1
REMARK VINA RESULT:      -9.3      0.000      0.000
REMARK  11 active torsions:
REMARK  status: ('A' for Active; 'I' for Inactive)
REMARK    1  A    between atoms: O_5  and  C_27 
REMARK    2  A    between atoms: O_5  and  C_34 
REMARK    3  A    between atoms: N_7  and  C_28 
REMARK    4  A    between atoms: N_8  and  C_29 
REMARK    5  A    between atoms: N_9  and  C_25 
REMARK    6  A    between atoms: N_10  and  C_39 
REMARK    7  A    between atoms: N_13  and  C_45 
REMARK    8  A    between atoms: C_18  and  C_25 
REMARK    9  A    between atoms: C_18  and  C_26 
REMARK   10  A    between atoms: C_19  and  C_27 
REMARK   11  A    between atoms: C_45  and  C_48 
ROOT
HETATM    1  C   UNK N   1      34.745  15.962   8.884  0.00  0.00     0.030 C 
HETATM    2  C   UNK N   1      34.567  15.187   7.738  0.00  0.00     0.032 C 
HETATM    3  C   UNK N   1      34.048  17.166   9.043  0.00  0.00     0.032 C 
HETATM    4  C   UNK N   1      32.708  16.586   7.166  0.00  0.00     0.069 C 
HETATM    5  C   UNK N   1      33.530  15.494   6.883  0.00  0.00     0.039 C 
HETATM    6  C   UNK N   1      33.039  17.489   8.174  0.00  0.00     0.039 C 
ENDROOT
BRANCH   1   7
HETATM    7  N   UNK N   1      35.060  15.267  10.055  0.00  0.00    -0.378 N 
HETATM    8  C   UNK N   1      34.318  14.003  10.222  0.00  0.00     0.143 C 
HETATM    9  C   UNK N   1      35.242  12.794  10.255  0.00  0.00     0.143 C 
HETATM   10  N   UNK N   1      36.207  13.165  11.229  0.00  0.00    -0.378 N 
HETATM   11  C   UNK N   1      37.147  14.159  10.786  0.00  0.00     0.143 C 
HETATM   12  C   UNK N   1      36.378  15.467  10.659  0.00  0.00     0.143 C 
BRANCH  10  13
HETATM   13  C   UNK N   1      35.800  13.163  12.592  0.00  0.00     0.030 C 
HETATM   14  C   UNK N   1      36.454  14.002  13.490  0.00  0.00     0.031 C 
HETATM   15  C   UNK N   1      36.215  13.896  14.832  0.00  0.00     0.032 C 
HETATM   16  C   UNK N   1      35.326  12.945  15.326  0.00  0.00     0.045 C 
HETATM   17  C   UNK N   1      34.553  12.186  14.433  0.00  0.00     0.032 C 
HETATM   18  C   UNK N   1      34.777  12.311  13.055  0.00  0.00     0.031 C 
BRANCH  16  19
HETATM   19  N   UNK N   1      35.489  12.528  16.686  0.00  0.00    -0.258 N 
HETATM   20  C   UNK N   1      35.781  11.264  17.085  0.00  0.00     0.349 A 
HETATM   21  O   UNK N   1      36.082  10.352  16.337  0.00  0.00    -0.244 OA
HETATM   22  N   UNK N   1      35.616  11.141  18.420  0.00  0.00    -0.237 N 
HETATM   23  N   UNK N   1      35.253  12.330  18.882  0.00  0.00    -0.289 N 
HETATM   24  C   UNK N   1      35.155  13.175  17.821  0.00  0.00     0.210 A 
ATOM     25  HN  UNK N   1      35.078  12.568  19.859  1.00  0.00     0.188 HD
BRANCH  22  26
HETATM   26  C   UNK N   1      35.726   9.925  19.246  0.00  0.00     0.108 C 
HETATM   27  C   UNK N   1      34.421   9.136  19.321  0.00  0.00     0.034 C 
BRANCH  26  28
HETATM   28  C   UNK N   1      36.119  10.276  20.670  0.00  0.00     0.022 C 
HETATM   29  C   UNK N   1      37.614  10.104  20.844  0.00  0.00     0.007 C 
ENDBRANCH  26  28
ENDBRANCH  22  26
ENDBRANCH  16  19
ENDBRANCH  10  13
ENDBRANCH   1   7
BRANCH   4  30
HETATM   30  O   UNK N   1      31.644  16.820   6.388  0.00  0.00    -0.349 OA
BRANCH  30  31
HETATM   31  C   UNK N   1      30.538  16.036   6.550  0.00  0.00     0.209 C 
BRANCH  31  32
HETATM   32  C   UNK N   1      29.518  16.584   5.569  0.00  0.00     0.173 C 
HETATM   33  O   UNK N   1      28.347  16.902   6.253  0.00  0.00    -0.340 OA
HETATM   34  C   UNK N   1      27.972  18.161   5.771  0.00  0.00     0.213 C 
HETATM   35  O   UNK N   1      28.803  18.524   4.684  0.00  0.00    -0.347 OA
HETATM   36  C   UNK N   1      29.970  17.790   4.859  0.00  0.00     0.206 C 
BRANCH  34  37
HETATM   37  C   UNK N   1      28.120  19.181   6.917  0.00  0.00     0.224 C 
BRANCH  37  38
HETATM   38  N   UNK N   1      28.452  18.508   8.167  0.00  0.00    -0.281 N 
HETATM   39  N   UNK N   1      27.698  17.613   8.773  0.00  0.00    -0.293 N 
HETATM   40  C   UNK N   1      28.408  17.157   9.824  0.00  0.00     0.198 A 
ATOM     41  HN  UNK N   1      26.760  17.320   8.499  1.00  0.00     0.188 HD
HETATM   42  N   UNK N   1      29.615  17.765   9.878  0.00  0.00    -0.346 N 
HETATM   43  C   UNK N   1      29.617  18.606   8.825  0.00  0.00     0.201 A 
ATOM     44  HN  UNK N   1      30.358  17.619  10.561  1.00  0.00     0.167 HD
ENDBRANCH  37  38
ENDBRANCH  34  37
BRANCH  34  45
HETATM   45  C   UNK N   1      26.537  18.111   5.277  0.00  0.00     0.027 A 
HETATM   46  C   UNK N   1      25.924  19.254   4.715  0.00  0.00     0.047 A 
HETATM   47 Cl   UNK N   1      26.774  20.788   4.571  0.00  0.00    -0.084 Cl
HETATM   48  C   UNK N   1      24.614  19.181   4.238  0.00  0.00     0.048 A 
HETATM   49  C   UNK N   1      23.897  17.988   4.311  0.00  0.00     0.035 A 
HETATM   50 Cl   UNK N   1      22.259  17.923   3.697  0.00  0.00    -0.084 Cl
HETATM   51  C   UNK N   1      24.488  16.852   4.867  0.00  0.00     0.024 A 
HETATM   52  C   UNK N   1      25.800  16.910   5.345  0.00  0.00     0.016 A 
ENDBRANCH  34  45
ENDBRANCH  31  32
ENDBRANCH  30  31
ENDBRANCH   4  30
TORSDOF 11
ENDMDL
MODEL 2
REMARK VINA RESULT:      -9.0      2.618      4.637
REMARK  11 active torsions:
REMARK  status: ('A' for Active; 'I' for Inactive)
REMARK    1  A    between atoms: O_5  and  C_27 
REMARK    2  A    between atoms: O_5  and  C_34 
REMARK    3  A    between atoms: N_7  and  C_28 
REMARK    4  A    between atoms: N_8  and  C_29 
REMARK    5  A    between atoms: N_9  and  C_25 
REMARK    6  A    between atoms: N_10  and  C_39 
REMARK    7  A    between atoms: N_13  and  C_45 
REMARK    8  A    between atoms: C_18  and  C_25 
REMARK    9  A    between atoms: C_18  and  C_26 
REMARK   10  A    between atoms: C_19  and  C_27 
REMARK   11  A    between atoms: C_45  and  C_48 
ROOT
HETATM    1  C   UNK N   1      31.618  15.938   5.925  0.00  0.00     0.030 C 
HETATM    2  C   UNK N   1      30.849  14.840   5.536  0.00  0.00     0.032 C 
HETATM    3  C   UNK N   1      31.117  17.239   5.795  0.00  0.00     0.032 C 
HETATM    4  C   UNK N   1      28.975  16.319   5.322  0.00  0.00     0.069 C 
HETATM    5  C   UNK N   1      29.514  15.033   5.249  0.00  0.00     0.039 C 
HETATM    6  C   UNK N   1      29.798  17.432   5.476  0.00  0.00     0.039 C 
ENDROOT
BRANCH   1   7
HETATM    7  N   UNK N   1      32.515  15.720   6.974  0.00  0.00    -0.378 N 
HETATM    8  C   UNK N   1      33.518  14.673   6.700  0.00  0.00     0.143 C 
HETATM    9  C   UNK N   1      34.938  15.220   6.714  0.00  0.00     0.143 C 
HETATM   10  N   UNK N   1      34.990  15.923   7.947  0.00  0.00    -0.378 N 
HETATM   11  C   UNK N   1      34.267  17.166   7.954  0.00  0.00     0.143 C 
HETATM   12  C   UNK N   1      32.786  16.814   7.907  0.00  0.00     0.143 C 
BRANCH  10  13
HETATM   13  C   UNK N   1      35.044  15.152   9.142  0.00  0.00     0.030 C 
HETATM   14  C   UNK N   1      34.118  15.409  10.149  0.00  0.00     0.031 C 
HETATM   15  C   UNK N   1      34.250  14.818  11.374  0.00  0.00     0.032 C 
HETATM   16  C   UNK N   1      35.314  13.961  11.643  0.00  0.00     0.045 C 
HETATM   17  C   UNK N   1      36.178  13.580  10.604  0.00  0.00     0.032 C 
HETATM   18  C   UNK N   1      36.028  14.163   9.339  0.00  0.00     0.031 C 
BRANCH  16  19
HETATM   19  N   UNK N   1      35.699  13.788  13.011  0.00  0.00    -0.258 N 
HETATM   20  C   UNK N   1      35.094  12.952  13.893  0.00  0.00     0.349 A 
HETATM   21  O   UNK N   1      34.237  12.138  13.601  0.00  0.00    -0.244 OA
HETATM   22  N   UNK N   1      35.520  13.204  15.150  0.00  0.00    -0.237 N 
HETATM   23  N   UNK N   1      36.420  14.174  15.073  0.00  0.00    -0.289 N 
HETATM   24  C   UNK N   1      36.517  14.547  13.768  0.00  0.00     0.210 A 
ATOM     25  HN  UNK N   1      36.946  14.570  15.852  1.00  0.00     0.188 HD
BRANCH  22  26
HETATM   26  C   UNK N   1      35.049  12.603  16.411  0.00  0.00     0.108 C 
HETATM   27  C   UNK N   1      35.232  13.525  17.614  0.00  0.00     0.034 C 
BRANCH  26  28
HETATM   28  C   UNK N   1      35.806  11.322  16.711  0.00  0.00     0.022 C 
HETATM   29  C   UNK N   1      34.903  10.129  16.475  0.00  0.00     0.007 C 
ENDBRANCH  26  28
ENDBRANCH  22  26
ENDBRANCH  16  19
ENDBRANCH  10  13
ENDBRANCH   1   7
BRANCH   4  30
HETATM   30  O   UNK N   1      27.660  16.485   5.139  0.00  0.00    -0.349 OA
BRANCH  30  31
HETATM   31  C   UNK N   1      27.125  16.142   3.931  0.00  0.00     0.209 C 
BRANCH  31  32
HETATM   32  C   UNK N   1      25.671  15.816   4.220  0.00  0.00     0.173 C 
HETATM   33  O   UNK N   1      25.145  16.784   5.073  0.00  0.00    -0.340 OA
HETATM   34  C   UNK N   1      23.900  17.115   4.527  0.00  0.00     0.213 C 
HETATM   35  O   UNK N   1      23.597  16.236   3.460  0.00  0.00    -0.347 OA
HETATM   36  C   UNK N   1      24.828  15.766   3.017  0.00  0.00     0.206 C 
BRANCH  34  37
HETATM   37  C   UNK N   1      23.966  18.568   4.019  0.00  0.00     0.224 C 
BRANCH  37  38
HETATM   38  N   UNK N   1      25.218  19.198   4.420  0.00  0.00    -0.281 N 
HETATM   39  N   UNK N   1      25.673  19.268   5.655  0.00  0.00    -0.293 N 
HETATM   40  C   UNK N   1      26.899  19.822   5.585  0.00  0.00     0.198 A 
ATOM     41  HN  UNK N   1      25.191  18.961   6.500  1.00  0.00     0.188 HD
HETATM   42  N   UNK N   1      27.220  20.099   4.300  0.00  0.00    -0.346 N 
HETATM   43  C   UNK N   1      26.147  19.695   3.590  0.00  0.00     0.201 A 
ATOM     44  HN  UNK N   1      28.080  20.518   3.947  1.00  0.00     0.167 HD
ENDBRANCH  37  38
ENDBRANCH  34  37
BRANCH  34  45
HETATM   45  C   UNK N   1      22.823  16.964   5.587  0.00  0.00     0.027 A 
HETATM   46  C   UNK N   1      22.674  15.755   6.303  0.00  0.00     0.047 A 
HETATM   47 Cl   UNK N   1      23.707  14.363   5.999  0.00  0.00    -0.084 Cl
HETATM   48  C   UNK N   1      21.698  15.644   7.294  0.00  0.00     0.048 A 
HETATM   49  C   UNK N   1      20.860  16.718   7.590  0.00  0.00     0.035 A 
HETATM   50 Cl   UNK N   1      19.651  16.555   8.844  0.00  0.00    -0.084 Cl
HETATM   51  C   UNK N   1      20.993  17.919   6.889  0.00  0.00     0.024 A 
HETATM   52  C   UNK N   1      21.969  18.044   5.895  0.00  0.00     0.016 A 
ENDBRANCH  34  45
ENDBRANCH  31  32
ENDBRANCH  30  31
ENDBRANCH   4  30
TORSDOF 11
ENDMDL
MODEL 3
REMARK VINA RESULT:      -8.9      2.774      4.914
REMARK  11 active torsions:
REMARK  status: ('A' for Active; 'I' for Inactive)
REMARK    1  A    between atoms: O_5  and  C_27 
REMARK    2  A    between atoms: O_5  and  C_34 
REMARK    3  A    between atoms: N_7  and  C_28 
REMARK    4  A    between atoms: N_8  and  C_29 
REMARK    5  A    between atoms: N_9  and  C_25 
REMARK    6  A    between atoms: N_10  and  C_39 
REMARK    7  A    between atoms: N_13  and  C_45 
REMARK    8  A    between atoms: C_18  and  C_25 
REMARK    9  A    between atoms: C_18  and  C_26 
REMARK   10  A    between atoms: C_19  and  C_27 
REMARK   11  A    between atoms: C_45  and  C_48 
ROOT
HETATM    1  C   UNK N   1      31.992  16.923   7.147  0.00  0.00     0.030 C 
HETATM    2  C   UNK N   1      31.693  17.118   5.798  0.00  0.00     0.032 C 
HETATM    3  C   UNK N   1      31.005  17.097   8.125  0.00  0.00     0.032 C 
HETATM    4  C   UNK N   1      29.375  17.214   6.398  0.00  0.00     0.069 C 
HETATM    5  C   UNK N   1      30.373  17.248   5.422  0.00  0.00     0.039 C 
HETATM    6  C   UNK N   1      29.697  17.260   7.752  0.00  0.00     0.039 C 
ENDROOT
BRANCH   1   7
HETATM    7  N   UNK N   1      32.986  15.983   7.428  0.00  0.00    -0.378 N 
HETATM    8  C   UNK N   1      32.470  14.636   7.744  0.00  0.00     0.143 C 
HETATM    9  C   UNK N   1      32.940  13.592   6.743  0.00  0.00     0.143 C 
HETATM   10  N   UNK N   1      34.344  13.803   6.705  0.00  0.00    -0.378 N 
HETATM   11  C   UNK N   1      34.747  14.991   6.002  0.00  0.00     0.143 C 
HETATM   12  C   UNK N   1      34.319  16.176   6.856  0.00  0.00     0.143 C 
BRANCH  10  13
HETATM   13  C   UNK N   1      35.104  13.381   7.832  0.00  0.00     0.030 C 
HETATM   14  C   UNK N   1      34.719  12.227   8.507  0.00  0.00     0.031 C 
HETATM   15  C   UNK N   1      35.311  11.892   9.693  0.00  0.00     0.032 C 
HETATM   16  C   UNK N   1      36.297  12.700  10.253  0.00  0.00     0.045 C 
HETATM   17  C   UNK N   1      36.798  13.791   9.522  0.00  0.00     0.032 C 
HETATM   18  C   UNK N   1      36.211  14.120   8.294  0.00  0.00     0.031 C 
BRANCH  16  19
HETATM   19  N   UNK N   1      36.506  12.612  11.666  0.00  0.00    -0.258 N 
HETATM   20  C   UNK N   1      35.799  13.291  12.604  0.00  0.00     0.349 A 
HETATM   21  O   UNK N   1      34.804  13.955  12.377  0.00  0.00    -0.244 OA
HETATM   22  N   UNK N   1      36.398  13.189  13.811  0.00  0.00    -0.237 N 
HETATM   23  N   UNK N   1      37.466  12.420  13.656  0.00  0.00    -0.289 N 
HETATM   24  C   UNK N   1      37.546  12.081  12.341  0.00  0.00     0.210 A 
ATOM     25  HN  UNK N   1      38.113  12.133  14.391  1.00  0.00     0.188 HD
BRANCH  22  26
HETATM   26  C   UNK N   1      36.024  13.852  15.074  0.00  0.00     0.108 C 
HETATM   27  C   UNK N   1      37.099  14.809  15.584  0.00  0.00     0.034 C 
BRANCH  26  28
HETATM   28  C   UNK N   1      35.784  12.827  16.168  0.00  0.00     0.022 C 
HETATM   29  C   UNK N   1      35.267  13.520  17.412  0.00  0.00     0.007 C 
ENDBRANCH  26  28
ENDBRANCH  22  26
ENDBRANCH  16  19
ENDBRANCH  10  13
ENDBRANCH   1   7
BRANCH   4  30
HETATM   30  O   UNK N   1      28.092  17.241   6.018  0.00  0.00    -0.349 OA
BRANCH  30  31
HETATM   31  C   UNK N   1      27.558  18.433   5.621  0.00  0.00     0.209 C 
BRANCH  31  32
HETATM   32  C   UNK N   1      26.690  18.099   4.422  0.00  0.00     0.173 C 
HETATM   33  O   UNK N   1      26.164  16.818   4.580  0.00  0.00    -0.340 OA
HETATM   34  C   UNK N   1      24.812  16.933   4.239  0.00  0.00     0.213 C 
HETATM   35  O   UNK N   1      24.560  18.223   3.712  0.00  0.00    -0.347 OA
HETATM   36  C   UNK N   1      25.568  19.029   4.229  0.00  0.00     0.206 C 
BRANCH  34  37
HETATM   37  C   UNK N   1      23.972  16.703   5.510  0.00  0.00     0.224 C 
BRANCH  37  38
HETATM   38  N   UNK N   1      24.450  15.536   6.240  0.00  0.00    -0.281 N 
HETATM   39  N   UNK N   1      25.532  15.499   6.992  0.00  0.00    -0.293 N 
HETATM   40  C   UNK N   1      25.557  14.284   7.572  0.00  0.00     0.198 A 
ATOM     41  HN  UNK N   1      26.216  16.246   7.112  1.00  0.00     0.188 HD
HETATM   42  N   UNK N   1      24.486  13.553   7.188  0.00  0.00    -0.346 N 
HETATM   43  C   UNK N   1      23.807  14.364   6.354  0.00  0.00     0.201 A 
ATOM     44  HN  UNK N   1      24.245  12.602   7.468  1.00  0.00     0.167 HD
ENDBRANCH  37  38
ENDBRANCH  34  37
BRANCH  34  45
HETATM   45  C   UNK N   1      24.467  15.909   3.172  0.00  0.00     0.027 A 
HETATM   46  C   UNK N   1      23.126  15.698   2.777  0.00  0.00     0.047 A 
HETATM   47 Cl   UNK N   1      21.793  16.590   3.501  0.00  0.00    -0.084 Cl
HETATM   48  C   UNK N   1      22.829  14.774   1.774  0.00  0.00     0.048 A 
HETATM   49  C   UNK N   1      23.845  14.048   1.154  0.00  0.00     0.035 A 
HETATM   50 Cl   UNK N   1      23.446  12.903  -0.107  0.00  0.00    -0.084 Cl
HETATM   51  C   UNK N   1      25.174  14.243   1.536  0.00  0.00     0.024 A 
HETATM   52  C   UNK N   1      25.485  15.168   2.537  0.00  0.00     0.016 A 
ENDBRANCH  34  45
ENDBRANCH  31  32
ENDBRANCH  30  31
ENDBRANCH   4  30
TORSDOF 11
ENDMDL
MODEL 4
REMARK VINA RESULT:      -8.8      3.240      5.944
REMARK  11 active torsions:
REMARK  status: ('A' for Active; 'I' for Inactive)
REMARK    1  A    between atoms: O_5  and  C_27 
REMARK    2  A    between atoms: O_5  and  C_34 
REMARK    3  A    between atoms: N_7  and  C_28 
REMARK    4  A    between atoms: N_8  and  C_29 
REMARK    5  A    between atoms: N_9  and  C_25 
REMARK    6  A    between atoms: N_10  and  C_39 
REMARK    7  A    between atoms: N_13  and  C_45 
REMARK    8  A    between atoms: C_18  and  C_25 
REMARK    9  A    between atoms: C_18  and  C_26 
REMARK   10  A    between atoms: C_19  and  C_27 
REMARK   11  A    between atoms: C_45  and  C_48 
ROOT
HETATM    1  C   UNK N   1      30.572  16.274   5.435  0.00  0.00     0.030 C 
HETATM    2  C   UNK N   1      29.608  15.301   5.701  0.00  0.00     0.032 C 
HETATM    3  C   UNK N   1      30.194  17.552   5.006  0.00  0.00     0.032 C 
HETATM    4  C   UNK N   1      27.939  17.013   5.536  0.00  0.00     0.069 C 
HETATM    5  C   UNK N   1      28.284  15.680   5.768  0.00  0.00     0.039 C 
HETATM    6  C   UNK N   1      28.873  17.918   5.039  0.00  0.00     0.039 C 
ENDROOT
BRANCH   1   7
HETATM    7  N   UNK N   1      31.751  16.193   6.182  0.00  0.00    -0.378 N 
HETATM    8  C   UNK N   1      32.526  14.958   5.953  0.00  0.00     0.143 C 
HETATM    9  C   UNK N   1      33.904  15.244   5.375  0.00  0.00     0.143 C 
HETATM   10  N   UNK N   1      34.416  16.228   6.261  0.00  0.00    -0.378 N 
HETATM   11  C   UNK N   1      33.829  17.532   6.106  0.00  0.00     0.143 C 
HETATM   12  C   UNK N   1      32.397  17.433   6.613  0.00  0.00     0.143 C 
BRANCH  10  13
HETATM   13  C   UNK N   1      34.810  15.803   7.561  0.00  0.00     0.030 C 
HETATM   14  C   UNK N   1      35.466  14.583   7.698  0.00  0.00     0.031 C 
HETATM   15  C   UNK N   1      35.697  14.061   8.941  0.00  0.00     0.032 C 
HETATM   16  C   UNK N   1      35.272  14.728  10.086  0.00  0.00     0.045 C 
HETATM   17  C   UNK N   1      34.736  16.021   9.978  0.00  0.00     0.032 C 
HETATM   18  C   UNK N   1      34.523  16.571   8.707  0.00  0.00     0.031 C 
BRANCH  16  19
HETATM   19  N   UNK N   1      35.067  13.950  11.270  0.00  0.00    -0.258 N 
HETATM   20  C   UNK N   1      35.556  14.255  12.499  0.00  0.00     0.349 A 
HETATM   21  O   UNK N   1      36.113  15.299  12.785  0.00  0.00    -0.244 OA
HETATM   22  N   UNK N   1      35.406  13.208  13.339  0.00  0.00    -0.237 N 
HETATM   23  N   UNK N   1      34.792  12.246  12.663  0.00  0.00    -0.289 N 
HETATM   24  C   UNK N   1      34.602  12.690  11.392  0.00  0.00     0.210 A 
ATOM     25  HN  UNK N   1      34.513  11.336  13.030  1.00  0.00     0.188 HD
BRANCH  22  26
HETATM   26  C   UNK N   1      35.886  13.074  14.727  0.00  0.00     0.108 C 
HETATM   27  C   UNK N   1      36.777  11.851  14.933  0.00  0.00     0.034 C 
BRANCH  26  28
HETATM   28  C   UNK N   1      34.719  12.944  15.689  0.00  0.00     0.022 C 
HETATM   29  C   UNK N   1      35.235  12.612  17.075  0.00  0.00     0.007 C 
ENDBRANCH  26  28
ENDBRANCH  22  26
ENDBRANCH  16  19
ENDBRANCH  10  13
ENDBRANCH   1   7
BRANCH   4  30
HETATM   30  O   UNK N   1      26.667  17.394   5.699  0.00  0.00    -0.349 OA
BRANCH  30  31
HETATM   31  C   UNK N   1      25.684  16.460   5.533  0.00  0.00     0.209 C 
BRANCH  31  32
HETATM   32  C   UNK N   1      24.810  17.000   4.416  0.00  0.00     0.173 C 
HETATM   33  O   UNK N   1      23.545  16.422   4.502  0.00  0.00    -0.340 OA
HETATM   34  C   UNK N   1      22.647  17.482   4.334  0.00  0.00     0.213 C 
HETATM   35  O   UNK N   1      23.353  18.655   3.974  0.00  0.00    -0.347 OA
HETATM   36  C   UNK N   1      24.645  18.461   4.450  0.00  0.00     0.206 C 
BRANCH  34  37
HETATM   37  C   UNK N   1      21.899  17.697   5.664  0.00  0.00     0.224 C 
BRANCH  37  38
HETATM   38  N   UNK N   1      21.559  16.419   6.277  0.00  0.00    -0.281 N 
HETATM   39  N   UNK N   1      22.396  15.648   6.942  0.00  0.00    -0.293 N 
HETATM   40  C   UNK N   1      21.670  14.626   7.437  0.00  0.00     0.198 A 
ATOM     41  HN  UNK N   1      23.398  15.796   7.061  1.00  0.00     0.188 HD
HETATM   42  N   UNK N   1      20.370  14.756   7.086  0.00  0.00    -0.346 N 
HETATM   43  C   UNK N   1      20.329  15.891   6.360  0.00  0.00     0.201 A 
ATOM     44  HN  UNK N   1      19.596  14.135   7.319  1.00  0.00     0.167 HD
ENDBRANCH  37  38
ENDBRANCH  34  37
BRANCH  34  45
HETATM   45  C   UNK N   1      21.673  17.152   3.216  0.00  0.00     0.027 A 
HETATM   46  C   UNK N   1      20.764  18.122   2.737  0.00  0.00     0.047 A 
HETATM   47 Cl   UNK N   1      20.698  19.746   3.411  0.00  0.00    -0.084 Cl
HETATM   48  C   UNK N   1      19.897  17.811   1.688  0.00  0.00     0.048 A 
HETATM   49  C   UNK N   1      19.914  16.545   1.104  0.00  0.00     0.035 A 
HETATM   50 Cl   UNK N   1      18.822  16.184  -0.214  0.00  0.00    -0.084 Cl
HETATM   51  C   UNK N   1      20.804  15.575   1.569  0.00  0.00     0.024 A 
HETATM   52  C   UNK N   1      21.680  15.875   2.617  0.00  0.00     0.016 A 
ENDBRANCH  34  45
ENDBRANCH  31  32
ENDBRANCH  30  31
ENDBRANCH   4  30
TORSDOF 11
ENDMDL
MODEL 5
REMARK VINA RESULT:      -8.8      4.546     13.868
REMARK  11 active torsions:
REMARK  status: ('A' for Active; 'I' for Inactive)
REMARK    1  A    between atoms: O_5  and  C_27 
REMARK    2  A    between atoms: O_5  and  C_34 
REMARK    3  A    between atoms: N_7  and  C_28 
REMARK    4  A    between atoms: N_8  and  C_29 
REMARK    5  A    between atoms: N_9  and  C_25 
REMARK    6  A    between atoms: N_10  and  C_39 
REMARK    7  A    between atoms: N_13  and  C_45 
REMARK    8  A    between atoms: C_18  and  C_25 
REMARK    9  A    between atoms: C_18  and  C_26 
REMARK   10  A    between atoms: C_19  and  C_27 
REMARK   11  A    between atoms: C_45  and  C_48 
ROOT
HETATM    1  C   UNK N   1      35.311  15.595   9.483  0.00  0.00     0.030 C 
HETATM    2  C   UNK N   1      35.370  16.286  10.694  0.00  0.00     0.032 C 
HETATM    3  C   UNK N   1      35.827  14.298   9.379  0.00  0.00     0.032 C 
HETATM    4  C   UNK N   1      36.038  14.240  11.747  0.00  0.00     0.069 C 
HETATM    5  C   UNK N   1      35.720  15.596  11.835  0.00  0.00     0.039 C 
HETATM    6  C   UNK N   1      36.209  13.624  10.509  0.00  0.00     0.039 C 
ENDROOT
BRANCH   1   7
HETATM    7  N   UNK N   1      34.231  15.903   8.650  0.00  0.00    -0.378 N 
HETATM    8  C   UNK N   1      33.488  17.113   9.051  0.00  0.00     0.143 C 
HETATM    9  C   UNK N   1      33.537  18.197   7.985  0.00  0.00     0.143 C 
HETATM   10  N   UNK N   1      33.142  17.500   6.812  0.00  0.00    -0.378 N 
HETATM   11  C   UNK N   1      34.144  16.613   6.283  0.00  0.00     0.143 C 
HETATM   12  C   UNK N   1      34.265  15.451   7.259  0.00  0.00     0.143 C 
BRANCH  10  13
HETATM   13  C   UNK N   1      31.772  17.138   6.691  0.00  0.00     0.030 C 
HETATM   14  C   UNK N   1      31.348  16.488   5.536  0.00  0.00     0.031 C 
HETATM   15  C   UNK N   1      30.015  16.288   5.307  0.00  0.00     0.032 C 
HETATM   16  C   UNK N   1      29.059  16.738   6.213  0.00  0.00     0.045 C 
HETATM   17  C   UNK N   1      29.468  17.269   7.447  0.00  0.00     0.032 C 
HETATM   18  C   UNK N   1      30.835  17.450   7.696  0.00  0.00     0.031 C 
BRANCH  16  19
HETATM   19  N   UNK N   1      27.736  16.974   5.721  0.00  0.00    -0.258 N 
HETATM   20  C   UNK N   1      27.282  18.157   5.235  0.00  0.00     0.349 A 
HETATM   21  O   UNK N   1      27.978  19.133   5.024  0.00  0.00    -0.244 OA
HETATM   22  N   UNK N   1      25.939  18.125   5.093  0.00  0.00    -0.237 N 
HETATM   23  N   UNK N   1      25.535  16.914   5.452  0.00  0.00    -0.289 N 
HETATM   24  C   UNK N   1      26.629  16.215   5.855  0.00  0.00     0.210 A 
ATOM     25  HN  UNK N   1      24.575  16.569   5.430  1.00  0.00     0.188 HD
BRANCH  22  26
HETATM   26  C   UNK N   1      25.036  19.221   4.696  0.00  0.00     0.108 C 
HETATM   27  C   UNK N   1      23.566  18.808   4.690  0.00  0.00     0.034 C 
BRANCH  26  28
HETATM   28  C   UNK N   1      25.368  19.712   3.298  0.00  0.00     0.022 C 
HETATM   29  C   UNK N   1      24.233  20.568   2.775  0.00  0.00     0.007 C 
ENDBRANCH  26  28
ENDBRANCH  22  26
ENDBRANCH  16  19
ENDBRANCH  10  13
ENDBRANCH   1   7
BRANCH   4  30
HETATM   30  O   UNK N   1      36.281  13.553  12.869  0.00  0.00    -0.349 OA
BRANCH  30  31
HETATM   31  C   UNK N   1      36.518  14.252  14.018  0.00  0.00     0.209 C 
BRANCH  31  32
HETATM   32  C   UNK N   1      36.921  13.206  15.042  0.00  0.00     0.173 C 
HETATM   33  O   UNK N   1      35.829  12.916  15.856  0.00  0.00    -0.340 OA
HETATM   34  C   UNK N   1      35.803  11.520  15.949  0.00  0.00     0.213 C 
HETATM   35  O   UNK N   1      36.965  10.979  15.348  0.00  0.00    -0.347 OA
HETATM   36  C   UNK N   1      37.389  11.947  14.445  0.00  0.00     0.206 C 
BRANCH  34  37
HETATM   37  C   UNK N   1      34.542  11.011  15.226  0.00  0.00     0.224 C 
BRANCH  37  38
HETATM   38  N   UNK N   1      34.899  10.093  14.151  0.00  0.00    -0.281 N 
HETATM   39  N   UNK N   1      35.401   8.886  14.317  0.00  0.00    -0.293 N 
HETATM   40  C   UNK N   1      35.482   8.330  13.092  0.00  0.00     0.198 A 
ATOM     41  HN  UNK N   1      35.673   8.455  15.201  1.00  0.00     0.188 HD
HETATM   42  N   UNK N   1      35.026   9.189  12.152  0.00  0.00    -0.346 N 
HETATM   43  C   UNK N   1      34.664  10.286  12.845  0.00  0.00     0.201 A 
ATOM     44  HN  UNK N   1      34.968   9.039  11.145  1.00  0.00     0.167 HD
ENDBRANCH  37  38
ENDBRANCH  34  37
BRANCH  34  45
HETATM   45  C   UNK N   1      35.789  11.107  17.411  0.00  0.00     0.027 A 
HETATM   46  C   UNK N   1      35.398  12.019  18.418  0.00  0.00     0.047 A 
HETATM   47 Cl   UNK N   1      34.925  13.672  18.041  0.00  0.00    -0.084 Cl
HETATM   48  C   UNK N   1      35.363  11.614  19.753  0.00  0.00     0.048 A 
HETATM   49  C   UNK N   1      35.712  10.312  20.110  0.00  0.00     0.035 A 
HETATM   50 Cl   UNK N   1      35.650   9.828  21.790  0.00  0.00    -0.084 Cl
HETATM   51  C   UNK N   1      36.104   9.401  19.127  0.00  0.00     0.024 A 
HETATM   52  C   UNK N   1      36.141   9.794  17.785  0.00  0.00     0.016 A 
ENDBRANCH  34  45
ENDBRANCH  31  32
ENDBRANCH  30  31
ENDBRANCH   4  30
TORSDOF 11
ENDMDL
MODEL 6
REMARK VINA RESULT:      -8.7      3.945      6.102
REMARK  11 active torsions:
REMARK  status: ('A' for Active; 'I' for Inactive)
REMARK    1  A    between atoms: O_5  and  C_27 
REMARK    2  A    between atoms: O_5  and  C_34 
REMARK    3  A    between atoms: N_7  and  C_28 
REMARK    4  A    between atoms: N_8  and  C_29 
REMARK    5  A    between atoms: N_9  and  C_25 
REMARK    6  A    between atoms: N_10  and  C_39 
REMARK    7  A    between atoms: N_13  and  C_45 
REMARK    8  A    between atoms: C_18  and  C_25 
REMARK    9  A    between atoms: C_18  and  C_26 
REMARK   10  A    between atoms: C_19  and  C_27 
REMARK   11  A    between atoms: C_45  and  C_48 
ROOT
HETATM    1  C   UNK N   1      30.683  17.329   7.148  0.00  0.00     0.030 C 
HETATM    2  C   UNK N   1      30.463  16.850   5.856  0.00  0.00     0.032 C 
HETATM    3  C   UNK N   1      29.607  17.557   8.014  0.00  0.00     0.032 C 
HETATM    4  C   UNK N   1      28.188  16.426   6.477  0.00  0.00     0.069 C 
HETATM    5  C   UNK N   1      29.209  16.380   5.526  0.00  0.00     0.039 C 
HETATM    6  C   UNK N   1      28.354  17.121   7.672  0.00  0.00     0.039 C 
ENDROOT
BRANCH   1   7
HETATM    7  N   UNK N   1      31.893  16.962   7.743  0.00  0.00    -0.378 N 
HETATM    8  C   UNK N   1      32.343  15.599   7.401  0.00  0.00     0.143 C 
HETATM    9  C   UNK N   1      33.673  15.600   6.662  0.00  0.00     0.143 C 
HETATM   10  N   UNK N   1      34.491  16.411   7.493  0.00  0.00    -0.378 N 
HETATM   11  C   UNK N   1      34.193  17.817   7.431  0.00  0.00     0.143 C 
HETATM   12  C   UNK N   1      32.844  18.012   8.109  0.00  0.00     0.143 C 
BRANCH  10  13
HETATM   13  C   UNK N   1      34.930  15.856   8.728  0.00  0.00     0.030 C 
HETATM   14  C   UNK N   1      35.432  14.558   8.741  0.00  0.00     0.031 C 
HETATM   15  C   UNK N   1      35.692  13.931   9.927  0.00  0.00     0.032 C 
HETATM   16  C   UNK N   1      35.451  14.569  11.140  0.00  0.00     0.045 C 
HETATM   17  C   UNK N   1      35.078  15.923  11.151  0.00  0.00     0.032 C 
HETATM   18  C   UNK N   1      34.837  16.577   9.935  0.00  0.00     0.031 C 
BRANCH  16  19
HETATM   19  N   UNK N   1      35.242  13.747  12.294  0.00  0.00    -0.258 N 
HETATM   20  C   UNK N   1      35.806  13.953  13.511  0.00  0.00     0.349 A 
HETATM   21  O   UNK N   1      36.449  14.939  13.820  0.00  0.00    -0.244 OA
HETATM   22  N   UNK N   1      35.618  12.876  14.305  0.00  0.00    -0.237 N 
HETATM   23  N   UNK N   1      34.908  11.996  13.614  0.00  0.00    -0.289 N 
HETATM   24  C   UNK N   1      34.693  12.518  12.376  0.00  0.00     0.210 A 
ATOM     25  HN  UNK N   1      34.580  11.090  13.949  1.00  0.00     0.188 HD
BRANCH  22  26
HETATM   26  C   UNK N   1      36.149  12.637  15.660  0.00  0.00     0.108 C 
HETATM   27  C   UNK N   1      36.539  11.180  15.898  0.00  0.00     0.034 C 
BRANCH  26  28
HETATM   28  C   UNK N   1      35.118  13.001  16.713  0.00  0.00     0.022 C 
HETATM   29  C   UNK N   1      35.269  12.088  17.913  0.00  0.00     0.007 C 
ENDBRANCH  26  28
ENDBRANCH  22  26
ENDBRANCH  16  19
ENDBRANCH  10  13
ENDBRANCH   1   7
BRANCH   4  30
HETATM   30  O   UNK N   1      27.002  15.880   6.185  0.00  0.00    -0.349 OA
BRANCH  30  31
HETATM   31  C   UNK N   1      26.977  14.768   5.393  0.00  0.00     0.209 C 
BRANCH  31  32
HETATM   32  C   UNK N   1      26.178  13.742   6.174  0.00  0.00     0.173 C 
HETATM   33  O   UNK N   1      25.533  14.374   7.236  0.00  0.00    -0.340 OA
HETATM   34  C   UNK N   1      24.226  13.875   7.219  0.00  0.00     0.213 C 
HETATM   35  O   UNK N   1      24.127  12.825   6.275  0.00  0.00    -0.347 OA
HETATM   36  C   UNK N   1      25.158  13.053   5.371  0.00  0.00     0.206 C 
BRANCH  34  37
HETATM   37  C   UNK N   1      23.274  15.026   6.839  0.00  0.00     0.224 C 
BRANCH  37  38
HETATM   38  N   UNK N   1      23.044  15.050   5.400  0.00  0.00    -0.281 N 
HETATM   39  N   UNK N   1      22.192  14.281   4.753  0.00  0.00    -0.293 N 
HETATM   40  C   UNK N   1      22.200  14.691   3.469  0.00  0.00     0.198 A 
ATOM     41  HN  UNK N   1      21.633  13.524   5.147  1.00  0.00     0.188 HD
HETATM   42  N   UNK N   1      23.057  15.724   3.307  0.00  0.00    -0.346 N 
HETATM   43  C   UNK N   1      23.572  15.930   4.536  0.00  0.00     0.201 A 
ATOM     44  HN  UNK N   1      23.267  16.234   2.449  1.00  0.00     0.167 HD
ENDBRANCH  37  38
ENDBRANCH  34  37
BRANCH  34  45
HETATM   45  C   UNK N   1      23.876  13.318   8.588  0.00  0.00     0.027 A 
HETATM   46  C   UNK N   1      22.553  12.927   8.895  0.00  0.00     0.047 A 
HETATM   47 Cl   UNK N   1      21.246  13.077   7.727  0.00  0.00    -0.084 Cl
HETATM   48  C   UNK N   1      22.255  12.389  10.148  0.00  0.00     0.048 A 
HETATM   49  C   UNK N   1      23.253  12.232  11.109  0.00  0.00     0.035 A 
HETATM   50 Cl   UNK N   1      22.854  11.546  12.668  0.00  0.00    -0.084 Cl
HETATM   51  C   UNK N   1      24.565  12.616  10.821  0.00  0.00     0.024 A 
HETATM   52  C   UNK N   1      24.877  13.154   9.569  0.00  0.00     0.016 A 
ENDBRANCH  34  45
ENDBRANCH  31  32
ENDBRANCH  30  31
ENDBRANCH   4  30
TORSDOF 11
ENDMDL
MODEL 7
REMARK VINA RESULT:      -8.7      1.937      2.544
REMARK  11 active torsions:
REMARK  status: ('A' for Active; 'I' for Inactive)
REMARK    1  A    between atoms: O_5  and  C_27 
REMARK    2  A    between atoms: O_5  and  C_34 
REMARK    3  A    between atoms: N_7  and  C_28 
REMARK    4  A    between atoms: N_8  and  C_29 
REMARK    5  A    between atoms: N_9  and  C_25 
REMARK    6  A    between atoms: N_10  and  C_39 
REMARK    7  A    between atoms: N_13  and  C_45 
REMARK    8  A    between atoms: C_18  and  C_25 
REMARK    9  A    between atoms: C_18  and  C_26 
REMARK   10  A    between atoms: C_19  and  C_27 
REMARK   11  A    between atoms: C_45  and  C_48 
ROOT
HETATM    1  C   UNK N   1      33.868  15.930   8.564  0.00  0.00     0.030 C 
HETATM    2  C   UNK N   1      33.093  15.085   7.768  0.00  0.00     0.032 C 
HETATM    3  C   UNK N   1      33.606  17.305   8.605  0.00  0.00     0.032 C 
HETATM    4  C   UNK N   1      31.574  16.908   7.435  0.00  0.00     0.069 C 
HETATM    5  C   UNK N   1      31.930  15.577   7.214  0.00  0.00     0.039 C 
HETATM    6  C   UNK N   1      32.467  17.799   8.025  0.00  0.00     0.039 C 
ENDROOT
BRANCH   1   7
HETATM    7  N   UNK N   1      34.400  15.364   9.725  0.00  0.00    -0.378 N 
HETATM    8  C   UNK N   1      34.231  13.900   9.814  0.00  0.00     0.143 C 
HETATM    9  C   UNK N   1      35.565  13.169   9.852  0.00  0.00     0.143 C 
HETATM   10  N   UNK N   1      36.264  13.849  10.885  0.00  0.00    -0.378 N 
HETATM   11  C   UNK N   1      36.733  15.160  10.522  0.00  0.00     0.143 C 
HETATM   12  C   UNK N   1      35.503  16.049  10.400  0.00  0.00     0.143 C 
BRANCH  10  13
HETATM   13  C   UNK N   1      35.850  13.614  12.225  0.00  0.00     0.030 C 
HETATM   14  C   UNK N   1      36.382  14.402  13.241  0.00  0.00     0.031 C 
HETATM   15  C   UNK N   1      36.148  14.089  14.551  0.00  0.00     0.032 C 
HETATM   16  C   UNK N   1      35.386  12.976  14.895  0.00  0.00     0.045 C 
HETATM   17  C   UNK N   1      34.725  12.250  13.890  0.00  0.00     0.032 C 
HETATM   18  C   UNK N   1      34.941  12.585  12.547  0.00  0.00     0.031 C 
BRANCH  16  19
HETATM   19  N   UNK N   1      35.589  12.405  16.191  0.00  0.00    -0.258 N 
HETATM   20  C   UNK N   1      36.215  11.225  16.436  0.00  0.00     0.349 A 
HETATM   21  O   UNK N   1      36.807  10.568  15.601  0.00  0.00    -0.244 OA
HETATM   22  N   UNK N   1      36.022  10.847  17.718  0.00  0.00    -0.237 N 
HETATM   23  N   UNK N   1      35.305  11.795  18.305  0.00  0.00    -0.289 N 
HETATM   24  C   UNK N   1      35.022  12.740  17.368  0.00  0.00     0.210 A 
ATOM     25  HN  UNK N   1      35.016  11.814  19.283  1.00  0.00     0.188 HD
BRANCH  22  26
HETATM   26  C   UNK N   1      36.436   9.592  18.373  0.00  0.00     0.108 C 
HETATM   27  C   UNK N   1      35.518   8.418  18.043  0.00  0.00     0.034 C 
BRANCH  26  28
HETATM   28  C   UNK N   1      36.438   9.748  19.883  0.00  0.00     0.022 C 
HETATM   29  C   UNK N   1      37.832   9.496  20.420  0.00  0.00     0.007 C 
ENDBRANCH  26  28
ENDBRANCH  22  26
ENDBRANCH  16  19
ENDBRANCH  10  13
ENDBRANCH   1   7
BRANCH   4  30
HETATM   30  O   UNK N   1      30.397  17.352   6.979  0.00  0.00    -0.349 OA
BRANCH  30  31
HETATM   31  C   UNK N   1      29.468  17.774   7.886  0.00  0.00     0.209 C 
BRANCH  31  32
HETATM   32  C   UNK N   1      28.126  17.435   7.264  0.00  0.00     0.173 C 
HETATM   33  O   UNK N   1      27.836  18.362   6.264  0.00  0.00    -0.340 OA
HETATM   34  C   UNK N   1      27.379  17.601   5.182  0.00  0.00     0.213 C 
HETATM   35  O   UNK N   1      27.224  16.251   5.579  0.00  0.00    -0.347 OA
HETATM   36  C   UNK N   1      28.074  16.093   6.667  0.00  0.00     0.206 C 
BRANCH  34  37
HETATM   37  C   UNK N   1      28.413  17.707   4.045  0.00  0.00     0.224 C 
BRANCH  37  38
HETATM   38  N   UNK N   1      28.558  16.429   3.359  0.00  0.00    -0.281 N 
HETATM   39  N   UNK N   1      27.618  15.834   2.652  0.00  0.00    -0.293 N 
HETATM   40  C   UNK N   1      28.183  14.744   2.098  0.00  0.00     0.198 A 
ATOM     41  HN  UNK N   1      26.651  16.140   2.543  1.00  0.00     0.188 HD
HETATM   42  N   UNK N   1      29.485  14.653   2.453  0.00  0.00    -0.346 N 
HETATM   43  C   UNK N   1      29.693  15.725   3.243  0.00  0.00     0.201 A 
ATOM     44  HN  UNK N   1      30.157  13.935   2.184  1.00  0.00     0.167 HD
ENDBRANCH  37  38
ENDBRANCH  34  37
BRANCH  34  45
HETATM   45  C   UNK N   1      26.025  18.121   4.730  0.00  0.00     0.027 A 
HETATM   46  C   UNK N   1      25.868  19.461   4.309  0.00  0.00     0.047 A 
HETATM   47 Cl   UNK N   1      27.213  20.596   4.300  0.00  0.00    -0.084 Cl
HETATM   48  C   UNK N   1      24.624  19.914   3.868  0.00  0.00     0.048 A 
HETATM   49  C   UNK N   1      23.525  19.057   3.839  0.00  0.00     0.035 A 
HETATM   50 Cl   UNK N   1      21.979  19.648   3.273  0.00  0.00    -0.084 Cl
HETATM   51  C   UNK N   1      23.664  17.731   4.254  0.00  0.00     0.024 A 
HETATM   52  C   UNK N   1      24.906  17.263   4.696  0.00  0.00     0.016 A 
ENDBRANCH  34  45
ENDBRANCH  31  32
ENDBRANCH  30  31
ENDBRANCH   4  30
TORSDOF 11
ENDMDL
MODEL 8
REMARK VINA RESULT:      -8.6      2.810      5.185
REMARK  11 active torsions:
REMARK  status: ('A' for Active; 'I' for Inactive)
REMARK    1  A    between atoms: O_5  and  C_27 
REMARK    2  A    between atoms: O_5  and  C_34 
REMARK    3  A    between atoms: N_7  and  C_28 
REMARK    4  A    between atoms: N_8  and  C_29 
REMARK    5  A    between atoms: N_9  and  C_25 
REMARK    6  A    between atoms: N_10  and  C_39 
REMARK    7  A    between atoms: N_13  and  C_45 
REMARK    8  A    between atoms: C_18  and  C_25 
REMARK    9  A    between atoms: C_18  and  C_26 
REMARK   10  A    between atoms: C_19  and  C_27 
REMARK   11  A    between atoms: C_45  and  C_48 
ROOT
HETATM    1  C   UNK N   1      30.650  17.205   7.013  0.00  0.00     0.030 C 
HETATM    2  C   UNK N   1      30.550  16.776   5.689  0.00  0.00     0.032 C 
HETATM    3  C   UNK N   1      29.511  17.276   7.825  0.00  0.00     0.032 C 
HETATM    4  C   UNK N   1      28.301  16.093   6.154  0.00  0.00     0.069 C 
HETATM    5  C   UNK N   1      29.371  16.201   5.264  0.00  0.00     0.039 C 
HETATM    6  C   UNK N   1      28.329  16.736   7.389  0.00  0.00     0.039 C 
ENDROOT
BRANCH   1   7
HETATM    7  N   UNK N   1      31.857  16.930   7.660  0.00  0.00    -0.378 N 
HETATM    8  C   UNK N   1      32.533  15.708   7.181  0.00  0.00     0.143 C 
HETATM    9  C   UNK N   1      33.895  16.006   6.572  0.00  0.00     0.143 C 
HETATM   10  N   UNK N   1      34.520  16.794   7.574  0.00  0.00    -0.378 N 
HETATM   11  C   UNK N   1      34.016  18.138   7.674  0.00  0.00     0.143 C 
HETATM   12  C   UNK N   1      32.609  18.039   8.248  0.00  0.00     0.143 C 
BRANCH  10  13
HETATM   13  C   UNK N   1      34.952  16.133   8.758  0.00  0.00     0.030 C 
HETATM   14  C   UNK N   1      35.357  14.804   8.675  0.00  0.00     0.031 C 
HETATM   15  C   UNK N   1      35.604  14.087   9.813  0.00  0.00     0.032 C 
HETATM   16  C   UNK N   1      35.446  14.664  11.070  0.00  0.00     0.045 C 
HETATM   17  C   UNK N   1      35.174  16.038  11.174  0.00  0.00     0.032 C 
HETATM   18  C   UNK N   1      34.947  16.782  10.009  0.00  0.00     0.031 C 
BRANCH  16  19
HETATM   19  N   UNK N   1      35.210  13.789  12.177  0.00  0.00    -0.258 N 
HETATM   20  C   UNK N   1      35.792  13.901  13.399  0.00  0.00     0.349 A 
HETATM   21  O   UNK N   1      36.479  14.840  13.756  0.00  0.00    -0.244 OA
HETATM   22  N   UNK N   1      35.564  12.791  14.134  0.00  0.00    -0.237 N 
HETATM   23  N   UNK N   1      34.810  11.983  13.402  0.00  0.00    -0.289 N 
HETATM   24  C   UNK N   1      34.609  12.581  12.197  0.00  0.00     0.210 A 
ATOM     25  HN  UNK N   1      34.447  11.074  13.689  1.00  0.00     0.188 HD
BRANCH  22  26
HETATM   26  C   UNK N   1      36.093  12.454  15.468  0.00  0.00     0.108 C 
HETATM   27  C   UNK N   1      36.846  11.126  15.492  0.00  0.00     0.034 C 
BRANCH  26  28
HETATM   28  C   UNK N   1      34.968  12.349  16.482  0.00  0.00     0.022 C 
HETATM   29  C   UNK N   1      35.053  13.503  17.460  0.00  0.00     0.007 C 
ENDBRANCH  26  28
ENDBRANCH  22  26
ENDBRANCH  16  19
ENDBRANCH  10  13
ENDBRANCH   1   7
BRANCH   4  30
HETATM   30  O   UNK N   1      27.195  15.446   5.767  0.00  0.00    -0.349 OA
BRANCH  30  31
HETATM   31  C   UNK N   1      26.361  14.955   6.730  0.00  0.00     0.209 C 
BRANCH  31  32
HETATM   32  C   UNK N   1      25.048  15.689   6.529  0.00  0.00     0.173 C 
HETATM   33  O   UNK N   1      24.994  16.186   5.228  0.00  0.00    -0.340 OA
HETATM   34  C   UNK N   1      23.711  15.869   4.769  0.00  0.00     0.213 C 
HETATM   35  O   UNK N   1      22.938  15.347   5.833  0.00  0.00    -0.347 OA
HETATM   36  C   UNK N   1      23.863  14.846   6.742  0.00  0.00     0.206 C 
BRANCH  34  37
HETATM   37  C   UNK N   1      23.845  14.824   3.644  0.00  0.00     0.224 C 
BRANCH  37  38
HETATM   38  N   UNK N   1      25.198  14.821   3.101  0.00  0.00    -0.281 N 
HETATM   39  N   UNK N   1      26.161  13.998   3.465  0.00  0.00    -0.293 N 
HETATM   40  C   UNK N   1      27.208  14.247   2.654  0.00  0.00     0.198 A 
ATOM     41  HN  UNK N   1      26.122  13.306   4.213  1.00  0.00     0.188 HD
HETATM   42  N   UNK N   1      26.903  15.228   1.774  0.00  0.00    -0.346 N 
HETATM   43  C   UNK N   1      25.634  15.568   2.076  0.00  0.00     0.201 A 
ATOM     44  HN  UNK N   1      27.498  15.621   1.045  1.00  0.00     0.167 HD
ENDBRANCH  37  38
ENDBRANCH  34  37
BRANCH  34  45
HETATM   45  C   UNK N   1      23.029  17.126   4.258  0.00  0.00     0.027 A 
HETATM   46  C   UNK N   1      23.770  18.304   4.010  0.00  0.00     0.047 A 
HETATM   47 Cl   UNK N   1      25.505  18.385   4.292  0.00  0.00    -0.084 Cl
HETATM   48  C   UNK N   1      23.132  19.441   3.513  0.00  0.00     0.048 A 
HETATM   49  C   UNK N   1      21.762  19.431   3.255  0.00  0.00     0.035 A 
HETATM   50 Cl   UNK N   1      20.988  20.867   2.623  0.00  0.00    -0.084 Cl
HETATM   51  C   UNK N   1      21.015  18.275   3.498  0.00  0.00     0.024 A 
HETATM   52  C   UNK N   1      21.643  17.129   3.994  0.00  0.00     0.016 A 
ENDBRANCH  34  45
ENDBRANCH  31  32
ENDBRANCH  30  31
ENDBRANCH   4  30
TORSDOF 11
ENDMDL
MODEL 9
REMARK VINA RESULT:      -8.6      3.139      5.801
REMARK  11 active torsions:
REMARK  status: ('A' for Active; 'I' for Inactive)
REMARK    1  A    between atoms: O_5  and  C_27 
REMARK    2  A    between atoms: O_5  and  C_34 
REMARK    3  A    between atoms: N_7  and  C_28 
REMARK    4  A    between atoms: N_8  and  C_29 
REMARK    5  A    between atoms: N_9  and  C_25 
REMARK    6  A    between atoms: N_10  and  C_39 
REMARK    7  A    between atoms: N_13  and  C_45 
REMARK    8  A    between atoms: C_18  and  C_25 
REMARK    9  A    between atoms: C_18  and  C_26 
REMARK   10  A    between atoms: C_19  and  C_27 
REMARK   11  A    between atoms: C_45  and  C_48 
ROOT
HETATM    1  C   UNK N   1      30.182  16.525   6.558  0.00  0.00     0.030 C 
HETATM    2  C   UNK N   1      29.088  16.973   7.300  0.00  0.00     0.032 C 
HETATM    3  C   UNK N   1      30.215  16.694   5.169  0.00  0.00     0.032 C 
HETATM    4  C   UNK N   1      28.318  18.117   5.340  0.00  0.00     0.069 C 
HETATM    5  C   UNK N   1      28.160  17.789   6.687  0.00  0.00     0.039 C 
HETATM    6  C   UNK N   1      29.273  17.476   4.554  0.00  0.00     0.039 C 
ENDROOT
BRANCH   1   7
HETATM    7  N   UNK N   1      31.415  16.533   7.215  0.00  0.00    -0.378 N 
HETATM    8  C   UNK N   1      32.570  16.289   6.329  0.00  0.00     0.143 C 
HETATM    9  C   UNK N   1      33.528  17.470   6.296  0.00  0.00     0.143 C 
HETATM   10  N   UNK N   1      33.755  17.728   7.674  0.00  0.00    -0.378 N 
HETATM   11  C   UNK N   1      32.649  18.349   8.353  0.00  0.00     0.143 C 
HETATM   12  C   UNK N   1      31.548  17.302   8.452  0.00  0.00     0.143 C 
BRANCH  10  13
HETATM   13  C   UNK N   1      34.571  16.808   8.390  0.00  0.00     0.030 C 
HETATM   14  C   UNK N   1      34.931  15.611   7.778  0.00  0.00     0.031 C 
HETATM   15  C   UNK N   1      35.558  14.631   8.496  0.00  0.00     0.032 C 
HETATM   16  C   UNK N   1      35.836  14.803   9.849  0.00  0.00     0.045 C 
HETATM   17  C   UNK N   1      35.609  16.051  10.451  0.00  0.00     0.032 C 
HETATM   18  C   UNK N   1      34.992  17.068   9.710  0.00  0.00     0.031 C 
BRANCH  16  19
HETATM   19  N   UNK N   1      36.000  13.627  10.648  0.00  0.00    -0.258 N 
HETATM   20  C   UNK N   1      35.366  13.387  11.824  0.00  0.00     0.349 A 
HETATM   21  O   UNK N   1      34.471  14.074  12.282  0.00  0.00    -0.244 OA
HETATM   22  N   UNK N   1      35.919  12.326  12.451  0.00  0.00    -0.237 N 
HETATM   23  N   UNK N   1      36.882  11.864  11.665  0.00  0.00    -0.289 N 
HETATM   24  C   UNK N   1      36.948  12.670  10.572  0.00  0.00     0.210 A 
ATOM     25  HN  UNK N   1      37.470  11.050  11.848  1.00  0.00     0.188 HD
BRANCH  22  26
HETATM   26  C   UNK N   1      35.606  11.790  13.788  0.00  0.00     0.108 C 
HETATM   27  C   UNK N   1      36.846  11.317  14.544  0.00  0.00     0.034 C 
BRANCH  26  28
HETATM   28  C   UNK N   1      34.666  10.603  13.685  0.00  0.00     0.022 C 
HETATM   29  C   UNK N   1      33.532  10.763  14.678  0.00  0.00     0.007 C 
ENDBRANCH  26  28
ENDBRANCH  22  26
ENDBRANCH  16  19
ENDBRANCH  10  13
ENDBRANCH   1   7
BRANCH   4  30
HETATM   30  O   UNK N   1      27.471  18.987   4.777  0.00  0.00    -0.349 OA
BRANCH  30  31
HETATM   31  C   UNK N   1      26.188  19.037   5.244  0.00  0.00     0.209 C 
BRANCH  31  32
HETATM   32  C   UNK N   1      25.337  18.469   4.123  0.00  0.00     0.173 C 
HETATM   33  O   UNK N   1      25.248  17.086   4.270  0.00  0.00    -0.340 OA
HETATM   34  C   UNK N   1      23.896  16.784   4.072  0.00  0.00     0.213 C 
HETATM   35  O   UNK N   1      23.206  17.941   3.637  0.00  0.00    -0.347 OA
HETATM   36  C   UNK N   1      23.970  19.010   4.089  0.00  0.00     0.206 C 
BRANCH  34  37
HETATM   37  C   UNK N   1      23.312  16.285   5.407  0.00  0.00     0.224 C 
BRANCH  37  38
HETATM   38  N   UNK N   1      24.240  15.376   6.069  0.00  0.00    -0.281 N 
HETATM   39  N   UNK N   1      25.285  15.744   6.783  0.00  0.00    -0.293 N 
HETATM   40  C   UNK N   1      25.809  14.618   7.308  0.00  0.00     0.198 A 
ATOM     41  HN  UNK N   1      25.631  16.694   6.914  1.00  0.00     0.188 HD
HETATM   42  N   UNK N   1      25.088  13.539   6.927  0.00  0.00    -0.346 N 
HETATM   43  C   UNK N   1      24.108  14.044   6.152  0.00  0.00     0.201 A 
ATOM     44  HN  UNK N   1      25.249  12.562   7.172  1.00  0.00     0.167 HD
ENDBRANCH  37  38
ENDBRANCH  34  37
BRANCH  34  45
HETATM   45  C   UNK N   1      23.764  15.720   2.996  0.00  0.00     0.027 A 
HETATM   46  C   UNK N   1      22.498  15.366   2.478  0.00  0.00     0.047 A 
HETATM   47 Cl   UNK N   1      21.015  16.119   3.055  0.00  0.00    -0.084 Cl
HETATM   48  C   UNK N   1      22.398  14.407   1.469  0.00  0.00     0.048 A 
HETATM   49  C   UNK N   1      23.539  13.788   0.961  0.00  0.00     0.035 A 
HETATM   50 Cl   UNK N   1      23.386  12.596  -0.310  0.00  0.00    -0.084 Cl
HETATM   51  C   UNK N   1      24.797  14.125   1.465  0.00  0.00     0.024 A 
HETATM   52  C   UNK N   1      24.912  15.086   2.475  0.00  0.00     0.016 A 
ENDBRANCH  34  45
ENDBRANCH  31  32
ENDBRANCH  30  31
ENDBRANCH   4  30
TORSDOF 11
ENDMDL
