MODEL 1
REMARK VINA RESULT:      -6.8      0.000      0.000
REMARK  5 active torsions:
REMARK  status: ('A' for Active; 'I' for Inactive)
REMARK    1  A    between atoms: N_3  and  C_12 
REMARK    2  A    between atoms: C_5  and  C_6 
REMARK    3  A    between atoms: C_5  and  C_10 
REMARK    4  A    between atoms: C_6  and  C_9 
REMARK    5  A    between atoms: C_9  and  C_12 
ROOT
HETATM    1  O   UNK N   1      31.860  15.382   7.577  0.00  0.00    -0.366 OA
HETATM    2  N   UNK N   1      36.264  14.626  12.814  0.00  0.00    -0.191 NA
HETATM    3  C   UNK N   1      32.536  16.659   7.695  0.00  0.00     0.116 C 
HETATM    4  C   UNK N   1      33.659  16.338   8.577  0.00  0.00    -0.011 A 
HETATM    5  C   UNK N   1      33.346  15.181   9.212  0.00  0.00    -0.023 A 
HETATM    6  C   UNK N   1      32.263  14.497   8.584  0.00  0.00     0.209 C 
HETATM    7  C   UNK N   1      34.593  17.204   9.129  0.00  0.00     0.012 A 
HETATM    8  C   UNK N   1      33.911  14.809  10.396  0.00  0.00     0.032 A 
HETATM    9  C   UNK N   1      35.222  16.848  10.322  0.00  0.00     0.023 A 
HETATM   10  C   UNK N   1      34.862  15.645  10.945  0.00  0.00     0.045 A 
HETATM   11  C   UNK N   1      35.650  15.110  11.971  0.00  0.00     0.099 C 
ENDROOT
BRANCH   3  12
HETATM   12  C   UNK N   1      31.822  17.683   8.647  0.00  0.00     0.050 C 
BRANCH  12  13
HETATM   13  C   UNK N   1      30.335  17.459   9.189  0.00  0.00     0.034 C 
BRANCH  13  14
HETATM   14  C   UNK N   1      29.173  18.499   9.436  0.00  0.00     0.271 C 
BRANCH  14  15
HETATM   15  N   UNK N   1      27.979  18.392   8.573  0.00  0.00     0.080 N 
HETATM   16  C   UNK N   1      28.073  19.352   7.483  0.00  0.00     0.309 C 
HETATM   17  C   UNK N   1      27.864  17.075   7.968  0.00  0.00     0.309 C 
ENDBRANCH  14  15
ENDBRANCH  13  14
ENDBRANCH  12  13
ENDBRANCH   3  12
BRANCH   3  18
HETATM   18  C   UNK N   1      32.227  17.295   6.385  0.00  0.00    -0.019 A 
HETATM   19  C   UNK N   1      30.987  17.183   5.750  0.00  0.00     0.013 A 
HETATM   20  C   UNK N   1      30.937  17.186   4.348  0.00  0.00     0.043 A 
HETATM   21  C   UNK N   1      32.124  17.247   3.595  0.00  0.00     0.116 A 
HETATM   22  F   UNK N   1      32.099  17.232   2.251  0.00  0.00    -0.206 F 
HETATM   23  C   UNK N   1      33.345  17.365   4.219  0.00  0.00     0.043 A 
HETATM   24  C   UNK N   1      33.388  17.376   5.581  0.00  0.00     0.013 A 
ENDBRANCH   3  18
TORSDOF 5
ENDMDL
MODEL 2
REMARK VINA RESULT:      -6.7      3.272      4.794
REMARK  5 active torsions:
REMARK  status: ('A' for Active; 'I' for Inactive)
REMARK    1  A    between atoms: N_3  and  C_12 
REMARK    2  A    between atoms: C_5  and  C_6 
REMARK    3  A    between atoms: C_5  and  C_10 
REMARK    4  A    between atoms: C_6  and  C_9 
REMARK    5  A    between atoms: C_9  and  C_12 
ROOT
HETATM    1  O   UNK N   1      28.970  16.686   7.032  0.00  0.00    -0.366 OA
HETATM    2  N   UNK N   1      35.283  18.814   8.769  0.00  0.00    -0.191 NA
HETATM    3  C   UNK N   1      29.762  16.557   5.825  0.00  0.00     0.116 C 
HETATM    4  C   UNK N   1      31.128  16.701   6.331  0.00  0.00    -0.011 A 
HETATM    5  C   UNK N   1      31.041  17.296   7.546  0.00  0.00    -0.023 A 
HETATM    6  C   UNK N   1      29.715  17.256   8.072  0.00  0.00     0.209 C 
HETATM    7  C   UNK N   1      32.310  16.770   5.605  0.00  0.00     0.012 A 
HETATM    8  C   UNK N   1      32.075  17.981   8.113  0.00  0.00     0.032 A 
HETATM    9  C   UNK N   1      33.406  17.431   6.162  0.00  0.00     0.023 A 
HETATM   10  C   UNK N   1      33.266  18.036   7.419  0.00  0.00     0.045 A 
HETATM   11  C   UNK N   1      34.392  18.456   8.137  0.00  0.00     0.099 C 
ENDROOT
BRANCH   3  12
HETATM   12  C   UNK N   1      29.755  17.831   4.907  0.00  0.00     0.050 C 
BRANCH  12  13
HETATM   13  C   UNK N   1      28.559  18.890   4.919  0.00  0.00     0.034 C 
BRANCH  13  14
HETATM   14  C   UNK N   1      27.287  19.001   3.990  0.00  0.00     0.271 C 
BRANCH  14  15
HETATM   15  N   UNK N   1      26.029  19.447   4.622  0.00  0.00     0.080 N 
HETATM   16  C   UNK N   1      26.300  20.551   5.531  0.00  0.00     0.309 C 
HETATM   17  C   UNK N   1      25.072  19.931   3.641  0.00  0.00     0.309 C 
ENDBRANCH  14  15
ENDBRANCH  13  14
ENDBRANCH  12  13
ENDBRANCH   3  12
BRANCH   3  18
HETATM   18  C   UNK N   1      28.915  15.658   4.994  0.00  0.00    -0.019 A 
HETATM   19  C   UNK N   1      29.060  15.527   3.611  0.00  0.00     0.013 A 
HETATM   20  C   UNK N   1      27.927  15.253   2.830  0.00  0.00     0.043 A 
HETATM   21  C   UNK N   1      26.657  15.165   3.428  0.00  0.00     0.116 A 
HETATM   22  F   UNK N   1      25.557  14.923   2.695  0.00  0.00    -0.206 F 
HETATM   23  C   UNK N   1      26.514  15.286   4.792  0.00  0.00     0.043 A 
HETATM   24  C   UNK N   1      27.619  15.538   5.548  0.00  0.00     0.013 A 
ENDBRANCH   3  18
TORSDOF 5
ENDMDL
MODEL 3
REMARK VINA RESULT:      -6.6      3.361      6.208
REMARK  5 active torsions:
REMARK  status: ('A' for Active; 'I' for Inactive)
REMARK    1  A    between atoms: N_3  and  C_12 
REMARK    2  A    between atoms: C_5  and  C_6 
REMARK    3  A    between atoms: C_5  and  C_10 
REMARK    4  A    between atoms: C_6  and  C_9 
REMARK    5  A    between atoms: C_9  and  C_12 
ROOT
HETATM    1  O   UNK N   1      31.863  15.462   7.261  0.00  0.00    -0.366 OA
HETATM    2  N   UNK N   1      34.683  13.754   1.218  0.00  0.00    -0.191 NA
HETATM    3  C   UNK N   1      31.854  16.682   6.478  0.00  0.00     0.116 C 
HETATM    4  C   UNK N   1      32.148  16.190   5.131  0.00  0.00    -0.011 A 
HETATM    5  C   UNK N   1      32.702  14.960   5.269  0.00  0.00    -0.023 A 
HETATM    6  C   UNK N   1      32.493  14.418   6.573  0.00  0.00     0.209 C 
HETATM    7  C   UNK N   1      32.372  16.928   3.976  0.00  0.00     0.012 A 
HETATM    8  C   UNK N   1      33.491  14.390   4.315  0.00  0.00     0.032 A 
HETATM    9  C   UNK N   1      33.146  16.370   2.958  0.00  0.00     0.023 A 
HETATM   10  C   UNK N   1      33.702  15.098   3.149  0.00  0.00     0.045 A 
HETATM   11  C   UNK N   1      34.236  14.384   2.070  0.00  0.00     0.099 C 
ENDROOT
BRANCH   3  12
HETATM   12  C   UNK N   1      33.138  17.570   6.649  0.00  0.00     0.050 C 
BRANCH  12  13
HETATM   13  C   UNK N   1      34.371  17.127   7.565  0.00  0.00     0.034 C 
BRANCH  13  14
HETATM   14  C   UNK N   1      34.573  17.243   9.126  0.00  0.00     0.271 C 
BRANCH  14  15
HETATM   15  N   UNK N   1      34.816  15.989   9.868  0.00  0.00     0.080 N 
HETATM   16  C   UNK N   1      35.341  14.976   8.963  0.00  0.00     0.309 C 
HETATM   17  C   UNK N   1      35.800  16.165  10.923  0.00  0.00     0.309 C 
ENDBRANCH  14  15
ENDBRANCH  13  14
ENDBRANCH  12  13
ENDBRANCH   3  12
BRANCH   3  18
HETATM   18  C   UNK N   1      30.879  17.523   7.225  0.00  0.00    -0.019 A 
HETATM   19  C   UNK N   1      31.030  17.859   8.573  0.00  0.00     0.013 A 
HETATM   20  C   UNK N   1      29.884  18.034   9.363  0.00  0.00     0.043 A 
HETATM   21  C   UNK N   1      28.606  17.820   8.817  0.00  0.00     0.116 A 
HETATM   22  F   UNK N   1      27.497  17.963   9.564  0.00  0.00    -0.206 F 
HETATM   23  C   UNK N   1      28.455  17.496   7.488  0.00  0.00     0.043 A 
HETATM   24  C   UNK N   1      29.570  17.341   6.721  0.00  0.00     0.013 A 
ENDBRANCH   3  18
TORSDOF 5
ENDMDL
MODEL 4
REMARK VINA RESULT:      -6.6      4.100      8.017
REMARK  5 active torsions:
REMARK  status: ('A' for Active; 'I' for Inactive)
REMARK    1  A    between atoms: N_3  and  C_12 
REMARK    2  A    between atoms: C_5  and  C_6 
REMARK    3  A    between atoms: C_5  and  C_10 
REMARK    4  A    between atoms: C_6  and  C_9 
REMARK    5  A    between atoms: C_9  and  C_12 
ROOT
HETATM    1  O   UNK N   1      28.623  18.972   6.915  0.00  0.00    -0.366 OA
HETATM    2  N   UNK N   1      23.419  21.061   2.921  0.00  0.00    -0.191 NA
HETATM    3  C   UNK N   1      28.547  17.996   5.846  0.00  0.00     0.116 C 
HETATM    4  C   UNK N   1      27.669  18.659   4.880  0.00  0.00    -0.011 A 
HETATM    5  C   UNK N   1      27.000  19.629   5.551  0.00  0.00    -0.023 A 
HETATM    6  C   UNK N   1      27.597  19.920   6.814  0.00  0.00     0.209 C 
HETATM    7  C   UNK N   1      27.152  18.148   3.697  0.00  0.00     0.012 A 
HETATM    8  C   UNK N   1      25.814  20.144   5.122  0.00  0.00     0.032 A 
HETATM    9  C   UNK N   1      25.956  18.670   3.202  0.00  0.00     0.023 A 
HETATM   10  C   UNK N   1      25.298  19.668   3.934  0.00  0.00     0.045 A 
HETATM   11  C   UNK N   1      24.267  20.416   3.352  0.00  0.00     0.099 C 
ENDROOT
BRANCH   3  12
HETATM   12  C   UNK N   1      27.613  16.771   6.153  0.00  0.00     0.050 C 
BRANCH  12  13
HETATM   13  C   UNK N   1      27.948  15.291   5.653  0.00  0.00     0.034 C 
BRANCH  13  14
HETATM   14  C   UNK N   1      27.716  14.614   4.246  0.00  0.00     0.271 C 
BRANCH  14  15
HETATM   15  N   UNK N   1      28.715  14.889   3.194  0.00  0.00     0.080 N 
HETATM   16  C   UNK N   1      29.896  14.065   3.409  0.00  0.00     0.309 C 
HETATM   17  C   UNK N   1      28.210  14.567   1.869  0.00  0.00     0.309 C 
ENDBRANCH  14  15
ENDBRANCH  13  14
ENDBRANCH  12  13
ENDBRANCH   3  12
BRANCH   3  18
HETATM   18  C   UNK N   1      29.870  17.321   5.948  0.00  0.00    -0.019 A 
HETATM   19  C   UNK N   1      30.576  17.193   7.147  0.00  0.00     0.013 A 
HETATM   20  C   UNK N   1      31.979  17.189   7.113  0.00  0.00     0.043 A 
HETATM   21  C   UNK N   1      32.660  17.366   5.896  0.00  0.00     0.116 A 
HETATM   22  F   UNK N   1      34.004  17.385   5.846  0.00  0.00    -0.206 F 
HETATM   23  C   UNK N   1      31.966  17.485   4.714  0.00  0.00     0.043 A 
HETATM   24  C   UNK N   1      30.604  17.474   4.749  0.00  0.00     0.013 A 
ENDBRANCH   3  18
TORSDOF 5
ENDMDL
MODEL 5
REMARK VINA RESULT:      -6.5      4.878      8.563
REMARK  5 active torsions:
REMARK  status: ('A' for Active; 'I' for Inactive)
REMARK    1  A    between atoms: N_3  and  C_12 
REMARK    2  A    between atoms: C_5  and  C_6 
REMARK    3  A    between atoms: C_5  and  C_10 
REMARK    4  A    between atoms: C_6  and  C_9 
REMARK    5  A    between atoms: C_9  and  C_12 
ROOT
HETATM    1  O   UNK N   1      27.028  16.274   5.510  0.00  0.00    -0.366 OA
HETATM    2  N   UNK N   1      23.119  21.257   2.809  0.00  0.00    -0.191 NA
HETATM    3  C   UNK N   1      27.958  17.185   4.873  0.00  0.00     0.116 C 
HETATM    4  C   UNK N   1      27.120  18.358   4.617  0.00  0.00    -0.011 A 
HETATM    5  C   UNK N   1      25.830  17.945   4.674  0.00  0.00    -0.023 A 
HETATM    6  C   UNK N   1      25.701  16.665   5.293  0.00  0.00     0.209 C 
HETATM    7  C   UNK N   1      27.450  19.515   3.922  0.00  0.00     0.012 A 
HETATM    8  C   UNK N   1      24.808  18.616   4.071  0.00  0.00     0.032 A 
HETATM    9  C   UNK N   1      26.431  20.252   3.318  0.00  0.00     0.023 A 
HETATM   10  C   UNK N   1      25.113  19.782   3.400  0.00  0.00     0.045 A 
HETATM   11  C   UNK N   1      24.038  20.614   3.066  0.00  0.00     0.099 C 
ENDROOT
BRANCH   3  12
HETATM   12  C   UNK N   1      28.278  16.840   3.375  0.00  0.00     0.050 C 
BRANCH  12  13
HETATM   13  C   UNK N   1      27.629  15.586   2.626  0.00  0.00     0.034 C 
BRANCH  13  14
HETATM   14  C   UNK N   1      26.261  15.461   1.849  0.00  0.00     0.271 C 
BRANCH  14  15
HETATM   15  N   UNK N   1      25.434  14.270   2.129  0.00  0.00     0.080 N 
HETATM   16  C   UNK N   1      26.004  13.526   3.244  0.00  0.00     0.309 C 
HETATM   17  C   UNK N   1      24.078  14.628   2.509  0.00  0.00     0.309 C 
ENDBRANCH  14  15
ENDBRANCH  13  14
ENDBRANCH  12  13
ENDBRANCH   3  12
BRANCH   3  18
HETATM   18  C   UNK N   1      29.252  16.790   5.493  0.00  0.00    -0.019 A 
HETATM   19  C   UNK N   1      29.504  16.872   6.865  0.00  0.00     0.013 A 
HETATM   20  C   UNK N   1      30.809  17.141   7.303  0.00  0.00     0.043 A 
HETATM   21  C   UNK N   1      31.836  17.378   6.371  0.00  0.00     0.116 A 
HETATM   22  F   UNK N   1      33.088  17.657   6.771  0.00  0.00    -0.206 F 
HETATM   23  C   UNK N   1      31.591  17.291   5.019  0.00  0.00     0.043 A 
HETATM   24  C   UNK N   1      30.325  17.015   4.599  0.00  0.00     0.013 A 
ENDBRANCH   3  18
TORSDOF 5
ENDMDL
MODEL 6
REMARK VINA RESULT:      -6.5     14.481     17.521
REMARK  5 active torsions:
REMARK  status: ('A' for Active; 'I' for Inactive)
REMARK    1  A    between atoms: N_3  and  C_12 
REMARK    2  A    between atoms: C_5  and  C_6 
REMARK    3  A    between atoms: C_5  and  C_10 
REMARK    4  A    between atoms: C_6  and  C_9 
REMARK    5  A    between atoms: C_9  and  C_12 
ROOT
HETATM    1  O   UNK N   1      25.477  25.004  -6.001  0.00  0.00    -0.366 OA
HETATM    2  N   UNK N   1      30.441  22.983  -1.680  0.00  0.00    -0.191 NA
HETATM    3  C   UNK N   1      26.704  25.547  -6.548  0.00  0.00     0.116 C 
HETATM    4  C   UNK N   1      27.730  24.824  -5.794  0.00  0.00    -0.011 A 
HETATM    5  C   UNK N   1      27.131  24.329  -4.683  0.00  0.00    -0.023 A 
HETATM    6  C   UNK N   1      25.707  24.350  -4.784  0.00  0.00     0.209 C 
HETATM    7  C   UNK N   1      29.106  25.011  -5.818  0.00  0.00     0.012 A 
HETATM    8  C   UNK N   1      27.819  23.995  -3.555  0.00  0.00     0.032 A 
HETATM    9  C   UNK N   1      29.855  24.651  -4.697  0.00  0.00     0.023 A 
HETATM   10  C   UNK N   1      29.190  24.148  -3.571  0.00  0.00     0.045 A 
HETATM   11  C   UNK N   1      29.904  23.515  -2.546  0.00  0.00     0.099 C 
ENDROOT
BRANCH   3  12
HETATM   12  C   UNK N   1      27.059  26.988  -6.035  0.00  0.00     0.050 C 
BRANCH  12  13
HETATM   13  C   UNK N   1      25.992  27.925  -5.302  0.00  0.00     0.034 C 
BRANCH  13  14
HETATM   14  C   UNK N   1      25.769  28.206  -3.764  0.00  0.00     0.271 C 
BRANCH  14  15
HETATM   15  N   UNK N   1      26.555  29.300  -3.159  0.00  0.00     0.080 N 
HETATM   16  C   UNK N   1      27.935  28.873  -2.979  0.00  0.00     0.309 C 
HETATM   17  C   UNK N   1      26.585  30.480  -4.007  0.00  0.00     0.309 C 
ENDBRANCH  14  15
ENDBRANCH  13  14
ENDBRANCH  12  13
ENDBRANCH   3  12
BRANCH   3  18
HETATM   18  C   UNK N   1      26.300  25.882  -7.941  0.00  0.00    -0.019 A 
HETATM   19  C   UNK N   1      25.515  25.043  -8.736  0.00  0.00     0.013 A 
HETATM   20  C   UNK N   1      25.712  25.041 -10.125  0.00  0.00     0.043 A 
HETATM   21  C   UNK N   1      26.722  25.833 -10.700  0.00  0.00     0.116 A 
HETATM   22  F   UNK N   1      26.939  25.830 -12.027  0.00  0.00    -0.206 F 
HETATM   23  C   UNK N   1      27.490  26.666  -9.920  0.00  0.00     0.043 A 
HETATM   24  C   UNK N   1      27.286  26.675  -8.572  0.00  0.00     0.013 A 
ENDBRANCH   3  18
TORSDOF 5
ENDMDL
MODEL 7
REMARK VINA RESULT:      -6.5     13.935     17.759
REMARK  5 active torsions:
REMARK  status: ('A' for Active; 'I' for Inactive)
REMARK    1  A    between atoms: N_3  and  C_12 
REMARK    2  A    between atoms: C_5  and  C_6 
REMARK    3  A    between atoms: C_5  and  C_10 
REMARK    4  A    between atoms: C_6  and  C_9 
REMARK    5  A    between atoms: C_9  and  C_12 
ROOT
HETATM    1  O   UNK N   1      28.513  26.849  -5.427  0.00  0.00    -0.366 OA
HETATM    2  N   UNK N   1      24.526  25.102 -10.760  0.00  0.00    -0.191 NA
HETATM    3  C   UNK N   1      27.991  25.537  -5.099  0.00  0.00     0.116 C 
HETATM    4  C   UNK N   1      27.439  25.093  -6.380  0.00  0.00    -0.011 A 
HETATM    5  C   UNK N   1      27.267  26.199  -7.144  0.00  0.00    -0.023 A 
HETATM    6  C   UNK N   1      27.980  27.324  -6.631  0.00  0.00     0.209 C 
HETATM    7  C   UNK N   1      26.709  23.942  -6.648  0.00  0.00     0.012 A 
HETATM    8  C   UNK N   1      26.393  26.251  -8.189  0.00  0.00     0.032 A 
HETATM    9  C   UNK N   1      25.827  23.939  -7.729  0.00  0.00     0.023 A 
HETATM   10  C   UNK N   1      25.680  25.108  -8.487  0.00  0.00     0.045 A 
HETATM   11  C   UNK N   1      25.039  25.075  -9.732  0.00  0.00     0.099 C 
ENDROOT
BRANCH   3  12
HETATM   12  C   UNK N   1      26.641  25.559  -4.298  0.00  0.00     0.050 C 
BRANCH  12  13
HETATM   13  C   UNK N   1      26.181  26.818  -3.427  0.00  0.00     0.034 C 
BRANCH  13  14
HETATM   14  C   UNK N   1      25.682  28.245  -3.882  0.00  0.00     0.271 C 
BRANCH  14  15
HETATM   15  N   UNK N   1      26.433  29.413  -3.379  0.00  0.00     0.080 N 
HETATM   16  C   UNK N   1      27.598  28.963  -2.630  0.00  0.00     0.309 C 
HETATM   17  C   UNK N   1      26.923  30.250  -4.461  0.00  0.00     0.309 C 
ENDBRANCH  14  15
ENDBRANCH  13  14
ENDBRANCH  12  13
ENDBRANCH   3  12
BRANCH   3  18
HETATM   18  C   UNK N   1      28.909  25.102  -4.011  0.00  0.00    -0.019 A 
HETATM   19  C   UNK N   1      30.285  25.342  -4.025  0.00  0.00     0.013 A 
HETATM   20  C   UNK N   1      31.144  24.415  -3.416  0.00  0.00     0.043 A 
HETATM   21  C   UNK N   1      30.629  23.236  -2.848  0.00  0.00     0.116 A 
HETATM   22  F   UNK N   1      31.438  22.326  -2.278  0.00  0.00    -0.206 F 
HETATM   23  C   UNK N   1      29.273  23.001  -2.827  0.00  0.00     0.043 A 
HETATM   24  C   UNK N   1      28.441  23.911  -3.407  0.00  0.00     0.013 A 
ENDBRANCH   3  18
TORSDOF 5
ENDMDL
MODEL 8
REMARK VINA RESULT:      -6.4      4.124      8.030
REMARK  5 active torsions:
REMARK  status: ('A' for Active; 'I' for Inactive)
REMARK    1  A    between atoms: N_3  and  C_12 
REMARK    2  A    between atoms: C_5  and  C_6 
REMARK    3  A    between atoms: C_5  and  C_10 
REMARK    4  A    between atoms: C_6  and  C_9 
REMARK    5  A    between atoms: C_9  and  C_12 
ROOT
HETATM    1  O   UNK N   1      27.748  16.315   5.928  0.00  0.00    -0.366 OA
HETATM    2  N   UNK N   1      24.105  20.899   2.306  0.00  0.00    -0.191 NA
HETATM    3  C   UNK N   1      28.605  17.478   5.812  0.00  0.00     0.116 C 
HETATM    4  C   UNK N   1      27.676  18.505   5.337  0.00  0.00    -0.011 A 
HETATM    5  C   UNK N   1      26.600  17.860   4.823  0.00  0.00    -0.023 A 
HETATM    6  C   UNK N   1      26.552  16.490   5.220  0.00  0.00     0.209 C 
HETATM    7  C   UNK N   1      27.961  19.806   4.944  0.00  0.00     0.012 A 
HETATM    8  C   UNK N   1      25.758  18.430   3.914  0.00  0.00     0.032 A 
HETATM    9  C   UNK N   1      27.107  20.441   4.042  0.00  0.00     0.023 A 
HETATM   10  C   UNK N   1      26.010  19.731   3.533  0.00  0.00     0.045 A 
HETATM   11  C   UNK N   1      24.979  20.399   2.861  0.00  0.00     0.099 C 
ENDROOT
BRANCH   3  12
HETATM   12  C   UNK N   1      29.546  17.465   4.554  0.00  0.00     0.050 C 
BRANCH  12  13
HETATM   13  C   UNK N   1      29.346  16.440   3.345  0.00  0.00     0.034 C 
BRANCH  13  14
HETATM   14  C   UNK N   1      30.128  15.114   2.994  0.00  0.00     0.271 C 
BRANCH  14  15
HETATM   15  N   UNK N   1      29.478  13.836   3.347  0.00  0.00     0.080 N 
HETATM   16  C   UNK N   1      29.614  13.593   4.777  0.00  0.00     0.309 C 
HETATM   17  C   UNK N   1      28.054  13.852   3.055  0.00  0.00     0.309 C 
ENDBRANCH  14  15
ENDBRANCH  13  14
ENDBRANCH  12  13
ENDBRANCH   3  12
BRANCH   3  18
HETATM   18  C   UNK N   1      29.619  17.223   6.872  0.00  0.00    -0.019 A 
HETATM   19  C   UNK N   1      29.603  17.854   8.118  0.00  0.00     0.013 A 
HETATM   20  C   UNK N   1      30.820  18.112   8.766  0.00  0.00     0.043 A 
HETATM   21  C   UNK N   1      32.039  17.788   8.143  0.00  0.00     0.116 A 
HETATM   22  F   UNK N   1      33.216  18.045   8.740  0.00  0.00    -0.206 F 
HETATM   23  C   UNK N   1      32.056  17.160   6.919  0.00  0.00     0.043 A 
HETATM   24  C   UNK N   1      30.871  16.898   6.300  0.00  0.00     0.013 A 
ENDBRANCH   3  18
TORSDOF 5
ENDMDL
MODEL 9
REMARK VINA RESULT:      -6.4      3.309      5.151
REMARK  5 active torsions:
REMARK  status: ('A' for Active; 'I' for Inactive)
REMARK    1  A    between atoms: N_3  and  C_12 
REMARK    2  A    between atoms: C_5  and  C_6 
REMARK    3  A    between atoms: C_5  and  C_10 
REMARK    4  A    between atoms: C_6  and  C_9 
REMARK    5  A    between atoms: C_9  and  C_12 
ROOT
HETATM    1  O   UNK N   1      30.217  17.567   4.540  0.00  0.00    -0.366 OA
HETATM    2  N   UNK N   1      35.305  15.088   8.459  0.00  0.00    -0.191 NA
HETATM    3  C   UNK N   1      29.665  17.493   5.878  0.00  0.00     0.116 C 
HETATM    4  C   UNK N   1      30.861  17.283   6.697  0.00  0.00    -0.011 A 
HETATM    5  C   UNK N   1      31.836  16.835   5.869  0.00  0.00    -0.023 A 
HETATM    6  C   UNK N   1      31.518  17.051   4.494  0.00  0.00     0.209 C 
HETATM    7  C   UNK N   1      30.935  17.030   8.061  0.00  0.00     0.012 A 
HETATM    8  C   UNK N   1      32.915  16.127   6.308  0.00  0.00     0.032 A 
HETATM    9  C   UNK N   1      32.040  16.339   8.559  0.00  0.00     0.023 A 
HETATM   10  C   UNK N   1      33.020  15.891   7.663  0.00  0.00     0.045 A 
HETATM   11  C   UNK N   1      34.265  15.453   8.130  0.00  0.00     0.099 C 
ENDROOT
BRANCH   3  12
HETATM   12  C   UNK N   1      28.956  16.132   6.211  0.00  0.00     0.050 C 
BRANCH  12  13
HETATM   13  C   UNK N   1      28.323  15.196   5.081  0.00  0.00     0.034 C 
BRANCH  13  14
HETATM   14  C   UNK N   1      27.093  15.446   4.123  0.00  0.00     0.271 C 
BRANCH  14  15
HETATM   15  N   UNK N   1      27.394  15.832   2.729  0.00  0.00     0.080 N 
HETATM   16  C   UNK N   1      28.659  15.240   2.318  0.00  0.00     0.309 C 
HETATM   17  C   UNK N   1      26.381  15.353   1.804  0.00  0.00     0.309 C 
ENDBRANCH  14  15
ENDBRANCH  13  14
ENDBRANCH  12  13
ENDBRANCH   3  12
BRANCH   3  18
HETATM   18  C   UNK N   1      28.466  18.367   5.768  0.00  0.00    -0.019 A 
HETATM   19  C   UNK N   1      28.140  19.083   4.613  0.00  0.00     0.013 A 
HETATM   20  C   UNK N   1      27.481  20.315   4.738  0.00  0.00     0.043 A 
HETATM   21  C   UNK N   1      27.202  20.845   6.011  0.00  0.00     0.116 A 
HETATM   22  F   UNK N   1      26.589  22.033   6.152  0.00  0.00    -0.206 F 
HETATM   23  C   UNK N   1      27.516  20.138   7.150  0.00  0.00     0.043 A 
HETATM   24  C   UNK N   1      28.143  18.935   7.023  0.00  0.00     0.013 A 
ENDBRANCH   3  18
TORSDOF 5
ENDMDL
