MODEL 1
REMARK VINA RESULT:      -8.1      0.000      0.000
REMARK  5 active torsions:
REMARK  status: ('A' for Active; 'I' for Inactive)
REMARK    1  A    between atoms: N_4  and  C_14 
REMARK    2  A    between atoms: N_5  and  C_9 
REMARK    3  A    between atoms: N_7  and  C_18 
REMARK    4  A    between atoms: C_14  and  C_15 
REMARK    5  A    between atoms: C_15  and  C_18 
ROOT
HETATM    1  N   UNK N   1      32.363  16.181   6.849  0.00  0.00     0.088 N 
HETATM    2  C   UNK N   1      34.259  15.178   8.739  0.00  0.00     0.098 C 
HETATM    3  C   UNK N   1      32.875  15.634   9.173  0.00  0.00     0.056 C 
HETATM    4  C   UNK N   1      34.729  16.036   7.574  0.00  0.00     0.056 C 
HETATM    5  C   UNK N   1      31.937  15.401   8.008  0.00  0.00     0.274 C 
HETATM    6  C   UNK N   1      33.726  15.808   6.435  0.00  0.00     0.274 C 
ENDROOT
BRANCH   1   7
HETATM    7  C   UNK N   1      31.419  15.835   5.791  0.00  0.00     0.274 C 
BRANCH   7   8
HETATM    8  C   UNK N   1      30.461  16.972   5.486  0.00  0.00     0.050 C 
BRANCH   8   9
HETATM    9  C   UNK N   1      29.045  16.615   5.899  0.00  0.00     0.135 C 
BRANCH   9  10
HETATM   10  N   UNK N   1      28.472  17.754   6.591  0.00  0.00    -0.297 N 
HETATM   11  C   UNK N   1      27.935  18.852   6.046  0.00  0.00     0.065 A 
HETATM   12  C   UNK N   1      27.537  19.696   7.044  0.00  0.00     0.063 A 
HETATM   13  C   UNK N   1      27.774  19.164   4.698  0.00  0.00     0.032 A 
HETATM   14  N   UNK N   1      27.811  19.155   8.250  0.00  0.00    -0.306 N 
HETATM   15  C   UNK N   1      26.944  20.924   6.774  0.00  0.00     0.032 A 
HETATM   16  C   UNK N   1      28.387  17.956   7.935  0.00  0.00     0.327 A 
HETATM   17  H   UNK N   1      27.637  19.533   9.143  0.00  0.00     0.171 HD
HETATM   18  O   UNK N   1      28.795  17.164   8.769  0.00  0.00    -0.246 OA
HETATM   19  C   UNK N   1      26.762  21.274   5.421  0.00  0.00     0.002 A 
HETATM   20  C   UNK N   1      27.175  20.398   4.388  0.00  0.00     0.002 A 
ENDBRANCH   9  10
ENDBRANCH   8   9
ENDBRANCH   7   8
ENDBRANCH   1   7
BRANCH   2  21
HETATM   21  N   UNK N   1      35.154  15.095   9.892  0.00  0.00    -0.293 N 
HETATM   22  C   UNK N   1      35.575  13.937  10.420  0.00  0.00     0.066 A 
HETATM   23  C   UNK N   1      36.403  14.189  11.474  0.00  0.00     0.065 A 
HETATM   24  C   UNK N   1      35.263  12.643  10.009  0.00  0.00     0.034 A 
HETATM   25  N   UNK N   1      36.538  15.520  11.651  0.00  0.00    -0.306 N 
HETATM   26  C   UNK N   1      36.988  13.158  12.205  0.00  0.00     0.055 A 
HETATM   27  C   UNK N   1      35.757  16.055  10.659  0.00  0.00     0.328 A 
HETATM   28  H   UNK N   1      37.069  15.995  12.329  0.00  0.00     0.171 HD
HETATM   29  O   UNK N   1      35.621  17.254  10.489  0.00  0.00    -0.246 OA
HETATM   30  C   UNK N   1      36.691  11.832  11.817  0.00  0.00     0.036 A 
HETATM   31 Cl   UNK N   1      37.386  10.485  12.687  0.00  0.00    -0.084 Cl
HETATM   32  C   UNK N   1      35.833  11.580  10.724  0.00  0.00     0.026 A 
ENDBRANCH   2  21
TORSDOF 5
ENDMDL
MODEL 2
REMARK VINA RESULT:      -8.1      5.118      7.949
REMARK  5 active torsions:
REMARK  status: ('A' for Active; 'I' for Inactive)
REMARK    1  A    between atoms: N_4  and  C_14 
REMARK    2  A    between atoms: N_5  and  C_9 
REMARK    3  A    between atoms: N_7  and  C_18 
REMARK    4  A    between atoms: C_14  and  C_15 
REMARK    5  A    between atoms: C_15  and  C_18 
ROOT
HETATM    1  N   UNK N   1      35.369  13.387  13.523  0.00  0.00     0.088 N 
HETATM    2  C   UNK N   1      35.650  12.558  16.245  0.00  0.00     0.098 C 
HETATM    3  C   UNK N   1      34.321  12.442  15.517  0.00  0.00     0.056 C 
HETATM    4  C   UNK N   1      36.392  13.789  15.745  0.00  0.00     0.056 C 
HETATM    5  C   UNK N   1      34.627  12.243  14.048  0.00  0.00     0.274 C 
HETATM    6  C   UNK N   1      36.638  13.567  14.247  0.00  0.00     0.274 C 
ENDROOT
BRANCH   1   7
HETATM    7  C   UNK N   1      35.643  13.054  12.129  0.00  0.00     0.274 C 
BRANCH   7   8
HETATM    8  C   UNK N   1      34.693  13.757  11.177  0.00  0.00     0.050 C 
BRANCH   8   9
HETATM    9  C   UNK N   1      35.445  14.361  10.006  0.00  0.00     0.135 C 
BRANCH   9  10
HETATM   10  N   UNK N   1      34.721  15.534   9.555  0.00  0.00    -0.297 N 
HETATM   11  C   UNK N   1      33.675  15.574   8.721  0.00  0.00     0.065 A 
HETATM   12  C   UNK N   1      33.306  16.877   8.531  0.00  0.00     0.063 A 
HETATM   13  C   UNK N   1      33.014  14.515   8.104  0.00  0.00     0.032 A 
HETATM   14  N   UNK N   1      34.111  17.697   9.240  0.00  0.00    -0.306 N 
HETATM   15  C   UNK N   1      32.245  17.226   7.704  0.00  0.00     0.032 A 
HETATM   16  C   UNK N   1      34.972  16.837   9.861  0.00  0.00     0.327 A 
HETATM   17  H   UNK N   1      34.083  18.680   9.296  0.00  0.00     0.171 HD
HETATM   18  O   UNK N   1      35.876  17.201  10.595  0.00  0.00    -0.246 OA
HETATM   19  C   UNK N   1      31.550  16.181   7.063  0.00  0.00     0.002 A 
HETATM   20  C   UNK N   1      31.933  14.832   7.262  0.00  0.00     0.002 A 
ENDBRANCH   9  10
ENDBRANCH   8   9
ENDBRANCH   7   8
ENDBRANCH   1   7
BRANCH   2  21
HETATM   21  N   UNK N   1      35.451  12.458  17.690  0.00  0.00    -0.293 N 
HETATM   22  C   UNK N   1      35.411  11.293  18.353  0.00  0.00     0.066 A 
HETATM   23  C   UNK N   1      35.223  11.529  19.682  0.00  0.00     0.065 A 
HETATM   24  C   UNK N   1      35.539  10.007  17.834  0.00  0.00     0.034 A 
HETATM   25  N   UNK N   1      35.138  12.857  19.911  0.00  0.00    -0.306 N 
HETATM   26  C   UNK N   1      35.147  10.488  20.604  0.00  0.00     0.055 A 
HETATM   27  C   UNK N   1      35.284  13.406  18.663  0.00  0.00     0.328 A 
HETATM   28  H   UNK N   1      35.003  13.321  20.768  0.00  0.00     0.171 HD
HETATM   29  O   UNK N   1      35.263  14.606  18.455  0.00  0.00    -0.246 OA
HETATM   30  C   UNK N   1      35.270   9.169  20.112  0.00  0.00     0.036 A 
HETATM   31 Cl   UNK N   1      35.184   7.810  21.208  0.00  0.00    -0.084 Cl
HETATM   32  C   UNK N   1      35.466   8.933  18.733  0.00  0.00     0.026 A 
ENDBRANCH   2  21
TORSDOF 5
ENDMDL
MODEL 3
REMARK VINA RESULT:      -8.0      2.144      2.481
REMARK  5 active torsions:
REMARK  status: ('A' for Active; 'I' for Inactive)
REMARK    1  A    between atoms: N_4  and  C_14 
REMARK    2  A    between atoms: N_5  and  C_9 
REMARK    3  A    between atoms: N_7  and  C_18 
REMARK    4  A    between atoms: C_14  and  C_15 
REMARK    5  A    between atoms: C_15  and  C_18 
ROOT
HETATM    1  N   UNK N   1      32.928  15.091   6.703  0.00  0.00     0.088 N 
HETATM    2  C   UNK N   1      34.477  14.688   9.072  0.00  0.00     0.098 C 
HETATM    3  C   UNK N   1      33.013  15.092   9.144  0.00  0.00     0.056 C 
HETATM    4  C   UNK N   1      35.115  15.325   7.847  0.00  0.00     0.056 C 
HETATM    5  C   UNK N   1      32.330  14.535   7.913  0.00  0.00     0.274 C 
HETATM    6  C   UNK N   1      34.364  14.770   6.629  0.00  0.00     0.274 C 
ENDROOT
BRANCH   1   7
HETATM    7  C   UNK N   1      32.225  14.445   5.599  0.00  0.00     0.274 C 
BRANCH   7   8
HETATM    8  C   UNK N   1      30.718  14.544   5.746  0.00  0.00     0.050 C 
BRANCH   8   9
HETATM    9  C   UNK N   1      30.213  15.891   5.264  0.00  0.00     0.135 C 
BRANCH   9  10
HETATM   10  N   UNK N   1      29.220  16.370   6.206  0.00  0.00    -0.297 N 
HETATM   11  C   UNK N   1      29.427  17.106   7.304  0.00  0.00     0.065 A 
HETATM   12  C   UNK N   1      28.231  17.318   7.931  0.00  0.00     0.063 A 
HETATM   13  C   UNK N   1      30.628  17.610   7.799  0.00  0.00     0.032 A 
HETATM   14  N   UNK N   1      27.233  16.721   7.246  0.00  0.00    -0.306 N 
HETATM   15  C   UNK N   1      28.139  18.054   9.107  0.00  0.00     0.032 A 
HETATM   16  C   UNK N   1      27.877  16.145   6.186  0.00  0.00     0.327 A 
HETATM   17  H   UNK N   1      26.271  16.705   7.458  0.00  0.00     0.171 HD
HETATM   18  O   UNK N   1      27.309  15.489   5.329  0.00  0.00    -0.246 OA
HETATM   19  C   UNK N   1      29.333  18.581   9.638  0.00  0.00     0.002 A 
HETATM   20  C   UNK N   1      30.571  18.360   8.988  0.00  0.00     0.002 A 
ENDBRANCH   9  10
ENDBRANCH   8   9
ENDBRANCH   7   8
ENDBRANCH   1   7
BRANCH   2  21
HETATM   21  N   UNK N   1      35.136  14.932  10.354  0.00  0.00    -0.293 N 
HETATM   22  C   UNK N   1      35.376  13.972  11.258  0.00  0.00     0.066 A 
HETATM   23  C   UNK N   1      36.009  14.509  12.339  0.00  0.00     0.065 A 
HETATM   24  C   UNK N   1      35.060  12.618  11.174  0.00  0.00     0.034 A 
HETATM   25  N   UNK N   1      36.197  15.833  12.158  0.00  0.00    -0.306 N 
HETATM   26  C   UNK N   1      36.380  13.726  13.431  0.00  0.00     0.055 A 
HETATM   27  C   UNK N   1      35.650  16.067  10.922  0.00  0.00     0.328 A 
HETATM   28  H   UNK N   1      36.624  16.478  12.766  0.00  0.00     0.171 HD
HETATM   29  O   UNK N   1      35.626  17.167  10.399  0.00  0.00    -0.246 OA
HETATM   30  C   UNK N   1      36.073  12.348  13.380  0.00  0.00     0.036 A 
HETATM   31 Cl   UNK N   1      36.506  11.302  14.712  0.00  0.00    -0.084 Cl
HETATM   32  C   UNK N   1      35.417  11.800  12.256  0.00  0.00     0.026 A 
ENDBRANCH   2  21
TORSDOF 5
ENDMDL
MODEL 4
REMARK VINA RESULT:      -8.0      5.372      7.891
REMARK  5 active torsions:
REMARK  status: ('A' for Active; 'I' for Inactive)
REMARK    1  A    between atoms: N_4  and  C_14 
REMARK    2  A    between atoms: N_5  and  C_9 
REMARK    3  A    between atoms: N_7  and  C_18 
REMARK    4  A    between atoms: C_14  and  C_15 
REMARK    5  A    between atoms: C_15  and  C_18 
ROOT
HETATM    1  N   UNK N   1      25.640  18.290   5.090  0.00  0.00     0.088 N 
HETATM    2  C   UNK N   1      28.110  17.839   6.458  0.00  0.00     0.098 C 
HETATM    3  C   UNK N   1      27.019  16.781   6.427  0.00  0.00     0.056 C 
HETATM    4  C   UNK N   1      27.471  19.220   6.478  0.00  0.00     0.056 C 
HETATM    5  C   UNK N   1      26.250  16.963   5.136  0.00  0.00     0.274 C 
HETATM    6  C   UNK N   1      26.666  19.343   5.178  0.00  0.00     0.274 C 
ENDROOT
BRANCH   1   7
HETATM    7  C   UNK N   1      24.979  18.359   3.791  0.00  0.00     0.274 C 
BRANCH   7   8
HETATM    8  C   UNK N   1      23.732  19.223   3.830  0.00  0.00     0.050 C 
BRANCH   8   9
HETATM    9  C   UNK N   1      22.583  18.490   4.496  0.00  0.00     0.135 C 
BRANCH   9  10
HETATM   10  N   UNK N   1      21.489  18.398   3.548  0.00  0.00    -0.297 N 
HETATM   11  C   UNK N   1      21.209  17.382   2.723  0.00  0.00     0.065 A 
HETATM   12  C   UNK N   1      20.113  17.706   1.973  0.00  0.00     0.063 A 
HETATM   13  C   UNK N   1      21.872  16.165   2.587  0.00  0.00     0.032 A 
HETATM   14  N   UNK N   1      19.670  18.938   2.302  0.00  0.00    -0.306 N 
HETATM   15  C   UNK N   1      19.592  16.836   1.022  0.00  0.00     0.032 A 
HETATM   16  C   UNK N   1      20.541  19.337   3.277  0.00  0.00     0.327 A 
HETATM   17  H   UNK N   1      18.903  19.431   1.929  0.00  0.00     0.171 HD
HETATM   18  O   UNK N   1      20.482  20.423   3.830  0.00  0.00    -0.246 OA
HETATM   19  C   UNK N   1      20.235  15.594   0.857  0.00  0.00     0.002 A 
HETATM   20  C   UNK N   1      21.370  15.260   1.634  0.00  0.00     0.002 A 
ENDBRANCH   9  10
ENDBRANCH   8   9
ENDBRANCH   7   8
ENDBRANCH   1   7
BRANCH   2  21
HETATM   21  N   UNK N   1      29.072  17.548   7.520  0.00  0.00    -0.293 N 
HETATM   22  C   UNK N   1      30.357  17.243   7.291  0.00  0.00     0.066 A 
HETATM   23  C   UNK N   1      30.997  17.037   8.477  0.00  0.00     0.065 A 
HETATM   24  C   UNK N   1      31.008  17.139   6.064  0.00  0.00     0.034 A 
HETATM   25  N   UNK N   1      30.137  17.206   9.504  0.00  0.00    -0.306 N 
HETATM   26  C   UNK N   1      32.349  16.707   8.529  0.00  0.00     0.055 A 
HETATM   27  C   UNK N   1      28.957  17.524   8.883  0.00  0.00     0.328 A 
HETATM   28  H   UNK N   1      30.315  17.123  10.468  0.00  0.00     0.171 HD
HETATM   29  O   UNK N   1      27.924  17.754   9.489  0.00  0.00    -0.246 OA
HETATM   30  C   UNK N   1      33.040  16.590   7.302  0.00  0.00     0.036 A 
HETATM   31 Cl   UNK N   1      34.739  16.178   7.286  0.00  0.00    -0.084 Cl
HETATM   32  C   UNK N   1      32.371  16.806   6.078  0.00  0.00     0.026 A 
ENDBRANCH   2  21
TORSDOF 5
ENDMDL
MODEL 5
REMARK VINA RESULT:      -7.8      6.168      9.106
REMARK  5 active torsions:
REMARK  status: ('A' for Active; 'I' for Inactive)
REMARK    1  A    between atoms: N_4  and  C_14 
REMARK    2  A    between atoms: N_5  and  C_9 
REMARK    3  A    between atoms: N_7  and  C_18 
REMARK    4  A    between atoms: C_14  and  C_15 
REMARK    5  A    between atoms: C_15  and  C_18 
ROOT
HETATM    1  N   UNK N   1      26.297  14.892   4.725  0.00  0.00     0.088 N 
HETATM    2  C   UNK N   1      24.594  14.151   6.900  0.00  0.00     0.098 C 
HETATM    3  C   UNK N   1      25.054  13.129   5.872  0.00  0.00     0.056 C 
HETATM    4  C   UNK N   1      24.417  15.501   6.223  0.00  0.00     0.056 C 
HETATM    5  C   UNK N   1      26.405  13.581   5.360  0.00  0.00     0.274 C 
HETATM    6  C   UNK N   1      25.796  15.897   5.678  0.00  0.00     0.274 C 
ENDROOT
BRANCH   1   7
HETATM    7  C   UNK N   1      27.658  15.234   4.324  0.00  0.00     0.274 C 
BRANCH   7   8
HETATM    8  C   UNK N   1      28.590  15.355   5.515  0.00  0.00     0.050 C 
BRANCH   8   9
HETATM    9  C   UNK N   1      29.491  16.569   5.378  0.00  0.00     0.135 C 
BRANCH   9  10
HETATM   10  N   UNK N   1      28.923  17.649   6.162  0.00  0.00    -0.297 N 
HETATM   11  C   UNK N   1      28.211  18.690   5.718  0.00  0.00     0.065 A 
HETATM   12  C   UNK N   1      27.890  19.495   6.775  0.00  0.00     0.063 A 
HETATM   13  C   UNK N   1      27.820  18.984   4.413  0.00  0.00     0.032 A 
HETATM   14  N   UNK N   1      28.392  18.984   7.919  0.00  0.00    -0.306 N 
HETATM   15  C   UNK N   1      27.150  20.661   6.613  0.00  0.00     0.032 A 
HETATM   16  C   UNK N   1      29.024  17.844   7.506  0.00  0.00     0.327 A 
HETATM   17  H   UNK N   1      28.320  19.346   8.833  0.00  0.00     0.171 HD
HETATM   18  O   UNK N   1      29.624  17.096   8.259  0.00  0.00    -0.246 OA
HETATM   19  C   UNK N   1      26.736  20.990   5.307  0.00  0.00     0.002 A 
HETATM   20  C   UNK N   1      27.068  20.156   4.213  0.00  0.00     0.002 A 
ENDBRANCH   9  10
ENDBRANCH   8   9
ENDBRANCH   7   8
ENDBRANCH   1   7
BRANCH   2  21
HETATM   21  N   UNK N   1      23.448  13.640   7.649  0.00  0.00    -0.293 N 
HETATM   22  C   UNK N   1      23.530  13.179   8.905  0.00  0.00     0.066 A 
HETATM   23  C   UNK N   1      22.296  12.785   9.330  0.00  0.00     0.065 A 
HETATM   24  C   UNK N   1      24.661  13.089   9.713  0.00  0.00     0.034 A 
HETATM   25  N   UNK N   1      21.383  12.985   8.356  0.00  0.00    -0.306 N 
HETATM   26  C   UNK N   1      22.095  12.266  10.607  0.00  0.00     0.055 A 
HETATM   27  C   UNK N   1      22.123  13.515   7.330  0.00  0.00     0.328 A 
HETATM   28  H   UNK N   1      20.418  12.796   8.376  0.00  0.00     0.171 HD
HETATM   29  O   UNK N   1      21.642  13.835   6.256  0.00  0.00    -0.246 OA
HETATM   30  C   UNK N   1      23.222  12.159  11.453  0.00  0.00     0.036 A 
HETATM   31 Cl   UNK N   1      23.050  11.517  13.070  0.00  0.00    -0.084 Cl
HETATM   32  C   UNK N   1      24.497  12.569  11.005  0.00  0.00     0.026 A 
ENDBRANCH   2  21
TORSDOF 5
ENDMDL
MODEL 6
REMARK VINA RESULT:      -7.8      4.667      9.998
REMARK  5 active torsions:
REMARK  status: ('A' for Active; 'I' for Inactive)
REMARK    1  A    between atoms: N_4  and  C_14 
REMARK    2  A    between atoms: N_5  and  C_9 
REMARK    3  A    between atoms: N_7  and  C_18 
REMARK    4  A    between atoms: C_14  and  C_15 
REMARK    5  A    between atoms: C_15  and  C_18 
ROOT
HETATM    1  N   UNK N   1      36.167  13.196  11.297  0.00  0.00     0.088 N 
HETATM    2  C   UNK N   1      34.943  14.921   9.373  0.00  0.00     0.098 C 
HETATM    3  C   UNK N   1      36.415  14.552   9.281  0.00  0.00     0.056 C 
HETATM    4  C   UNK N   1      34.537  15.006  10.837  0.00  0.00     0.056 C 
HETATM    5  C   UNK N   1      36.575  13.178   9.895  0.00  0.00     0.274 C 
HETATM    6  C   UNK N   1      34.759  13.609  11.430  0.00  0.00     0.274 C 
ENDROOT
BRANCH   1   7
HETATM    7  C   UNK N   1      36.318  11.819  11.755  0.00  0.00     0.274 C 
BRANCH   7   8
HETATM    8  C   UNK N   1      35.747  11.614  13.147  0.00  0.00     0.050 C 
BRANCH   8   9
HETATM    9  C   UNK N   1      36.817  11.800  14.206  0.00  0.00     0.135 C 
BRANCH   9  10
HETATM   10  N   UNK N   1      36.180  12.275  15.419  0.00  0.00    -0.297 N 
HETATM   11  C   UNK N   1      36.369  13.450  16.031  0.00  0.00     0.065 A 
HETATM   12  C   UNK N   1      35.600  13.493  17.161  0.00  0.00     0.063 A 
HETATM   13  C   UNK N   1      37.194  14.506  15.651  0.00  0.00     0.032 A 
HETATM   14  N   UNK N   1      34.904  12.344  17.295  0.00  0.00    -0.306 N 
HETATM   15  C   UNK N   1      35.595  14.598  18.003  0.00  0.00     0.032 A 
HETATM   16  C   UNK N   1      35.284  11.614  16.203  0.00  0.00     0.327 A 
HETATM   17  H   UNK N   1      34.273  12.093  18.008  0.00  0.00     0.171 HD
HETATM   18  O   UNK N   1      34.876  10.489  15.970  0.00  0.00    -0.246 OA
HETATM   19  C   UNK N   1      36.416  15.688  17.650  0.00  0.00     0.002 A 
HETATM   20  C   UNK N   1      37.211  15.642  16.480  0.00  0.00     0.002 A 
ENDBRANCH   9  10
ENDBRANCH   8   9
ENDBRANCH   7   8
ENDBRANCH   1   7
BRANCH   2  21
HETATM   21  N   UNK N   1      34.659  16.094   8.547  0.00  0.00    -0.293 N 
HETATM   22  C   UNK N   1      34.122  16.022   7.321  0.00  0.00     0.066 A 
HETATM   23  C   UNK N   1      33.970  17.278   6.813  0.00  0.00     0.065 A 
HETATM   24  C   UNK N   1      33.749  14.881   6.614  0.00  0.00     0.034 A 
HETATM   25  N   UNK N   1      34.405  18.194   7.704  0.00  0.00    -0.306 N 
HETATM   26  C   UNK N   1      33.429  17.494   5.548  0.00  0.00     0.055 A 
HETATM   27  C   UNK N   1      34.823  17.434   8.766  0.00  0.00     0.328 A 
HETATM   28  H   UNK N   1      34.419  19.174   7.614  0.00  0.00     0.171 HD
HETATM   29  O   UNK N   1      35.289  17.911   9.786  0.00  0.00    -0.246 OA
HETATM   30  C   UNK N   1      33.041  16.358   4.802  0.00  0.00     0.036 A 
HETATM   31 Cl   UNK N   1      32.354  16.548   3.206  0.00  0.00    -0.084 Cl
HETATM   32  C   UNK N   1      33.201  15.060   5.335  0.00  0.00     0.026 A 
ENDBRANCH   2  21
TORSDOF 5
ENDMDL
MODEL 7
REMARK VINA RESULT:      -7.8      5.803     11.553
REMARK  5 active torsions:
REMARK  status: ('A' for Active; 'I' for Inactive)
REMARK    1  A    between atoms: N_4  and  C_14 
REMARK    2  A    between atoms: N_5  and  C_9 
REMARK    3  A    between atoms: N_7  and  C_18 
REMARK    4  A    between atoms: C_14  and  C_15 
REMARK    5  A    between atoms: C_15  and  C_18 
ROOT
HETATM    1  N   UNK N   1      27.437  19.033   4.213  0.00  0.00     0.088 N 
HETATM    2  C   UNK N   1      24.579  19.001   4.243  0.00  0.00     0.098 C 
HETATM    3  C   UNK N   1      25.371  18.031   3.380  0.00  0.00     0.056 C 
HETATM    4  C   UNK N   1      25.325  20.324   4.328  0.00  0.00     0.056 C 
HETATM    5  C   UNK N   1      26.692  17.784   4.077  0.00  0.00     0.274 C 
HETATM    6  C   UNK N   1      26.673  20.020   4.994  0.00  0.00     0.274 C 
ENDROOT
BRANCH   1   7
HETATM    7  C   UNK N   1      28.653  18.673   4.935  0.00  0.00     0.274 C 
BRANCH   7   8
HETATM    8  C   UNK N   1      28.364  18.248   6.363  0.00  0.00     0.050 C 
BRANCH   8   9
HETATM    9  C   UNK N   1      29.002  16.906   6.671  0.00  0.00     0.135 C 
BRANCH   9  10
HETATM   10  N   UNK N   1      30.208  17.141   7.441  0.00  0.00    -0.297 N 
HETATM   11  C   UNK N   1      31.462  17.235   6.983  0.00  0.00     0.065 A 
HETATM   12  C   UNK N   1      32.309  17.431   8.038  0.00  0.00     0.063 A 
HETATM   13  C   UNK N   1      31.916  17.156   5.668  0.00  0.00     0.032 A 
HETATM   14  N   UNK N   1      31.613  17.465   9.194  0.00  0.00    -0.306 N 
HETATM   15  C   UNK N   1      33.682  17.562   7.863  0.00  0.00     0.032 A 
HETATM   16  C   UNK N   1      30.320  17.284   8.791  0.00  0.00     0.327 A 
HETATM   17  H   UNK N   1      31.956  17.591  10.109  0.00  0.00     0.171 HD
HETATM   18  O   UNK N   1      29.374  17.239   9.560  0.00  0.00    -0.246 OA
HETATM   19  C   UNK N   1      34.178  17.489   6.546  0.00  0.00     0.002 A 
HETATM   20  C   UNK N   1      33.300  17.287   5.455  0.00  0.00     0.002 A 
ENDBRANCH   9  10
ENDBRANCH   8   9
ENDBRANCH   7   8
ENDBRANCH   1   7
BRANCH   2  21
HETATM   21  N   UNK N   1      23.188  19.062   3.795  0.00  0.00    -0.293 N 
HETATM   22  C   UNK N   1      22.253  18.175   4.163  0.00  0.00     0.066 A 
HETATM   23  C   UNK N   1      21.059  18.505   3.592  0.00  0.00     0.065 A 
HETATM   24  C   UNK N   1      22.401  17.069   4.997  0.00  0.00     0.034 A 
HETATM   25  N   UNK N   1      21.196  19.618   2.841  0.00  0.00    -0.306 N 
HETATM   26  C   UNK N   1      19.911  17.747   3.813  0.00  0.00     0.055 A 
HETATM   27  C   UNK N   1      22.520  19.941   2.986  0.00  0.00     0.328 A 
HETATM   28  H   UNK N   1      20.509  20.086   2.314  0.00  0.00     0.171 HD
HETATM   29  O   UNK N   1      23.036  20.905   2.448  0.00  0.00    -0.246 OA
HETATM   30  C   UNK N   1      20.026  16.617   4.652  0.00  0.00     0.036 A 
HETATM   31 Cl   UNK N   1      18.628  15.617   4.975  0.00  0.00    -0.084 Cl
HETATM   32  C   UNK N   1      21.265  16.282   5.240  0.00  0.00     0.026 A 
ENDBRANCH   2  21
TORSDOF 5
ENDMDL
MODEL 8
REMARK VINA RESULT:      -7.8      4.137     10.046
REMARK  5 active torsions:
REMARK  status: ('A' for Active; 'I' for Inactive)
REMARK    1  A    between atoms: N_4  and  C_14 
REMARK    2  A    between atoms: N_5  and  C_9 
REMARK    3  A    between atoms: N_7  and  C_18 
REMARK    4  A    between atoms: C_14  and  C_15 
REMARK    5  A    between atoms: C_15  and  C_18 
ROOT
HETATM    1  N   UNK N   1      34.994  14.883  10.408  0.00  0.00     0.088 N 
HETATM    2  C   UNK N   1      33.468  16.040   8.285  0.00  0.00     0.098 C 
HETATM    3  C   UNK N   1      33.792  14.554   8.308  0.00  0.00     0.056 C 
HETATM    4  C   UNK N   1      34.622  16.815   8.901  0.00  0.00     0.056 C 
HETATM    5  C   UNK N   1      33.916  14.142   9.759  0.00  0.00     0.274 C 
HETATM    6  C   UNK N   1      34.743  16.333  10.352  0.00  0.00     0.274 C 
ENDROOT
BRANCH   1   7
HETATM    7  C   UNK N   1      34.978  14.437  11.798  0.00  0.00     0.274 C 
BRANCH   7   8
HETATM    8  C   UNK N   1      36.372  14.388  12.397  0.00  0.00     0.050 C 
BRANCH   8   9
HETATM    9  C   UNK N   1      36.625  13.054  13.074  0.00  0.00     0.135 C 
BRANCH   9  10
HETATM   10  N   UNK N   1      35.915  13.042  14.339  0.00  0.00    -0.297 N 
HETATM   11  C   UNK N   1      36.163  13.793  15.418  0.00  0.00     0.065 A 
HETATM   12  C   UNK N   1      35.284  13.453  16.409  0.00  0.00     0.063 A 
HETATM   13  C   UNK N   1      37.134  14.777  15.589  0.00  0.00     0.032 A 
HETATM   14  N   UNK N   1      34.457  12.475  15.983  0.00  0.00    -0.306 N 
HETATM   15  C   UNK N   1      35.308  14.070  17.654  0.00  0.00     0.032 A 
HETATM   16  C   UNK N   1      34.872  12.245  14.701  0.00  0.00     0.327 A 
HETATM   17  H   UNK N   1      33.728  12.034  16.478  0.00  0.00     0.171 HD
HETATM   18  O   UNK N   1      34.372  11.405  13.971  0.00  0.00    -0.246 OA
HETATM   19  C   UNK N   1      36.275  15.072  17.864  0.00  0.00     0.002 A 
HETATM   20  C   UNK N   1      37.184  15.424  16.837  0.00  0.00     0.002 A 
ENDBRANCH   9  10
ENDBRANCH   8   9
ENDBRANCH   7   8
ENDBRANCH   1   7
BRANCH   2  21
HETATM   21  N   UNK N   1      33.046  16.449   6.946  0.00  0.00    -0.293 N 
HETATM   22  C   UNK N   1      31.792  16.813   6.645  0.00  0.00     0.066 A 
HETATM   23  C   UNK N   1      31.716  17.147   5.326  0.00  0.00     0.065 A 
HETATM   24  C   UNK N   1      30.688  16.870   7.494  0.00  0.00     0.034 A 
HETATM   25  N   UNK N   1      32.925  17.009   4.742  0.00  0.00    -0.306 N 
HETATM   26  C   UNK N   1      30.521  17.568   4.746  0.00  0.00     0.055 A 
HETATM   27  C   UNK N   1      33.728  16.578   5.767  0.00  0.00     0.328 A 
HETATM   28  H   UNK N   1      33.173  17.176   3.804  0.00  0.00     0.171 HD
HETATM   29  O   UNK N   1      34.915  16.337   5.631  0.00  0.00    -0.246 OA
HETATM   30  C   UNK N   1      29.381  17.635   5.578  0.00  0.00     0.036 A 
HETATM   31 Cl   UNK N   1      27.845  18.154   4.923  0.00  0.00    -0.084 Cl
HETATM   32  C   UNK N   1      29.467  17.288   6.944  0.00  0.00     0.026 A 
ENDBRANCH   2  21
TORSDOF 5
ENDMDL
MODEL 9
REMARK VINA RESULT:      -7.7      2.889      4.915
REMARK  5 active torsions:
REMARK  status: ('A' for Active; 'I' for Inactive)
REMARK    1  A    between atoms: N_4  and  C_14 
REMARK    2  A    between atoms: N_5  and  C_9 
REMARK    3  A    between atoms: N_7  and  C_18 
REMARK    4  A    between atoms: C_14  and  C_15 
REMARK    5  A    between atoms: C_15  and  C_18 
ROOT
HETATM    1  N   UNK N   1      35.785  13.921   9.638  0.00  0.00     0.088 N 
HETATM    2  C   UNK N   1      35.813  13.125  12.384  0.00  0.00     0.098 C 
HETATM    3  C   UNK N   1      34.836  14.172  11.875  0.00  0.00     0.056 C 
HETATM    4  C   UNK N   1      37.119  13.239  11.612  0.00  0.00     0.056 C 
HETATM    5  C   UNK N   1      34.554  13.856  10.421  0.00  0.00     0.274 C 
HETATM    6  C   UNK N   1      36.780  12.960  10.143  0.00  0.00     0.274 C 
ENDROOT
BRANCH   1   7
HETATM    7  C   UNK N   1      35.392  13.552   8.282  0.00  0.00     0.274 C 
BRANCH   7   8
HETATM    8  C   UNK N   1      34.008  14.065   7.929  0.00  0.00     0.050 C 
BRANCH   8   9
HETATM    9  C   UNK N   1      34.092  15.382   7.180  0.00  0.00     0.135 C 
BRANCH   9  10
HETATM   10  N   UNK N   1      33.060  16.264   7.690  0.00  0.00    -0.297 N 
HETATM   11  C   UNK N   1      31.797  16.373   7.261  0.00  0.00     0.065 A 
HETATM   12  C   UNK N   1      31.161  17.340   7.989  0.00  0.00     0.063 A 
HETATM   13  C   UNK N   1      31.158  15.662   6.248  0.00  0.00     0.032 A 
HETATM   14  N   UNK N   1      32.006  17.871   8.898  0.00  0.00    -0.306 N 
HETATM   15  C   UNK N   1      29.831  17.675   7.760  0.00  0.00     0.032 A 
HETATM   16  C   UNK N   1      33.169  17.184   8.688  0.00  0.00     0.327 A 
HETATM   17  H   UNK N   1      31.827  18.582   9.556  0.00  0.00     0.171 HD
HETATM   18  O   UNK N   1      34.195  17.388   9.316  0.00  0.00    -0.246 OA
HETATM   19  C   UNK N   1      29.151  16.975   6.744  0.00  0.00     0.002 A 
HETATM   20  C   UNK N   1      29.811  15.974   5.992  0.00  0.00     0.002 A 
ENDBRANCH   9  10
ENDBRANCH   8   9
ENDBRANCH   7   8
ENDBRANCH   1   7
BRANCH   2  21
HETATM   21  N   UNK N   1      35.908  13.183  13.842  0.00  0.00    -0.293 N 
HETATM   22  C   UNK N   1      35.519  12.186  14.649  0.00  0.00     0.066 A 
HETATM   23  C   UNK N   1      35.743  12.535  15.948  0.00  0.00     0.065 A 
HETATM   24  C   UNK N   1      34.969  10.957  14.290  0.00  0.00     0.034 A 
HETATM   25  N   UNK N   1      36.286  13.769  16.011  0.00  0.00    -0.306 N 
HETATM   26  C   UNK N   1      35.430  11.675  16.999  0.00  0.00     0.055 A 
HETATM   27  C   UNK N   1      36.378  14.144  14.695  0.00  0.00     0.328 A 
HETATM   28  H   UNK N   1      36.552  14.279  16.809  0.00  0.00     0.171 HD
HETATM   29  O   UNK N   1      36.828  15.219  14.337  0.00  0.00    -0.246 OA
HETATM   30  C   UNK N   1      34.869  10.421  16.671  0.00  0.00     0.036 A 
HETATM   31 Cl   UNK N   1      34.449   9.288  17.935  0.00  0.00    -0.084 Cl
HETATM   32  C   UNK N   1      34.640  10.067  15.323  0.00  0.00     0.026 A 
ENDBRANCH   2  21
TORSDOF 5
ENDMDL
