MODEL 1
REMARK VINA RESULT:      -6.0      0.000      0.000
REMARK  2 active torsions:
REMARK  status: ('A' for Active; 'I' for Inactive)
REMARK    1  A    between atoms: O_1  and  N_3 
REMARK    2  A    between atoms: C_4  and  C_10 
ROOT
HETATM    1  O   UNK N   1      20.182  11.933  11.915  0.00  0.00    -0.266 OA
HETATM    2  N   UNK N   1      20.638  13.309  10.191  0.00  0.00    -0.192 N 
HETATM    3  C   UNK N   1      21.566  13.871   9.349  0.00  0.00     0.048 A 
HETATM    4  C   UNK N   1      22.918  13.514   9.482  0.00  0.00     0.035 A 
HETATM    5  C   UNK N   1      23.307  12.601  10.459  0.00  0.00    -0.055 A 
HETATM    6  C   UNK N   1      21.015  12.415  11.170  0.00  0.00     0.272 A 
HETATM    7  C   UNK N   1      22.354  12.050  11.309  0.00  0.00     0.083 A 
HETATM    8  C   UNK N   1      24.734  12.205  10.584  0.00  0.00     0.048 C 
ENDROOT
BRANCH   3   9
HETATM    9  C   UNK N   1      21.133  14.840   8.264  0.00  0.00     0.038 C 
HETATM   10  C   UNK N   1      20.707  16.190   8.841  0.00  0.00     0.011 C 
HETATM   11  C   UNK N   1      20.127  17.061   7.730  0.00  0.00     0.001 C 
HETATM   12  C   UNK N   1      21.186  17.307   6.662  0.00  0.00     0.000 C 
HETATM   13  C   UNK N   1      21.674  15.981   6.082  0.00  0.00     0.001 C 
HETATM   14  C   UNK N   1      22.206  15.072   7.188  0.00  0.00     0.011 C 
ENDBRANCH   3   9
BRANCH   2  15
HETATM   15  O   UNK N   1      19.326  13.632  10.066  0.00  0.00    -0.280 OA
HETATM   16  H   UNK N   1      19.045  14.252   9.420  0.00  0.00     0.245 HD
ENDBRANCH   2  15
TORSDOF 2
ENDMDL
MODEL 2
REMARK VINA RESULT:      -5.9      8.134      8.674
REMARK  2 active torsions:
REMARK  status: ('A' for Active; 'I' for Inactive)
REMARK    1  A    between atoms: O_1  and  N_3 
REMARK    2  A    between atoms: C_4  and  C_10 
ROOT
HETATM    1  O   UNK N   1      29.317  17.132  10.554  0.00  0.00    -0.266 OA
HETATM    2  N   UNK N   1      28.539  17.929   8.596  0.00  0.00    -0.192 N 
HETATM    3  C   UNK N   1      28.730  18.135   7.252  0.00  0.00     0.048 A 
HETATM    4  C   UNK N   1      29.914  17.682   6.649  0.00  0.00     0.035 A 
HETATM    5  C   UNK N   1      30.882  17.032   7.412  0.00  0.00    -0.055 A 
HETATM    6  C   UNK N   1      29.496  17.299   9.361  0.00  0.00     0.272 A 
HETATM    7  C   UNK N   1      30.676  16.841   8.773  0.00  0.00     0.083 A 
HETATM    8  C   UNK N   1      32.125  16.530   6.769  0.00  0.00     0.048 C 
ENDROOT
BRANCH   3   9
HETATM    9  C   UNK N   1      27.658  18.813   6.418  0.00  0.00     0.038 C 
HETATM   10  C   UNK N   1      27.761  20.338   6.486  0.00  0.00     0.011 C 
HETATM   11  C   UNK N   1      26.567  20.964   5.772  0.00  0.00     0.001 C 
HETATM   12  C   UNK N   1      26.567  20.546   4.305  0.00  0.00     0.000 C 
HETATM   13  C   UNK N   1      26.506  19.025   4.186  0.00  0.00     0.001 C 
HETATM   14  C   UNK N   1      27.663  18.377   4.943  0.00  0.00     0.011 C 
ENDBRANCH   3   9
BRANCH   2  15
HETATM   15  O   UNK N   1      27.393  18.347   9.190  0.00  0.00    -0.280 OA
HETATM   16  H   UNK N   1      27.211  18.128  10.084  0.00  0.00     0.245 HD
ENDBRANCH   2  15
TORSDOF 2
ENDMDL
MODEL 3
REMARK VINA RESULT:      -5.9     12.737     13.665
REMARK  2 active torsions:
REMARK  status: ('A' for Active; 'I' for Inactive)
REMARK    1  A    between atoms: O_1  and  N_3 
REMARK    2  A    between atoms: C_4  and  C_10 
ROOT
HETATM    1  O   UNK N   1      34.772  13.591  13.032  0.00  0.00    -0.266 OA
HETATM    2  N   UNK N   1      34.586  14.613  11.033  0.00  0.00    -0.192 N 
HETATM    3  C   UNK N   1      35.161  14.974   9.839  0.00  0.00     0.048 A 
HETATM    4  C   UNK N   1      36.486  14.591   9.572  0.00  0.00     0.035 A 
HETATM    5  C   UNK N   1      37.204  13.854  10.512  0.00  0.00    -0.055 A 
HETATM    6  C   UNK N   1      35.292  13.896  11.974  0.00  0.00     0.272 A 
HETATM    7  C   UNK N   1      36.607  13.507  11.719  0.00  0.00     0.083 A 
HETATM    8  C   UNK N   1      38.597  13.428  10.219  0.00  0.00     0.048 C 
ENDROOT
BRANCH   3   9
HETATM    9  C   UNK N   1      34.365  15.748   8.804  0.00  0.00     0.038 C 
HETATM   10  C   UNK N   1      34.516  17.259   8.981  0.00  0.00     0.011 C 
HETATM   11  C   UNK N   1      33.569  17.983   8.028  0.00  0.00     0.001 C 
HETATM   12  C   UNK N   1      33.918  17.629   6.587  0.00  0.00     0.000 C 
HETATM   13  C   UNK N   1      33.821  16.121   6.372  0.00  0.00     0.001 C 
HETATM   14  C   UNK N   1      34.720  15.376   7.355  0.00  0.00     0.011 C 
ENDBRANCH   3   9
BRANCH   2  15
HETATM   15  O   UNK N   1      33.302  14.963  11.300  0.00  0.00    -0.280 OA
HETATM   16  H   UNK N   1      33.090  15.837  11.562  0.00  0.00     0.245 HD
ENDBRANCH   2  15
TORSDOF 2
ENDMDL
MODEL 4
REMARK VINA RESULT:      -5.9     17.598     18.252
REMARK  2 active torsions:
REMARK  status: ('A' for Active; 'I' for Inactive)
REMARK    1  A    between atoms: O_1  and  N_3 
REMARK    2  A    between atoms: C_4  and  C_10 
ROOT
HETATM    1  O   UNK N   1      32.176  21.459  -2.201  0.00  0.00    -0.266 OA
HETATM    2  N   UNK N   1      30.512  22.773  -2.966  0.00  0.00    -0.192 N 
HETATM    3  C   UNK N   1      29.620  23.077  -3.964  0.00  0.00     0.048 A 
HETATM    4  C   UNK N   1      29.587  22.283  -5.121  0.00  0.00     0.035 A 
HETATM    5  C   UNK N   1      30.454  21.200  -5.251  0.00  0.00    -0.055 A 
HETATM    6  C   UNK N   1      31.383  21.711  -3.090  0.00  0.00     0.272 A 
HETATM    7  C   UNK N   1      31.358  20.913  -4.234  0.00  0.00     0.083 A 
HETATM    8  C   UNK N   1      30.403  20.345  -6.465  0.00  0.00     0.048 C 
ENDROOT
BRANCH   3   9
HETATM    9  C   UNK N   1      28.654  24.237  -3.804  0.00  0.00     0.038 C 
HETATM   10  C   UNK N   1      29.210  25.529  -4.405  0.00  0.00     0.011 C 
HETATM   11  C   UNK N   1      28.278  26.691  -4.070  0.00  0.00     0.001 C 
HETATM   12  C   UNK N   1      26.899  26.435  -4.668  0.00  0.00     0.000 C 
HETATM   13  C   UNK N   1      26.319  25.131  -4.127  0.00  0.00     0.001 C 
HETATM   14  C   UNK N   1      27.265  23.964  -4.403  0.00  0.00     0.011 C 
ENDBRANCH   3   9
BRANCH   2  15
HETATM   15  O   UNK N   1      30.546  23.521  -1.834  0.00  0.00    -0.280 OA
HETATM   16  H   UNK N   1      29.837  24.097  -1.621  0.00  0.00     0.245 HD
ENDBRANCH   2  15
TORSDOF 2
ENDMDL
MODEL 5
REMARK VINA RESULT:      -5.8     11.486     12.591
REMARK  2 active torsions:
REMARK  status: ('A' for Active; 'I' for Inactive)
REMARK    1  A    between atoms: O_1  and  N_3 
REMARK    2  A    between atoms: C_4  and  C_10 
ROOT
HETATM    1  O   UNK N   1      35.646  17.632  10.326  0.00  0.00    -0.266 OA
HETATM    2  N   UNK N   1      34.293  17.417   8.538  0.00  0.00    -0.192 N 
HETATM    3  C   UNK N   1      33.526  16.610   7.735  0.00  0.00     0.048 A 
HETATM    4  C   UNK N   1      33.414  15.244   8.042  0.00  0.00     0.035 A 
HETATM    5  C   UNK N   1      34.075  14.720   9.150  0.00  0.00    -0.055 A 
HETATM    6  C   UNK N   1      34.962  16.906   9.629  0.00  0.00     0.272 A 
HETATM    7  C   UNK N   1      34.855  15.551   9.946  0.00  0.00     0.083 A 
HETATM    8  C   UNK N   1      33.937  13.280   9.489  0.00  0.00     0.048 C 
ENDROOT
BRANCH   3   9
HETATM    9  C   UNK N   1      32.779  17.191   6.547  0.00  0.00     0.038 C 
HETATM   10  C   UNK N   1      33.510  16.928   5.230  0.00  0.00     0.011 C 
HETATM   11  C   UNK N   1      32.807  17.674   4.099  0.00  0.00     0.001 C 
HETATM   12  C   UNK N   1      31.373  17.173   3.964  0.00  0.00     0.000 C 
HETATM   13  C   UNK N   1      30.614  17.378   5.272  0.00  0.00     0.001 C 
HETATM   14  C   UNK N   1      31.332  16.686   6.428  0.00  0.00     0.011 C 
ENDBRANCH   3   9
BRANCH   2  15
HETATM   15  O   UNK N   1      34.400  18.742   8.263  0.00  0.00    -0.280 OA
HETATM   16  H   UNK N   1      34.906  19.039   7.532  0.00  0.00     0.245 HD
ENDBRANCH   2  15
TORSDOF 2
ENDMDL
MODEL 6
REMARK VINA RESULT:      -5.7     14.504     16.280
REMARK  2 active torsions:
REMARK  status: ('A' for Active; 'I' for Inactive)
REMARK    1  A    between atoms: O_1  and  N_3 
REMARK    2  A    between atoms: C_4  and  C_10 
ROOT
HETATM    1  O   UNK N   1      37.557  16.076  16.158  0.00  0.00    -0.266 OA
HETATM    2  N   UNK N   1      36.597  14.177  15.417  0.00  0.00    -0.192 N 
HETATM    3  C   UNK N   1      35.822  13.074  15.676  0.00  0.00     0.048 A 
HETATM    4  C   UNK N   1      35.278  12.903  16.959  0.00  0.00     0.035 A 
HETATM    5  C   UNK N   1      35.526  13.845  17.955  0.00  0.00    -0.055 A 
HETATM    6  C   UNK N   1      36.860  15.108  16.399  0.00  0.00     0.272 A 
HETATM    7  C   UNK N   1      36.322  14.951  17.677  0.00  0.00     0.083 A 
HETATM    8  C   UNK N   1      34.930  13.676  19.306  0.00  0.00     0.048 C 
ENDROOT
BRANCH   3   9
HETATM    9  C   UNK N   1      35.527  12.067  14.579  0.00  0.00     0.038 C 
HETATM   10  C   UNK N   1      36.566  10.946  14.538  0.00  0.00     0.011 C 
HETATM   11  C   UNK N   1      36.317  10.062  13.319  0.00  0.00     0.001 C 
HETATM   12  C   UNK N   1      34.932   9.432  13.414  0.00  0.00     0.000 C 
HETATM   13  C   UNK N   1      33.860  10.515  13.499  0.00  0.00     0.001 C 
HETATM   14  C   UNK N   1      34.124  11.445  14.680  0.00  0.00     0.011 C 
ENDBRANCH   3   9
BRANCH   2  15
HETATM   15  O   UNK N   1      37.119  14.365  14.178  0.00  0.00    -0.280 OA
HETATM   16  H   UNK N   1      37.470  13.643  13.693  0.00  0.00     0.245 HD
ENDBRANCH   2  15
TORSDOF 2
ENDMDL
MODEL 7
REMARK VINA RESULT:      -5.6     13.590     15.115
REMARK  2 active torsions:
REMARK  status: ('A' for Active; 'I' for Inactive)
REMARK    1  A    between atoms: O_1  and  N_3 
REMARK    2  A    between atoms: C_4  and  C_10 
ROOT
HETATM    1  O   UNK N   1      34.849  15.484   9.266  0.00  0.00    -0.266 OA
HETATM    2  N   UNK N   1      34.876  14.301  11.182  0.00  0.00    -0.192 N 
HETATM    3  C   UNK N   1      35.553  13.471  12.042  0.00  0.00     0.048 A 
HETATM    4  C   UNK N   1      36.872  13.097  11.738  0.00  0.00     0.035 A 
HETATM    5  C   UNK N   1      37.481  13.564  10.575  0.00  0.00    -0.055 A 
HETATM    6  C   UNK N   1      35.465  14.757  10.023  0.00  0.00     0.272 A 
HETATM    7  C   UNK N   1      36.776  14.396   9.712  0.00  0.00     0.083 A 
HETATM    8  C   UNK N   1      38.885  13.188  10.266  0.00  0.00     0.048 C 
ENDROOT
BRANCH   3   9
HETATM    9  C   UNK N   1      34.898  12.992  13.324  0.00  0.00     0.038 C 
HETATM   10  C   UNK N   1      34.616  11.489  13.293  0.00  0.00     0.011 C 
HETATM   11  C   UNK N   1      33.811  11.094  14.528  0.00  0.00     0.001 C 
HETATM   12  C   UNK N   1      34.611  11.409  15.787  0.00  0.00     0.000 C 
HETATM   13  C   UNK N   1      34.952  12.896  15.842  0.00  0.00     0.001 C 
HETATM   14  C   UNK N   1      35.710  13.323  14.587  0.00  0.00     0.011 C 
ENDBRANCH   3   9
BRANCH   2  15
HETATM   15  O   UNK N   1      33.606  14.683  11.469  0.00  0.00    -0.280 OA
HETATM   16  H   UNK N   1      32.920  14.572  10.839  0.00  0.00     0.245 HD
ENDBRANCH   2  15
TORSDOF 2
ENDMDL
MODEL 8
REMARK VINA RESULT:      -5.6     14.106     16.333
REMARK  2 active torsions:
REMARK  status: ('A' for Active; 'I' for Inactive)
REMARK    1  A    between atoms: O_1  and  N_3 
REMARK    2  A    between atoms: C_4  and  C_10 
ROOT
HETATM    1  O   UNK N   1      36.215  14.526  13.095  0.00  0.00    -0.266 OA
HETATM    2  N   UNK N   1      36.017  13.349  15.006  0.00  0.00    -0.192 N 
HETATM    3  C   UNK N   1      35.530  12.245  15.660  0.00  0.00     0.048 A 
HETATM    4  C   UNK N   1      34.796  11.288  14.940  0.00  0.00     0.035 A 
HETATM    5  C   UNK N   1      34.568  11.463  13.578  0.00  0.00    -0.055 A 
HETATM    6  C   UNK N   1      35.785  13.538  13.660  0.00  0.00     0.272 A 
HETATM    7  C   UNK N   1      35.060  12.592  12.934  0.00  0.00     0.083 A 
HETATM    8  C   UNK N   1      33.813  10.438  12.811  0.00  0.00     0.048 C 
ENDROOT
BRANCH   3   9
HETATM    9  C   UNK N   1      35.809  12.042  17.139  0.00  0.00     0.038 C 
HETATM   10  C   UNK N   1      34.937  12.943  18.014  0.00  0.00     0.011 C 
HETATM   11  C   UNK N   1      35.376  12.820  19.470  0.00  0.00     0.001 C 
HETATM   12  C   UNK N   1      35.204  11.380  19.940  0.00  0.00     0.000 C 
HETATM   13  C   UNK N   1      36.027  10.435  19.068  0.00  0.00     0.001 C 
HETATM   14  C   UNK N   1      35.642  10.584  17.598  0.00  0.00     0.011 C 
ENDBRANCH   3   9
BRANCH   2  15
HETATM   15  O   UNK N   1      36.740  14.276  15.684  0.00  0.00    -0.280 OA
HETATM   16  H   UNK N   1      37.203  14.042  16.465  0.00  0.00     0.245 HD
ENDBRANCH   2  15
TORSDOF 2
ENDMDL
MODEL 9
REMARK VINA RESULT:      -5.6      9.218     10.851
REMARK  2 active torsions:
REMARK  status: ('A' for Active; 'I' for Inactive)
REMARK    1  A    between atoms: O_1  and  N_3 
REMARK    2  A    between atoms: C_4  and  C_10 
ROOT
HETATM    1  O   UNK N   1      27.441  17.686   9.404  0.00  0.00    -0.266 OA
HETATM    2  N   UNK N   1      29.650  17.466   9.022  0.00  0.00    -0.192 N 
HETATM    3  C   UNK N   1      30.678  17.315   8.124  0.00  0.00     0.048 A 
HETATM    4  C   UNK N   1      30.389  17.273   6.750  0.00  0.00     0.035 A 
HETATM    5  C   UNK N   1      29.072  17.384   6.309  0.00  0.00    -0.055 A 
HETATM    6  C   UNK N   1      28.342  17.562   8.596  0.00  0.00     0.272 A 
HETATM    7  C   UNK N   1      28.043  17.526   7.234  0.00  0.00     0.083 A 
HETATM    8  C   UNK N   1      28.769  17.364   4.854  0.00  0.00     0.048 C 
ENDROOT
BRANCH   3   9
HETATM    9  C   UNK N   1      32.114  17.228   8.607  0.00  0.00     0.038 C 
HETATM   10  C   UNK N   1      32.572  15.780   8.779  0.00  0.00     0.011 C 
HETATM   11  C   UNK N   1      33.956  15.754   9.422  0.00  0.00     0.001 C 
HETATM   12  C   UNK N   1      34.956  16.472   8.522  0.00  0.00     0.000 C 
HETATM   13  C   UNK N   1      34.518  17.916   8.287  0.00  0.00     0.001 C 
HETATM   14  C   UNK N   1      33.111  17.964   7.696  0.00  0.00     0.011 C 
ENDBRANCH   3   9
BRANCH   2  15
HETATM   15  O   UNK N   1      29.913  17.522  10.352  0.00  0.00    -0.280 OA
HETATM   16  H   UNK N   1      29.642  18.261  10.861  0.00  0.00     0.245 HD
ENDBRANCH   2  15
TORSDOF 2
ENDMDL
