MODEL 1
REMARK VINA RESULT:      -6.9      0.000      0.000
REMARK  2 active torsions:
REMARK  status: ('A' for Active; 'I' for Inactive)
REMARK    1  A    between atoms: C_7  and  O_2 
REMARK    2  A    between atoms: O_4  and  C_21 
ROOT
HETATM    1  O   UNK N   1      32.021  16.699   7.679  0.00  0.00    -0.334 OA
HETATM    2  O   UNK N   1      34.523  17.433   6.486  0.00  0.00    -0.295 OA
HETATM    3  N   UNK N   1      29.259  14.872   3.732  0.00  0.00     0.092 N 
HETATM    4  C   UNK N   1      31.241  15.993   5.581  0.00  0.00     0.058 C 
HETATM    5  C   UNK N   1      31.297  16.338   4.093  0.00  0.00     0.104 C 
HETATM    6  C   UNK N   1      29.808  16.239   3.570  0.00  0.00     0.262 C 
HETATM    7  C   UNK N   1      32.515  16.188   6.469  0.00  0.00     0.214 C 
HETATM    8  C   UNK N   1      30.703  14.557   5.751  0.00  0.00     0.051 C 
HETATM    9  C   UNK N   1      30.323  16.908   6.277  0.00  0.00    -0.001 A 
HETATM   10  C   UNK N   1      31.881  17.741   3.933  0.00  0.00     0.049 C 
HETATM   11  C   UNK N   1      28.834  17.222   4.301  0.00  0.00     0.078 C 
HETATM   12  C   UNK N   1      29.322  14.369   5.111  0.00  0.00     0.273 C 
HETATM   13  C   UNK N   1      29.149  17.430   5.766  0.00  0.00    -0.046 A 
HETATM   14  C   UNK N   1      33.293  17.848   4.524  0.00  0.00     0.084 C 
HETATM   15  C   UNK N   1      33.497  17.184   5.873  0.00  0.00     0.157 C 
HETATM   16  C   UNK N   1      30.790  17.195   7.503  0.00  0.00     0.110 A 
HETATM   17  C   UNK N   1      29.862  13.904   2.823  0.00  0.00     0.310 C 
HETATM   18  C   UNK N   1      28.367  18.239   6.609  0.00  0.00     0.011 A 
HETATM   19  C   UNK N   1      30.035  17.972   8.386  0.00  0.00     0.099 A 
HETATM   20  C   UNK N   1      28.797  18.482   7.938  0.00  0.00     0.040 A 
ENDROOT
BRANCH   5  21
HETATM   21  O   UNK N   1      32.126  15.438   3.412  0.00  0.00    -0.386 OA
HETATM   22  H   UNK N   1      32.121  15.293   2.453  0.00  0.00     0.210 HD
ENDBRANCH   5  21
BRANCH  19  23
HETATM   23  O   UNK N   1      30.481  18.243   9.624  0.00  0.00    -0.358 OA
HETATM   24  H   UNK N   1      30.623  19.123   9.915  0.00  0.00     0.217 HD
ENDBRANCH  19  23
TORSDOF 2
ENDMDL
MODEL 2
REMARK VINA RESULT:      -6.8      2.386      5.068
REMARK  2 active torsions:
REMARK  status: ('A' for Active; 'I' for Inactive)
REMARK    1  A    between atoms: C_7  and  O_2 
REMARK    2  A    between atoms: O_4  and  C_21 
ROOT
HETATM    1  O   UNK N   1      29.807  16.058   5.534  0.00  0.00    -0.334 OA
HETATM    2  O   UNK N   1      27.898  17.212   7.336  0.00  0.00    -0.295 OA
HETATM    3  N   UNK N   1      34.033  15.469   8.421  0.00  0.00     0.092 N 
HETATM    4  C   UNK N   1      31.397  16.019   7.260  0.00  0.00     0.058 C 
HETATM    5  C   UNK N   1      31.884  16.816   8.470  0.00  0.00     0.104 C 
HETATM    6  C   UNK N   1      33.462  16.835   8.366  0.00  0.00     0.262 C 
HETATM    7  C   UNK N   1      29.867  15.969   6.933  0.00  0.00     0.214 C 
HETATM    8  C   UNK N   1      31.961  14.586   7.332  0.00  0.00     0.051 C 
HETATM    9  C   UNK N   1      31.885  16.639   6.018  0.00  0.00    -0.001 A 
HETATM   10  C   UNK N   1      31.277  18.217   8.417  0.00  0.00     0.049 C 
HETATM   11  C   UNK N   1      33.983  17.507   7.051  0.00  0.00     0.078 C 
HETATM   12  C   UNK N   1      33.493  14.561   7.399  0.00  0.00     0.273 C 
HETATM   13  C   UNK N   1      33.110  17.256   5.842  0.00  0.00    -0.046 A 
HETATM   14  C   UNK N   1      29.743  18.180   8.429  0.00  0.00     0.084 C 
HETATM   15  C   UNK N   1      29.100  17.135   7.539  0.00  0.00     0.157 C 
HETATM   16  C   UNK N   1      30.958  16.542   5.051  0.00  0.00     0.110 A 
HETATM   17  C   UNK N   1      33.921  14.856   9.739  0.00  0.00     0.310 C 
HETATM   18  C   UNK N   1      33.428  17.732   4.557  0.00  0.00     0.011 A 
HETATM   19  C   UNK N   1      31.238  16.977   3.753  0.00  0.00     0.099 A 
HETATM   20  C   UNK N   1      32.498  17.561   3.500  0.00  0.00     0.040 A 
ENDROOT
BRANCH   5  21
HETATM   21  O   UNK N   1      31.471  16.203   9.659  0.00  0.00    -0.386 OA
HETATM   22  H   UNK N   1      31.367  16.654  10.511  0.00  0.00     0.210 HD
ENDBRANCH   5  21
BRANCH  19  23
HETATM   23  O   UNK N   1      30.326  16.862   2.773  0.00  0.00    -0.358 OA
HETATM   24  H   UNK N   1      30.055  16.025   2.448  0.00  0.00     0.217 HD
ENDBRANCH  19  23
TORSDOF 2
ENDMDL
MODEL 3
REMARK VINA RESULT:      -6.7     13.432     14.898
REMARK  2 active torsions:
REMARK  status: ('A' for Active; 'I' for Inactive)
REMARK    1  A    between atoms: C_7  and  O_2 
REMARK    2  A    between atoms: O_4  and  C_21 
ROOT
HETATM    1  O   UNK N   1      25.870  25.494  -3.704  0.00  0.00    -0.334 OA
HETATM    2  O   UNK N   1      27.360  23.669  -2.070  0.00  0.00    -0.295 OA
HETATM    3  N   UNK N   1      27.450  24.439  -8.493  0.00  0.00     0.092 N 
HETATM    4  C   UNK N   1      26.918  24.623  -5.614  0.00  0.00     0.058 C 
HETATM    5  C   UNK N   1      28.256  24.079  -6.115  0.00  0.00     0.104 C 
HETATM    6  C   UNK N   1      28.509  24.774  -7.512  0.00  0.00     0.262 C 
HETATM    7  C   UNK N   1      26.448  24.299  -4.157  0.00  0.00     0.214 C 
HETATM    8  C   UNK N   1      25.807  24.245  -6.615  0.00  0.00     0.051 C 
HETATM    9  C   UNK N   1      26.972  26.090  -5.527  0.00  0.00    -0.001 A 
HETATM   10  C   UNK N   1      29.340  24.412  -5.091  0.00  0.00     0.049 C 
HETATM   11  C   UNK N   1      28.580  26.335  -7.417  0.00  0.00     0.078 C 
HETATM   12  C   UNK N   1      26.093  24.763  -8.031  0.00  0.00     0.273 C 
HETATM   13  C   UNK N   1      27.647  26.935  -6.389  0.00  0.00    -0.046 A 
HETATM   14  C   UNK N   1      29.037  23.803  -3.714  0.00  0.00     0.084 C 
HETATM   15  C   UNK N   1      27.602  23.926  -3.239  0.00  0.00     0.157 C 
HETATM   16  C   UNK N   1      26.276  26.521  -4.462  0.00  0.00     0.110 A 
HETATM   17  C   UNK N   1      27.505  23.052  -8.940  0.00  0.00     0.310 C 
HETATM   18  C   UNK N   1      27.527  28.320  -6.181  0.00  0.00     0.011 A 
HETATM   19  C   UNK N   1      26.105  27.888  -4.230  0.00  0.00     0.099 A 
HETATM   20  C   UNK N   1      26.723  28.798  -5.116  0.00  0.00     0.040 A 
ENDROOT
BRANCH   5  21
HETATM   21  O   UNK N   1      28.197  22.686  -6.255  0.00  0.00    -0.386 OA
HETATM   22  H   UNK N   1      27.591  22.211  -6.844  0.00  0.00     0.210 HD
ENDBRANCH   5  21
BRANCH  19  23
HETATM   23  O   UNK N   1      25.389  28.328  -3.183  0.00  0.00    -0.358 OA
HETATM   24  H   UNK N   1      24.995  29.179  -3.178  0.00  0.00     0.217 HD
ENDBRANCH  19  23
TORSDOF 2
ENDMDL
MODEL 4
REMARK VINA RESULT:      -6.6      1.765      2.353
REMARK  2 active torsions:
REMARK  status: ('A' for Active; 'I' for Inactive)
REMARK    1  A    between atoms: C_7  and  O_2 
REMARK    2  A    between atoms: O_4  and  C_21 
ROOT
HETATM    1  O   UNK N   1      31.955  16.126   9.441  0.00  0.00    -0.334 OA
HETATM    2  O   UNK N   1      34.599  17.141   9.890  0.00  0.00    -0.295 OA
HETATM    3  N   UNK N   1      31.887  15.039   4.406  0.00  0.00     0.092 N 
HETATM    4  C   UNK N   1      32.468  15.825   7.171  0.00  0.00     0.058 C 
HETATM    5  C   UNK N   1      33.242  16.457   6.014  0.00  0.00     0.104 C 
HETATM    6  C   UNK N   1      32.265  16.424   4.772  0.00  0.00     0.262 C 
HETATM    7  C   UNK N   1      33.063  15.874   8.618  0.00  0.00     0.214 C 
HETATM    8  C   UNK N   1      32.104  14.371   6.807  0.00  0.00     0.051 C 
HETATM    9  C   UNK N   1      31.217  16.563   7.403  0.00  0.00    -0.001 A 
HETATM   10  C   UNK N   1      33.644  17.878   6.406  0.00  0.00     0.049 C 
HETATM   11  C   UNK N   1      30.939  17.221   5.014  0.00  0.00     0.078 C 
HETATM   12  C   UNK N   1      31.289  14.278   5.512  0.00  0.00     0.273 C 
HETATM   13  C   UNK N   1      30.422  17.146   6.433  0.00  0.00    -0.046 A 
HETATM   14  C   UNK N   1      34.521  17.902   7.665  0.00  0.00     0.084 C 
HETATM   15  C   UNK N   1      34.079  16.993   8.796  0.00  0.00     0.157 C 
HETATM   16  C   UNK N   1      30.942  16.616   8.716  0.00  0.00     0.110 A 
HETATM   17  C   UNK N   1      32.989  14.283   3.821  0.00  0.00     0.310 C 
HETATM   18  C   UNK N   1      29.222  17.755   6.843  0.00  0.00     0.011 A 
HETATM   19  C   UNK N   1      29.749  17.186   9.170  0.00  0.00     0.099 A 
HETATM   20  C   UNK N   1      28.869  17.743   8.217  0.00  0.00     0.040 A 
ENDROOT
BRANCH   5  21
HETATM   21  O   UNK N   1      34.409  15.728   5.750  0.00  0.00    -0.386 OA
HETATM   22  H   UNK N   1      34.898  15.204   6.402  0.00  0.00     0.210 HD
ENDBRANCH   5  21
BRANCH  19  23
HETATM   23  O   UNK N   1      29.453  17.221  10.479  0.00  0.00    -0.358 OA
HETATM   24  H   UNK N   1      29.039  17.965  10.872  0.00  0.00     0.217 HD
ENDBRANCH  19  23
TORSDOF 2
ENDMDL
MODEL 5
REMARK VINA RESULT:      -6.6     12.073     13.856
REMARK  2 active torsions:
REMARK  status: ('A' for Active; 'I' for Inactive)
REMARK    1  A    between atoms: C_7  and  O_2 
REMARK    2  A    between atoms: O_4  and  C_21 
ROOT
HETATM    1  O   UNK N   1      29.109  24.825  -3.333  0.00  0.00    -0.334 OA
HETATM    2  O   UNK N   1      26.385  25.682  -3.077  0.00  0.00    -0.295 OA
HETATM    3  N   UNK N   1      29.622  23.824  -8.361  0.00  0.00     0.092 N 
HETATM    4  C   UNK N   1      28.789  24.532  -5.639  0.00  0.00     0.058 C 
HETATM    5  C   UNK N   1      27.752  24.075  -6.666  0.00  0.00     0.104 C 
HETATM    6  C   UNK N   1      28.523  23.119  -7.661  0.00  0.00     0.262 C 
HETATM    7  C   UNK N   1      28.326  25.336  -4.379  0.00  0.00     0.214 C 
HETATM    8  C   UNK N   1      29.917  25.298  -6.360  0.00  0.00     0.051 C 
HETATM    9  C   UNK N   1      29.386  23.365  -4.971  0.00  0.00    -0.001 A 
HETATM   10  C   UNK N   1      26.614  23.365  -5.936  0.00  0.00     0.049 C 
HETATM   11  C   UNK N   1      29.147  21.869  -6.953  0.00  0.00     0.078 C 
HETATM   12  C   UNK N   1      30.589  24.459  -7.454  0.00  0.00     0.273 C 
HETATM   13  C   UNK N   1      29.659  22.142  -5.556  0.00  0.00    -0.046 A 
HETATM   14  C   UNK N   1      25.930  24.278  -4.909  0.00  0.00     0.084 C 
HETATM   15  C   UNK N   1      26.856  25.119  -4.052  0.00  0.00     0.157 C 
HETATM   16  C   UNK N   1      29.624  23.638  -3.678  0.00  0.00     0.110 A 
HETATM   17  C   UNK N   1      29.145  24.797  -9.337  0.00  0.00     0.310 C 
HETATM   18  C   UNK N   1      30.296  21.165  -4.770  0.00  0.00     0.011 A 
HETATM   19  C   UNK N   1      30.279  22.709  -2.865  0.00  0.00     0.099 A 
HETATM   20  C   UNK N   1      30.637  21.464  -3.427  0.00  0.00     0.040 A 
ENDROOT
BRANCH   5  21
HETATM   21  O   UNK N   1      27.218  25.176  -7.346  0.00  0.00    -0.386 OA
HETATM   22  H   UNK N   1      27.180  25.270  -8.311  0.00  0.00     0.210 HD
ENDBRANCH   5  21
BRANCH  19  23
HETATM   23  O   UNK N   1      30.544  22.982  -1.578  0.00  0.00    -0.358 OA
HETATM   24  H   UNK N   1      31.361  22.748  -1.182  0.00  0.00     0.217 HD
ENDBRANCH  19  23
TORSDOF 2
ENDMDL
MODEL 6
REMARK VINA RESULT:      -6.4      8.478     10.540
REMARK  2 active torsions:
REMARK  status: ('A' for Active; 'I' for Inactive)
REMARK    1  A    between atoms: C_7  and  O_2 
REMARK    2  A    between atoms: O_4  and  C_21 
ROOT
HETATM    1  O   UNK N   1      20.168  18.344   2.571  0.00  0.00    -0.334 OA
HETATM    2  O   UNK N   1      21.856  20.614   3.036  0.00  0.00    -0.295 OA
HETATM    3  N   UNK N   1      21.528  15.017   6.262  0.00  0.00     0.092 N 
HETATM    4  C   UNK N   1      21.153  17.251   4.399  0.00  0.00     0.058 C 
HETATM    5  C   UNK N   1      22.490  17.065   5.117  0.00  0.00     0.104 C 
HETATM    6  C   UNK N   1      22.620  15.514   5.393  0.00  0.00     0.262 C 
HETATM    7  C   UNK N   1      20.789  18.647   3.792  0.00  0.00     0.214 C 
HETATM    8  C   UNK N   1      20.011  16.767   5.316  0.00  0.00     0.051 C 
HETATM    9  C   UNK N   1      21.125  16.442   3.170  0.00  0.00    -0.001 A 
HETATM   10  C   UNK N   1      23.609  17.596   4.223  0.00  0.00     0.049 C 
HETATM   11  C   UNK N   1      22.603  14.654   4.084  0.00  0.00     0.078 C 
HETATM   12  C   UNK N   1      20.183  15.305   5.744  0.00  0.00     0.273 C 
HETATM   13  C   UNK N   1      21.697  15.195   3.001  0.00  0.00    -0.046 A 
HETATM   14  C   UNK N   1      23.424  19.083   3.890  0.00  0.00     0.084 C 
HETATM   15  C   UNK N   1      22.015  19.508   3.526  0.00  0.00     0.157 C 
HETATM   16  C   UNK N   1      20.467  17.094   2.198  0.00  0.00     0.110 A 
HETATM   17  C   UNK N   1      21.639  15.481   7.640  0.00  0.00     0.310 C 
HETATM   18  C   UNK N   1      21.506  14.545   1.769  0.00  0.00     0.011 A 
HETATM   19  C   UNK N   1      20.228  16.478   0.966  0.00  0.00     0.099 A 
HETATM   20  C   UNK N   1      20.738  15.178   0.759  0.00  0.00     0.040 A 
ENDROOT
BRANCH   5  21
HETATM   21  O   UNK N   1      22.507  17.788   6.317  0.00  0.00    -0.386 OA
HETATM   22  H   UNK N   1      21.726  17.993   6.854  0.00  0.00     0.210 HD
ENDBRANCH   5  21
BRANCH  19  23
HETATM   23  O   UNK N   1      19.549  17.111  -0.004  0.00  0.00    -0.358 OA
HETATM   24  H   UNK N   1      18.617  17.204   0.026  0.00  0.00     0.217 HD
ENDBRANCH  19  23
TORSDOF 2
ENDMDL
MODEL 7
REMARK VINA RESULT:      -6.3      8.294     10.007
REMARK  2 active torsions:
REMARK  status: ('A' for Active; 'I' for Inactive)
REMARK    1  A    between atoms: C_7  and  O_2 
REMARK    2  A    between atoms: O_4  and  C_21 
ROOT
HETATM    1  O   UNK N   1      21.366  18.751   6.634  0.00  0.00    -0.334 OA
HETATM    2  O   UNK N   1      20.716  20.009   4.141  0.00  0.00    -0.295 OA
HETATM    3  N   UNK N   1      22.794  13.989   5.279  0.00  0.00     0.092 N 
HETATM    4  C   UNK N   1      21.902  16.776   5.485  0.00  0.00     0.058 C 
HETATM    5  C   UNK N   1      21.475  15.919   4.293  0.00  0.00     0.104 C 
HETATM    6  C   UNK N   1      21.455  14.428   4.819  0.00  0.00     0.262 C 
HETATM    7  C   UNK N   1      21.835  18.336   5.378  0.00  0.00     0.214 C 
HETATM    8  C   UNK N   1      23.311  16.346   5.943  0.00  0.00     0.051 C 
HETATM    9  C   UNK N   1      20.976  16.574   6.609  0.00  0.00    -0.001 A 
HETATM   10  C   UNK N   1      20.103  16.389   3.813  0.00  0.00     0.049 C 
HETATM   11  C   UNK N   1      20.459  14.210   6.007  0.00  0.00     0.078 C 
HETATM   12  C   UNK N   1      23.378  14.858   6.310  0.00  0.00     0.273 C 
HETATM   13  C   UNK N   1      20.355  15.387   6.951  0.00  0.00    -0.046 A 
HETATM   14  C   UNK N   1      20.115  17.863   3.388  0.00  0.00     0.084 C 
HETATM   15  C   UNK N   1      20.866  18.809   4.305  0.00  0.00     0.157 C 
HETATM   16  C   UNK N   1      20.789  17.726   7.273  0.00  0.00     0.110 A 
HETATM   17  C   UNK N   1      23.742  13.810   4.185  0.00  0.00     0.310 C 
HETATM   18  C   UNK N   1      19.552  15.373   8.105  0.00  0.00     0.011 A 
HETATM   19  C   UNK N   1      20.021  17.756   8.441  0.00  0.00     0.099 A 
HETATM   20  C   UNK N   1      19.412  16.558   8.872  0.00  0.00     0.040 A 
ENDROOT
BRANCH   5  21
HETATM   21  O   UNK N   1      22.382  16.062   3.236  0.00  0.00    -0.386 OA
HETATM   22  H   UNK N   1      23.291  15.725   3.232  0.00  0.00     0.210 HD
ENDBRANCH   5  21
BRANCH  19  23
HETATM   23  O   UNK N   1      19.849  18.898   9.126  0.00  0.00    -0.358 OA
HETATM   24  H   UNK N   1      20.036  19.735   8.746  0.00  0.00     0.217 HD
ENDBRANCH  19  23
TORSDOF 2
ENDMDL
MODEL 8
REMARK VINA RESULT:      -6.2      7.826      9.444
REMARK  2 active torsions:
REMARK  status: ('A' for Active; 'I' for Inactive)
REMARK    1  A    between atoms: C_7  and  O_2 
REMARK    2  A    between atoms: O_4  and  C_21 
ROOT
HETATM    1  O   UNK N   1      23.507  18.960   4.302  0.00  0.00    -0.334 OA
HETATM    2  O   UNK N   1      25.825  17.434   3.579  0.00  0.00    -0.295 OA
HETATM    3  N   UNK N   1      20.136  15.406   5.899  0.00  0.00     0.092 N 
HETATM    4  C   UNK N   1      22.403  16.978   4.903  0.00  0.00     0.058 C 
HETATM    5  C   UNK N   1      22.248  15.512   4.497  0.00  0.00     0.104 C 
HETATM    6  C   UNK N   1      20.695  15.215   4.540  0.00  0.00     0.262 C 
HETATM    7  C   UNK N   1      23.800  17.671   4.774  0.00  0.00     0.214 C 
HETATM    8  C   UNK N   1      21.855  17.173   6.331  0.00  0.00     0.051 C 
HETATM    9  C   UNK N   1      21.627  17.837   3.995  0.00  0.00    -0.001 A 
HETATM   10  C   UNK N   1      22.842  15.319   3.103  0.00  0.00     0.049 C 
HETATM   11  C   UNK N   1      19.870  16.120   3.565  0.00  0.00     0.078 C 
HETATM   12  C   UNK N   1      20.389  16.741   6.460  0.00  0.00     0.273 C 
HETATM   13  C   UNK N   1      20.406  17.527   3.425  0.00  0.00    -0.046 A 
HETATM   14  C   UNK N   1      24.329  15.695   3.055  0.00  0.00     0.084 C 
HETATM   15  C   UNK N   1      24.712  16.972   3.777  0.00  0.00     0.157 C 
HETATM   16  C   UNK N   1      22.279  18.989   3.770  0.00  0.00     0.110 A 
HETATM   17  C   UNK N   1      20.569  14.382   6.843  0.00  0.00     0.310 C 
HETATM   18  C   UNK N   1      19.782  18.508   2.633  0.00  0.00     0.011 A 
HETATM   19  C   UNK N   1      21.687  20.004   3.013  0.00  0.00     0.099 A 
HETATM   20  C   UNK N   1      20.412  19.765   2.456  0.00  0.00     0.040 A 
ENDROOT
BRANCH   5  21
HETATM   21  O   UNK N   1      22.939  14.681   5.388  0.00  0.00    -0.386 OA
HETATM   22  H   UNK N   1      22.598  13.850   5.753  0.00  0.00     0.210 HD
ENDBRANCH   5  21
BRANCH  19  23
HETATM   23  O   UNK N   1      22.321  21.169   2.804  0.00  0.00    -0.358 OA
HETATM   24  H   UNK N   1      21.904  21.993   2.967  0.00  0.00     0.217 HD
ENDBRANCH  19  23
TORSDOF 2
ENDMDL
MODEL 9
REMARK VINA RESULT:      -6.1     10.874     12.385
REMARK  2 active torsions:
REMARK  status: ('A' for Active; 'I' for Inactive)
REMARK    1  A    between atoms: C_7  and  O_2 
REMARK    2  A    between atoms: O_4  and  C_21 
ROOT
HETATM    1  O   UNK N   1      37.154  12.600  13.512  0.00  0.00    -0.334 OA
HETATM    2  O   UNK N   1      35.701  11.990  11.117  0.00  0.00    -0.295 OA
HETATM    3  N   UNK N   1      36.254   8.551  16.568  0.00  0.00     0.092 N 
HETATM    4  C   UNK N   1      36.433  10.574  14.452  0.00  0.00     0.058 C 
HETATM    5  C   UNK N   1      35.230   9.634  14.516  0.00  0.00     0.104 C 
HETATM    6  C   UNK N   1      35.060   9.252  16.041  0.00  0.00     0.262 C 
HETATM    7  C   UNK N   1      36.768  11.311  13.113  0.00  0.00     0.214 C 
HETATM    8  C   UNK N   1      37.685   9.835  14.967  0.00  0.00     0.051 C 
HETATM    9  C   UNK N   1      36.206  11.742  15.317  0.00  0.00    -0.001 A 
HETATM   10  C   UNK N   1      34.007  10.357  13.955  0.00  0.00     0.049 C 
HETATM   11  C   UNK N   1      34.805  10.494  16.960  0.00  0.00     0.078 C 
HETATM   12  C   UNK N   1      37.506   9.301  16.393  0.00  0.00     0.273 C 
HETATM   13  C   UNK N   1      35.543  11.742  16.530  0.00  0.00    -0.046 A 
HETATM   14  C   UNK N   1      34.217  10.800  12.501  0.00  0.00     0.084 C 
HETATM   15  C   UNK N   1      35.566  11.417  12.186  0.00  0.00     0.157 C 
HETATM   16  C   UNK N   1      36.725  12.847  14.756  0.00  0.00     0.110 A 
HETATM   17  C   UNK N   1      36.406   7.202  16.034  0.00  0.00     0.310 C 
HETATM   18  C   UNK N   1      35.485  12.951  17.248  0.00  0.00     0.011 A 
HETATM   19  C   UNK N   1      36.715  14.064  15.442  0.00  0.00     0.099 A 
HETATM   20  C   UNK N   1      36.104  14.109  16.715  0.00  0.00     0.040 A 
ENDROOT
BRANCH   5  21
HETATM   21  O   UNK N   1      35.458   8.491  13.739  0.00  0.00    -0.386 OA
HETATM   22  H   UNK N   1      35.481   8.472  12.770  0.00  0.00     0.210 HD
ENDBRANCH   5  21
BRANCH  19  23
HETATM   23  O   UNK N   1      37.254  15.168  14.901  0.00  0.00    -0.358 OA
HETATM   24  H   UNK N   1      37.474  15.214  13.991  0.00  0.00     0.217 HD
ENDBRANCH  19  23
TORSDOF 2
ENDMDL
