REMARK  6 active torsions:
REMARK  status: ('A' for Active; 'I' for Inactive)
REMARK    1  A    between atoms: C_13  and  O_3 
REMARK    2  A    between atoms: C_16  and  N_9 
REMARK       I    between atoms: N_9  and  C_26 
REMARK    3  A    between atoms: C_14  and  C_21 
REMARK    4  A    between atoms: C_16  and  C_22 
REMARK    5  A    between atoms: C_21  and  C_23 
REMARK    6  A    between atoms: C_27  and  C_26 
ROOT
HETATM    1  O   UNK N   1       1.188   2.252   0.214  0.00  0.00    -0.295 OA
HETATM    2  O   UNK N   1       4.133   1.861  -1.329  0.00  0.00    -0.268 OA
HETATM    3  O   UNK N   1       4.185   5.998  -1.110  0.00  0.00    -0.271 OA
HETATM    4  N   UNK N   1       3.321   3.074   0.390  0.00  0.00    -0.277 N 
HETATM    5  N   UNK N   1       2.246   5.450  -0.107  0.00  0.00    -0.338 N 
HETATM    6  C   UNK N   1       1.532   4.671   0.877  0.00  0.00     0.173 C 
HETATM    7  C   UNK N   1       2.001   3.190   0.960  0.00  0.00     0.276 C 
HETATM    8  C   UNK N   1       4.276   4.174   0.409  0.00  0.00     0.185 C 
HETATM    9  C   UNK N   1       0.069   4.886   0.547  0.00  0.00     0.034 C 
HETATM   10  C   UNK N   1       2.108   1.236  -0.191  0.00  0.00     0.227 C 
HETATM   11  C   UNK N   1       1.436   6.387  -0.823  0.00  0.00     0.127 C 
HETATM   12  C   UNK N   1       0.043   6.211  -0.224  0.00  0.00     0.022 C 
HETATM   13  C   UNK N   1       3.315   2.046  -0.442  0.00  0.00     0.281 C 
HETATM   14  C   UNK N   1       3.586   5.302  -0.299  0.00  0.00     0.243 C 
ENDROOT
BRANCH  10  15
HETATM   15  N   UNK N   1       2.364   0.403   0.979  0.00  0.00    -0.320 N 
HETATM   16  C   UNK N   1       3.432  -0.413   1.133  0.00  0.00     0.229 C 
HETATM   17  O   UNK N   1       3.584  -1.004   2.193  0.00  0.00    -0.273 OA
HETATM   18  H   UNK N   1       1.708   0.437   1.713  0.00  0.00     0.166 HD
BRANCH  16  19
HETATM   19  C   UNK N   1       4.415  -0.608   0.021  0.00  0.00     0.129 C 
HETATM   20  C   UNK N   1       5.818  -0.068   0.429  0.00  0.00     0.290 C 
HETATM   21  N   UNK N   1       6.867  -1.092   0.570  0.00  0.00     0.094 N 
HETATM   22  C   UNK N   1       6.812  -2.019  -0.574  0.00  0.00     0.260 C 
HETATM   23  C   UNK N   1       8.134  -0.369   0.591  0.00  0.00     0.310 C 
HETATM   24  C   UNK N   1       5.469  -2.755  -0.466  0.00  0.00    -0.017 C 
HETATM   25  C   UNK N   1       8.074  -2.946  -0.630  0.00  0.00     0.083 C 
HETATM   26  C   UNK N   1       4.367  -2.057  -0.276  0.00  0.00    -0.001 C 
HETATM   27  C   UNK N   1       5.392  -4.198  -0.226  0.00  0.00    -0.015 A 
HETATM   28  C   UNK N   1       6.570  -4.854  -0.051  0.00  0.00     0.011 A 
HETATM   29  C   UNK N   1       4.199  -4.908   0.036  0.00  0.00     0.013 A 
HETATM   30  C   UNK N   1       7.810  -4.353  -0.196  0.00  0.00    -0.008 A 
HETATM   31  C   UNK N   1       6.666  -6.141   0.352  0.00  0.00     0.044 A 
HETATM   32  C   UNK N   1       8.671  -5.392   0.118  0.00  0.00     0.087 A 
HETATM   33 Br   UNK N   1      10.574  -5.305   0.094  0.00  0.00    -0.031 Br
HETATM   34  N   UNK N   1       7.961  -6.502   0.466  0.00  0.00    -0.349 N 
HETATM   35  H   UNK N   1       8.316  -7.378   0.742  0.00  0.00     0.166 HD
HETATM   36  C   UNK N   1       5.522  -6.896   0.618  0.00  0.00     0.030 A 
HETATM   37  C   UNK N   1       4.268  -6.263   0.445  0.00  0.00     0.003 A 
ENDBRANCH  16  19
ENDBRANCH  10  15
BRANCH  10  38
HETATM   38  C   UNK N   1       1.642   0.383  -1.395  0.00  0.00     0.043 C 
HETATM   39  C   UNK N   1       0.574  -0.630  -1.016  0.00  0.00     0.015 C 
HETATM   40  C   UNK N   1       1.133   1.237  -2.544  0.00  0.00     0.015 C 
ENDBRANCH  10  38
BRANCH   7  41
HETATM   41  O   UNK N   1       2.018   2.799   2.305  0.00  0.00    -0.347 OA
HETATM   42  H   UNK N   1       1.789   2.654   3.237  0.00  0.00     0.215 HD
ENDBRANCH   7  41
BRANCH   8  43
HETATM   43  C   UNK N   1       5.647   3.809  -0.177  0.00  0.00     0.039 C 
BRANCH  43  44
HETATM   44  C   UNK N   1       6.790   4.183   0.748  0.00  0.00    -0.020 C 
HETATM   45  C   UNK N   1       8.064   3.543   0.236  0.00  0.00     0.009 C 
HETATM   46  C   UNK N   1       6.972   5.688   0.777  0.00  0.00     0.009 C 
ENDBRANCH  43  44
ENDBRANCH   8  43
TORSDOF 6
