MODEL 1
REMARK VINA RESULT:      -9.2      0.000      0.000
REMARK  6 active torsions:
REMARK  status: ('A' for Active; 'I' for Inactive)
REMARK    1  A    between atoms: C_13  and  O_3 
REMARK    2  A    between atoms: C_16  and  N_9 
REMARK       I    between atoms: N_9  and  C_26 
REMARK    3  A    between atoms: C_14  and  C_21 
REMARK    4  A    between atoms: C_16  and  C_22 
REMARK    5  A    between atoms: C_21  and  C_23 
REMARK    6  A    between atoms: C_27  and  C_26 
ROOT
HETATM    1  O   UNK N   1      24.311  15.149   5.025  0.00  0.00    -0.295 OA
HETATM    2  O   UNK N   1      22.395  15.335   2.286  0.00  0.00    -0.268 OA
HETATM    3  O   UNK N   1      19.410  14.287   4.961  0.00  0.00    -0.271 OA
HETATM    4  N   UNK N   1      22.279  16.028   4.429  0.00  0.00    -0.277 N 
HETATM    5  N   UNK N   1      21.249  14.398   6.254  0.00  0.00    -0.338 N 
HETATM    6  C   UNK N   1      22.413  15.127   6.700  0.00  0.00     0.173 C 
HETATM    7  C   UNK N   1      23.166  15.861   5.554  0.00  0.00     0.276 C 
HETATM    8  C   UNK N   1      20.836  16.150   4.588  0.00  0.00     0.185 C 
HETATM    9  C   UNK N   1      23.222  14.114   7.483  0.00  0.00     0.034 C 
HETATM   10  C   UNK N   1      24.364  15.543   3.652  0.00  0.00     0.227 C 
HETATM   11  C   UNK N   1      21.047  13.144   6.912  0.00  0.00     0.127 C 
HETATM   12  C   UNK N   1      22.198  13.056   7.911  0.00  0.00     0.022 C 
HETATM   13  C   UNK N   1      22.926  15.643   3.342  0.00  0.00     0.281 C 
HETATM   14  C   UNK N   1      20.415  14.900   5.301  0.00  0.00     0.243 C 
ENDROOT
BRANCH  10  15
HETATM   15  N   UNK N   1      24.924  16.890   3.617  0.00  0.00    -0.320 N 
HETATM   16  C   UNK N   1      26.234  17.191   3.770  0.00  0.00     0.229 C 
HETATM   17  O   UNK N   1      26.599  18.351   3.641  0.00  0.00    -0.273 OA
HETATM   18  H   UNK N   1      24.299  17.637   3.471  0.00  0.00     0.166 HD
BRANCH  16  19
HETATM   19  C   UNK N   1      27.231  16.126   4.106  0.00  0.00     0.129 C 
HETATM   20  C   UNK N   1      28.490  16.247   3.195  0.00  0.00     0.290 C 
HETATM   21  N   UNK N   1      29.733  16.622   3.890  0.00  0.00     0.094 N 
HETATM   22  C   UNK N   1      29.871  15.827   5.123  0.00  0.00     0.260 C 
HETATM   23  C   UNK N   1      30.817  16.329   2.960  0.00  0.00     0.310 C 
HETATM   24  C   UNK N   1      28.715  16.252   6.040  0.00  0.00    -0.017 C 
HETATM   25  C   UNK N   1      31.301  15.970   5.748  0.00  0.00     0.083 C 
HETATM   26  C   UNK N   1      27.491  16.295   5.553  0.00  0.00    -0.001 C 
HETATM   27  C   UNK N   1      28.947  16.931   7.317  0.00  0.00    -0.015 A 
HETATM   28  C   UNK N   1      30.238  17.215   7.634  0.00  0.00     0.011 A 
HETATM   29  C   UNK N   1      27.933  17.483   8.131  0.00  0.00     0.013 A 
HETATM   30  C   UNK N   1      31.343  16.835   6.968  0.00  0.00    -0.008 A 
HETATM   31  C   UNK N   1      30.607  17.988   8.681  0.00  0.00     0.044 A 
HETATM   32  C   UNK N   1      32.406  17.392   7.659  0.00  0.00     0.087 A 
HETATM   33 Br   UNK N   1      34.247  17.208   7.205  0.00  0.00    -0.031 Br
HETATM   34  N   UNK N   1      31.950  18.116   8.720  0.00  0.00    -0.349 N 
HETATM   35  H   UNK N   1      32.484  18.623   9.374  0.00  0.00     0.166 HD
HETATM   36  C   UNK N   1      29.651  18.555   9.525  0.00  0.00     0.030 A 
HETATM   37  C   UNK N   1      28.290  18.284   9.244  0.00  0.00     0.003 A 
ENDBRANCH  16  19
ENDBRANCH  10  15
BRANCH  10  38
HETATM   38  C   UNK N   1      25.157  14.582   2.733  0.00  0.00     0.043 C 
HETATM   39  C   UNK N   1      24.737  13.131   2.903  0.00  0.00     0.015 C 
HETATM   40  C   UNK N   1      25.046  14.965   1.267  0.00  0.00     0.015 C 
ENDBRANCH  10  38
BRANCH   7  41
HETATM   41  O   UNK N   1      23.592  17.110   6.024  0.00  0.00    -0.347 OA
HETATM   42  H   UNK N   1      23.726  18.063   6.151  0.00  0.00     0.215 HD
ENDBRANCH   7  41
BRANCH   8  43
HETATM   43  C   UNK N   1      20.091  16.402   3.270  0.00  0.00     0.039 C 
BRANCH  43  44
HETATM   44  C   UNK N   1      19.901  17.881   2.986  0.00  0.00    -0.020 C 
HETATM   45  C   UNK N   1      20.729  18.679   3.972  0.00  0.00     0.009 C 
HETATM   46  C   UNK N   1      20.360  18.209   1.578  0.00  0.00     0.009 C 
ENDBRANCH  43  44
ENDBRANCH   8  43
TORSDOF 6
ENDMDL
MODEL 2
REMARK VINA RESULT:      -8.6      5.875     10.611
REMARK  6 active torsions:
REMARK  status: ('A' for Active; 'I' for Inactive)
REMARK    1  A    between atoms: C_13  and  O_3 
REMARK    2  A    between atoms: C_16  and  N_9 
REMARK       I    between atoms: N_9  and  C_26 
REMARK    3  A    between atoms: C_14  and  C_21 
REMARK    4  A    between atoms: C_16  and  C_22 
REMARK    5  A    between atoms: C_21  and  C_23 
REMARK    6  A    between atoms: C_27  and  C_26 
ROOT
HETATM    1  O   UNK N   1      33.844  14.541   7.557  0.00  0.00    -0.295 OA
HETATM    2  O   UNK N   1      35.706  11.784   7.185  0.00  0.00    -0.268 OA
HETATM    3  O   UNK N   1      36.945  12.758  11.017  0.00  0.00    -0.271 OA
HETATM    4  N   UNK N   1      34.388  12.680   8.781  0.00  0.00    -0.277 N 
HETATM    5  N   UNK N   1      35.452  14.371  10.529  0.00  0.00    -0.338 N 
HETATM    6  C   UNK N   1      34.139  14.750  10.063  0.00  0.00     0.173 C 
HETATM    7  C   UNK N   1      33.644  13.914   8.847  0.00  0.00     0.276 C 
HETATM    8  C   UNK N   1      34.939  12.039   9.967  0.00  0.00     0.185 C 
HETATM    9  C   UNK N   1      34.227  16.247   9.847  0.00  0.00     0.034 C 
HETATM   10  C   UNK N   1      34.046  13.445   6.663  0.00  0.00     0.227 C 
HETATM   11  C   UNK N   1      36.273  15.466  10.945  0.00  0.00     0.127 C 
HETATM   12  C   UNK N   1      35.387  16.693  10.745  0.00  0.00     0.022 C 
HETATM   13  C   UNK N   1      34.794  12.518   7.533  0.00  0.00     0.281 C 
HETATM   14  C   UNK N   1      35.842  13.067  10.582  0.00  0.00     0.243 C 
ENDROOT
BRANCH  10  15
HETATM   15  N   UNK N   1      32.735  12.857   6.407  0.00  0.00    -0.320 N 
HETATM   16  C   UNK N   1      31.760  13.427   5.662  0.00  0.00     0.229 C 
HETATM   17  O   UNK N   1      30.730  12.803   5.449  0.00  0.00    -0.273 OA
HETATM   18  H   UNK N   1      32.545  11.978   6.809  0.00  0.00     0.166 HD
BRANCH  16  19
HETATM   19  C   UNK N   1      31.925  14.808   5.110  0.00  0.00     0.129 C 
HETATM   20  C   UNK N   1      31.040  15.002   3.843  0.00  0.00     0.290 C 
HETATM   21  N   UNK N   1      29.939  15.969   3.990  0.00  0.00     0.094 N 
HETATM   22  C   UNK N   1      30.435  17.188   4.654  0.00  0.00     0.260 C 
HETATM   23  C   UNK N   1      29.482  16.266   2.636  0.00  0.00     0.310 C 
HETATM   24  C   UNK N   1      30.837  16.769   6.075  0.00  0.00    -0.017 C 
HETATM   25  C   UNK N   1      29.393  18.355   4.576  0.00  0.00     0.083 C 
HETATM   26  C   UNK N   1      31.602  15.708   6.240  0.00  0.00    -0.001 C 
HETATM   27  C   UNK N   1      30.145  17.281   7.260  0.00  0.00    -0.015 A 
HETATM   28  C   UNK N   1      29.090  18.110   7.043  0.00  0.00     0.011 A 
HETATM   29  C   UNK N   1      30.361  16.822   8.579  0.00  0.00     0.013 A 
HETATM   30  C   UNK N   1      28.681  18.617   5.866  0.00  0.00    -0.008 A 
HETATM   31  C   UNK N   1      28.242  18.524   8.012  0.00  0.00     0.044 A 
HETATM   32  C   UNK N   1      27.557  19.373   6.156  0.00  0.00     0.087 A 
HETATM   33 Br   UNK N   1      26.521  20.353   4.893  0.00  0.00    -0.031 Br
HETATM   34  N   UNK N   1      27.279  19.310   7.488  0.00  0.00    -0.349 N 
HETATM   35  H   UNK N   1      26.535  19.744   7.966  0.00  0.00     0.166 HD
HETATM   36  C   UNK N   1      28.409  18.111   9.335  0.00  0.00     0.030 A 
HETATM   37  C   UNK N   1      29.498  17.251   9.618  0.00  0.00     0.003 A 
ENDBRANCH  16  19
ENDBRANCH  10  15
BRANCH  10  38
HETATM   38  C   UNK N   1      34.763  13.810   5.342  0.00  0.00     0.043 C 
HETATM   39  C   UNK N   1      36.064  14.562   5.571  0.00  0.00     0.015 C 
HETATM   40  C   UNK N   1      35.038  12.591   4.478  0.00  0.00     0.015 C 
ENDBRANCH  10  38
BRANCH   7  41
HETATM   41  O   UNK N   1      32.279  13.649   9.011  0.00  0.00    -0.347 OA
HETATM   42  H   UNK N   1      31.322  13.735   9.151  0.00  0.00     0.215 HD
ENDBRANCH   7  41
BRANCH   8  43
HETATM   43  C   UNK N   1      35.622  10.694   9.679  0.00  0.00     0.039 C 
BRANCH  43  44
HETATM   44  C   UNK N   1      34.758   9.511  10.073  0.00  0.00    -0.020 C 
HETATM   45  C   UNK N   1      33.790   9.949  11.154  0.00  0.00     0.009 C 
HETATM   46  C   UNK N   1      33.969   9.015   8.877  0.00  0.00     0.009 C 
ENDBRANCH  43  44
ENDBRANCH   8  43
TORSDOF 6
ENDMDL
MODEL 3
REMARK VINA RESULT:      -7.9     10.897     15.392
REMARK  6 active torsions:
REMARK  status: ('A' for Active; 'I' for Inactive)
REMARK    1  A    between atoms: C_13  and  O_3 
REMARK    2  A    between atoms: C_16  and  N_9 
REMARK       I    between atoms: N_9  and  C_26 
REMARK    3  A    between atoms: C_14  and  C_21 
REMARK    4  A    between atoms: C_16  and  C_22 
REMARK    5  A    between atoms: C_21  and  C_23 
REMARK    6  A    between atoms: C_27  and  C_26 
ROOT
HETATM    1  O   UNK N   1      35.731  12.037  11.637  0.00  0.00    -0.295 OA
HETATM    2  O   UNK N   1      36.941  10.222   9.098  0.00  0.00    -0.268 OA
HETATM    3  O   UNK N   1      35.973  13.612   6.922  0.00  0.00    -0.271 OA
HETATM    4  N   UNK N   1      37.136  12.339   9.850  0.00  0.00    -0.277 N 
HETATM    5  N   UNK N   1      35.391  14.162   9.026  0.00  0.00    -0.338 N 
HETATM    6  C   UNK N   1      35.733  14.260  10.425  0.00  0.00     0.173 C 
HETATM    7  C   UNK N   1      36.531  13.036  10.959  0.00  0.00     0.276 C 
HETATM    8  C   UNK N   1      37.523  13.019   8.622  0.00  0.00     0.185 C 
HETATM    9  C   UNK N   1      34.419  14.549  11.121  0.00  0.00     0.034 C 
HETATM   10  C   UNK N   1      36.406  10.806  11.369  0.00  0.00     0.227 C 
HETATM   11  C   UNK N   1      34.093  14.665   8.696  0.00  0.00     0.127 C 
HETATM   12  C   UNK N   1      33.536  15.162  10.027  0.00  0.00     0.022 C 
HETATM   13  C   UNK N   1      36.879  11.049   9.993  0.00  0.00     0.281 C 
HETATM   14  C   UNK N   1      36.263  13.652   8.112  0.00  0.00     0.243 C 
ENDROOT
BRANCH  10  15
HETATM   15  N   UNK N   1      37.574  10.763  12.242  0.00  0.00    -0.320 N 
HETATM   16  C   UNK N   1      37.605  10.195  13.470  0.00  0.00     0.229 C 
HETATM   17  O   UNK N   1      38.665  10.148  14.079  0.00  0.00    -0.273 OA
HETATM   18  H   UNK N   1      38.403  11.180  11.913  0.00  0.00     0.166 HD
BRANCH  16  19
HETATM   19  C   UNK N   1      36.361   9.639  14.090  0.00  0.00     0.129 C 
HETATM   20  C   UNK N   1      36.692   8.382  14.948  0.00  0.00     0.290 C 
HETATM   21  N   UNK N   1      36.480   8.539  16.397  0.00  0.00     0.094 N 
HETATM   22  C   UNK N   1      35.184   9.195  16.641  0.00  0.00     0.260 C 
HETATM   23  C   UNK N   1      36.491   7.190  16.953  0.00  0.00     0.310 C 
HETATM   24  C   UNK N   1      35.305  10.613  16.063  0.00  0.00    -0.017 C 
HETATM   25  C   UNK N   1      34.775   9.127  18.152  0.00  0.00     0.083 C 
HETATM   26  C   UNK N   1      35.776  10.771  14.842  0.00  0.00    -0.001 C 
HETATM   27  C   UNK N   1      35.245  11.804  16.912  0.00  0.00    -0.015 A 
HETATM   28  C   UNK N   1      35.128  11.598  18.251  0.00  0.00     0.011 A 
HETATM   29  C   UNK N   1      35.502  13.122  16.471  0.00  0.00     0.013 A 
HETATM   30  C   UNK N   1      34.934  10.424  18.880  0.00  0.00    -0.008 A 
HETATM   31  C   UNK N   1      35.236  12.575  19.179  0.00  0.00     0.044 A 
HETATM   32  C   UNK N   1      34.912  10.725  20.232  0.00  0.00     0.087 A 
HETATM   33 Br   UNK N   1      34.665   9.472  21.646  0.00  0.00    -0.031 Br
HETATM   34  N   UNK N   1      35.107  12.061  20.420  0.00  0.00    -0.349 N 
HETATM   35  H   UNK N   1      35.145  12.546  21.276  0.00  0.00     0.166 HD
HETATM   36  C   UNK N   1      35.481  13.897  18.803  0.00  0.00     0.030 A 
HETATM   37  C   UNK N   1      35.606  14.169  17.420  0.00  0.00     0.003 A 
ENDBRANCH  16  19
ENDBRANCH  10  15
BRANCH  10  38
HETATM   38  C   UNK N   1      35.534   9.539  11.536  0.00  0.00     0.043 C 
HETATM   39  C   UNK N   1      34.089   9.764  11.123  0.00  0.00     0.015 C 
HETATM   40  C   UNK N   1      36.091   8.350  10.771  0.00  0.00     0.015 C 
ENDBRANCH  10  38
BRANCH   7  41
HETATM   41  O   UNK N   1      37.519  13.493  11.840  0.00  0.00    -0.347 OA
HETATM   42  H   UNK N   1      38.047  14.032  12.451  0.00  0.00     0.215 HD
ENDBRANCH   7  41
BRANCH   8  43
HETATM   43  C   UNK N   1      38.223  12.105   7.606  0.00  0.00     0.039 C 
BRANCH  43  44
HETATM   44  C   UNK N   1      39.694  12.440   7.444  0.00  0.00    -0.020 C 
HETATM   45  C   UNK N   1      39.838  13.937   7.264  0.00  0.00     0.009 C 
HETATM   46  C   UNK N   1      40.469  12.015   8.675  0.00  0.00     0.009 C 
ENDBRANCH  43  44
ENDBRANCH   8  43
TORSDOF 6
ENDMDL
MODEL 4
REMARK VINA RESULT:      -7.8      6.513     12.142
REMARK  6 active torsions:
REMARK  status: ('A' for Active; 'I' for Inactive)
REMARK    1  A    between atoms: C_13  and  O_3 
REMARK    2  A    between atoms: C_16  and  N_9 
REMARK       I    between atoms: N_9  and  C_26 
REMARK    3  A    between atoms: C_14  and  C_21 
REMARK    4  A    between atoms: C_16  and  C_22 
REMARK    5  A    between atoms: C_21  and  C_23 
REMARK    6  A    between atoms: C_27  and  C_26 
ROOT
HETATM    1  O   UNK N   1      34.211  13.389   9.371  0.00  0.00    -0.295 OA
HETATM    2  O   UNK N   1      37.294  13.849  10.591  0.00  0.00    -0.268 OA
HETATM    3  O   UNK N   1      37.311   9.706  10.631  0.00  0.00    -0.271 OA
HETATM    4  N   UNK N   1      36.313  12.538   9.040  0.00  0.00    -0.277 N 
HETATM    5  N   UNK N   1      35.285  10.208   9.790  0.00  0.00    -0.338 N 
HETATM    6  C   UNK N   1      34.480  10.930   8.833  0.00  0.00     0.173 C 
HETATM    7  C   UNK N   1      34.944  12.399   8.611  0.00  0.00     0.276 C 
HETATM    8  C   UNK N   1      37.259  11.430   8.998  0.00  0.00     0.185 C 
HETATM    9  C   UNK N   1      33.056  10.750   9.318  0.00  0.00     0.034 C 
HETATM   10  C   UNK N   1      35.169  14.420   9.619  0.00  0.00     0.227 C 
HETATM   11  C   UNK N   1      34.546   9.326  10.640  0.00  0.00     0.127 C 
HETATM   12  C   UNK N   1      33.102   9.477  10.170  0.00  0.00     0.022 C 
HETATM   13  C   UNK N   1      36.393  13.616   9.802  0.00  0.00     0.281 C 
HETATM   14  C   UNK N   1      36.638  10.355   9.840  0.00  0.00     0.243 C 
ENDROOT
BRANCH  10  15
HETATM   15  N   UNK N   1      35.312  15.175   8.379  0.00  0.00    -0.320 N 
HETATM   16  C   UNK N   1      34.311  15.836   7.752  0.00  0.00     0.229 C 
HETATM   17  O   UNK N   1      34.566  16.503   6.759  0.00  0.00    -0.273 OA
HETATM   18  H   UNK N   1      36.205  15.206   7.966  0.00  0.00     0.166 HD
BRANCH  16  19
HETATM   19  C   UNK N   1      32.903  15.747   8.252  0.00  0.00     0.129 C 
HETATM   20  C   UNK N   1      32.457  17.102   8.878  0.00  0.00     0.290 C 
HETATM   21  N   UNK N   1      31.391  17.809   8.148  0.00  0.00     0.094 N 
HETATM   22  C   UNK N   1      30.327  16.858   7.780  0.00  0.00     0.260 C 
HETATM   23  C   UNK N   1      30.884  18.826   9.063  0.00  0.00     0.310 C 
HETATM   24  C   UNK N   1      30.957  15.874   6.784  0.00  0.00    -0.017 C 
HETATM   25  C   UNK N   1      29.044  17.595   7.264  0.00  0.00     0.083 C 
HETATM   26  C   UNK N   1      32.112  15.313   7.079  0.00  0.00    -0.001 C 
HETATM   27  C   UNK N   1      30.512  15.788   5.391  0.00  0.00    -0.015 A 
HETATM   28  C   UNK N   1      29.544  16.661   5.002  0.00  0.00     0.011 A 
HETATM   29  C   UNK N   1      31.146  15.020   4.389  0.00  0.00     0.013 A 
HETATM   30  C   UNK N   1      28.856  17.514   5.782  0.00  0.00    -0.008 A 
HETATM   31  C   UNK N   1      29.151  16.832   3.720  0.00  0.00     0.044 A 
HETATM   32  C   UNK N   1      28.012  18.204   4.926  0.00  0.00     0.087 A 
HETATM   33 Br   UNK N   1      26.774  19.558   5.438  0.00  0.00    -0.031 Br
HETATM   34  N   UNK N   1      28.200  17.785   3.643  0.00  0.00    -0.349 N 
HETATM   35  H   UNK N   1      27.742  18.110   2.834  0.00  0.00     0.166 HD
HETATM   36  C   UNK N   1      29.735  16.095   2.687  0.00  0.00     0.030 A 
HETATM   37  C   UNK N   1      30.744  15.167   3.038  0.00  0.00     0.003 A 
ENDBRANCH  16  19
ENDBRANCH  10  15
BRANCH  10  38
HETATM   38  C   UNK N   1      34.827  15.352  10.806  0.00  0.00     0.043 C 
HETATM   39  C   UNK N   1      34.937  14.651  12.150  0.00  0.00     0.015 C 
HETATM   40  C   UNK N   1      35.688  16.603  10.824  0.00  0.00     0.015 C 
ENDBRANCH  10  38
BRANCH   7  41
HETATM   41  O   UNK N   1      34.830  12.704   7.248  0.00  0.00    -0.347 OA
HETATM   42  H   UNK N   1      34.501  12.992   6.381  0.00  0.00     0.215 HD
ENDBRANCH   7  41
BRANCH   8  43
HETATM   43  C   UNK N   1      38.682  11.818   9.422  0.00  0.00     0.039 C 
BRANCH  43  44
HETATM   44  C   UNK N   1      39.634  11.902   8.245  0.00  0.00    -0.020 C 
HETATM   45  C   UNK N   1      39.616  13.315   7.699  0.00  0.00     0.009 C 
HETATM   46  C   UNK N   1      41.045  11.562   8.685  0.00  0.00     0.009 C 
ENDBRANCH  43  44
ENDBRANCH   8  43
TORSDOF 6
ENDMDL
MODEL 5
REMARK VINA RESULT:      -7.8      2.889      5.267
REMARK  6 active torsions:
REMARK  status: ('A' for Active; 'I' for Inactive)
REMARK    1  A    between atoms: C_13  and  O_3 
REMARK    2  A    between atoms: C_16  and  N_9 
REMARK       I    between atoms: N_9  and  C_26 
REMARK    3  A    between atoms: C_14  and  C_21 
REMARK    4  A    between atoms: C_16  and  C_22 
REMARK    5  A    between atoms: C_21  and  C_23 
REMARK    6  A    between atoms: C_27  and  C_26 
ROOT
HETATM    1  O   UNK N   1      22.745  16.421   4.135  0.00  0.00    -0.295 OA
HETATM    2  O   UNK N   1      25.779  17.315   3.039  0.00  0.00    -0.268 OA
HETATM    3  O   UNK N   1      23.853  20.902   2.274  0.00  0.00    -0.271 OA
HETATM    4  N   UNK N   1      24.162  18.213   4.328  0.00  0.00    -0.277 N 
HETATM    5  N   UNK N   1      22.233  19.625   3.174  0.00  0.00    -0.338 N 
HETATM    6  C   UNK N   1      21.778  18.759   4.236  0.00  0.00     0.173 C 
HETATM    7  C   UNK N   1      22.855  17.743   4.716  0.00  0.00     0.276 C 
HETATM    8  C   UNK N   1      24.468  19.630   4.183  0.00  0.00     0.185 C 
HETATM    9  C   UNK N   1      20.487  18.161   3.717  0.00  0.00     0.034 C 
HETATM   10  C   UNK N   1      24.093  15.950   4.079  0.00  0.00     0.227 C 
HETATM   11  C   UNK N   1      21.246  19.908   2.177  0.00  0.00     0.127 C 
HETATM   12  C   UNK N   1      20.006  19.157   2.655  0.00  0.00     0.022 C 
HETATM   13  C   UNK N   1      24.807  17.203   3.768  0.00  0.00     0.281 C 
HETATM   14  C   UNK N   1      23.494  20.137   3.161  0.00  0.00     0.243 C 
ENDROOT
BRANCH  10  15
HETATM   15  N   UNK N   1      24.461  15.551   5.433  0.00  0.00    -0.320 N 
HETATM   16  C   UNK N   1      25.720  15.547   5.927  0.00  0.00     0.229 C 
HETATM   17  O   UNK N   1      25.899  15.269   7.105  0.00  0.00    -0.273 OA
HETATM   18  H   UNK N   1      23.736  15.261   6.034  0.00  0.00     0.166 HD
BRANCH  16  19
HETATM   19  C   UNK N   1      26.890  15.866   5.049  0.00  0.00     0.129 C 
HETATM   20  C   UNK N   1      27.984  16.633   5.849  0.00  0.00     0.290 C 
HETATM   21  N   UNK N   1      29.247  15.902   6.044  0.00  0.00     0.094 N 
HETATM   22  C   UNK N   1      29.659  15.278   4.774  0.00  0.00     0.260 C 
HETATM   23  C   UNK N   1      30.225  16.896   6.474  0.00  0.00     0.310 C 
HETATM   24  C   UNK N   1      28.592  14.223   4.448  0.00  0.00    -0.017 C 
HETATM   25  C   UNK N   1      31.128  14.736   4.844  0.00  0.00     0.083 C 
HETATM   26  C   UNK N   1      27.319  14.559   4.502  0.00  0.00    -0.001 C 
HETATM   27  C   UNK N   1      28.902  12.792   4.411  0.00  0.00    -0.015 A 
HETATM   28  C   UNK N   1      30.173  12.431   4.730  0.00  0.00     0.011 A 
HETATM   29  C   UNK N   1      27.943  11.764   4.270  0.00  0.00     0.013 A 
HETATM   30  C   UNK N   1      31.218  13.248   4.957  0.00  0.00    -0.008 A 
HETATM   31  C   UNK N   1      30.573  11.153   4.916  0.00  0.00     0.044 A 
HETATM   32  C   UNK N   1      32.280  12.415   5.272  0.00  0.00     0.087 A 
HETATM   33 Br   UNK N   1      34.050  12.981   5.693  0.00  0.00    -0.031 Br
HETATM   34  N   UNK N   1      31.878  11.113   5.254  0.00  0.00    -0.349 N 
HETATM   35  H   UNK N   1      32.422  10.315   5.447  0.00  0.00     0.166 HD
HETATM   36  C   UNK N   1      29.672  10.094   4.782  0.00  0.00     0.030 A 
HETATM   37  C   UNK N   1      28.335  10.414   4.443  0.00  0.00     0.003 A 
ENDBRANCH  16  19
ENDBRANCH  10  15
BRANCH  10  38
HETATM   38  C   UNK N   1      24.337  14.802   3.071  0.00  0.00     0.043 C 
HETATM   39  C   UNK N   1      24.098  13.429   3.678  0.00  0.00     0.015 C 
HETATM   40  C   UNK N   1      23.491  14.947   1.817  0.00  0.00     0.015 C 
ENDBRANCH  10  38
BRANCH   7  41
HETATM   41  O   UNK N   1      22.775  17.629   6.110  0.00  0.00    -0.347 OA
HETATM   42  H   UNK N   1      22.881  17.336   7.029  0.00  0.00     0.215 HD
ENDBRANCH   7  41
BRANCH   8  43
HETATM   43  C   UNK N   1      25.939  19.911   3.845  0.00  0.00     0.039 C 
BRANCH  43  44
HETATM   44  C   UNK N   1      26.810  20.004   5.083  0.00  0.00    -0.020 C 
HETATM   45  C   UNK N   1      28.262  20.076   4.655  0.00  0.00     0.009 C 
HETATM   46  C   UNK N   1      26.468  21.250   5.875  0.00  0.00     0.009 C 
ENDBRANCH  43  44
ENDBRANCH   8  43
TORSDOF 6
ENDMDL
MODEL 6
REMARK VINA RESULT:      -7.7      1.742      2.133
REMARK  6 active torsions:
REMARK  status: ('A' for Active; 'I' for Inactive)
REMARK    1  A    between atoms: C_13  and  O_3 
REMARK    2  A    between atoms: C_16  and  N_9 
REMARK       I    between atoms: N_9  and  C_26 
REMARK    3  A    between atoms: C_14  and  C_21 
REMARK    4  A    between atoms: C_16  and  C_22 
REMARK    5  A    between atoms: C_21  and  C_23 
REMARK    6  A    between atoms: C_27  and  C_26 
ROOT
HETATM    1  O   UNK N   1      23.726  14.549   4.797  0.00  0.00    -0.295 OA
HETATM    2  O   UNK N   1      21.338  15.190   2.539  0.00  0.00    -0.268 OA
HETATM    3  O   UNK N   1      18.986  15.559   5.930  0.00  0.00    -0.271 OA
HETATM    4  N   UNK N   1      22.028  16.061   4.502  0.00  0.00    -0.277 N 
HETATM    5  N   UNK N   1      21.025  15.094   6.762  0.00  0.00    -0.338 N 
HETATM    6  C   UNK N   1      22.440  15.377   6.815  0.00  0.00     0.173 C 
HETATM    7  C   UNK N   1      23.069  15.677   5.424  0.00  0.00     0.276 C 
HETATM    8  C   UNK N   1      20.805  16.721   4.940  0.00  0.00     0.185 C 
HETATM    9  C   UNK N   1      23.036  14.209   7.574  0.00  0.00     0.034 C 
HETATM   10  C   UNK N   1      23.547  14.773   3.397  0.00  0.00     0.227 C 
HETATM   11  C   UNK N   1      20.592  14.067   7.658  0.00  0.00     0.127 C 
HETATM   12  C   UNK N   1      21.865  13.647   8.389  0.00  0.00     0.022 C 
HETATM   13  C   UNK N   1      22.198  15.371   3.387  0.00  0.00     0.281 C 
HETATM   14  C   UNK N   1      20.190  15.783   5.935  0.00  0.00     0.243 C 
ENDROOT
BRANCH  10  15
HETATM   15  N   UNK N   1      24.498  15.808   3.007  0.00  0.00    -0.320 N 
HETATM   16  C   UNK N   1      25.844  15.688   3.063  0.00  0.00     0.229 C 
HETATM   17  O   UNK N   1      26.543  16.595   2.634  0.00  0.00    -0.273 OA
HETATM   18  H   UNK N   1      24.131  16.661   2.678  0.00  0.00     0.166 HD
BRANCH  16  19
HETATM   19  C   UNK N   1      26.481  14.470   3.656  0.00  0.00     0.129 C 
HETATM   20  C   UNK N   1      27.351  13.735   2.593  0.00  0.00     0.290 C 
HETATM   21  N   UNK N   1      28.800  13.740   2.858  0.00  0.00     0.094 N 
HETATM   22  C   UNK N   1      29.046  13.408   4.272  0.00  0.00     0.260 C 
HETATM   23  C   UNK N   1      29.372  12.725   1.979  0.00  0.00     0.310 C 
HETATM   24  C   UNK N   1      28.451  14.560   5.093  0.00  0.00    -0.017 C 
HETATM   25  C   UNK N   1      30.562  13.113   4.542  0.00  0.00     0.083 C 
HETATM   26  C   UNK N   1      27.224  14.967   4.835  0.00  0.00    -0.001 C 
HETATM   27  C   UNK N   1      29.287  15.444   5.910  0.00  0.00    -0.015 A 
HETATM   28  C   UNK N   1      30.629  15.229   5.868  0.00  0.00     0.011 A 
HETATM   29  C   UNK N   1      28.827  16.609   6.563  0.00  0.00     0.013 A 
HETATM   30  C   UNK N   1      31.273  14.217   5.259  0.00  0.00    -0.008 A 
HETATM   31  C   UNK N   1      31.544  16.059   6.417  0.00  0.00     0.044 A 
HETATM   32  C   UNK N   1      32.621  14.452   5.472  0.00  0.00     0.087 A 
HETATM   33 Br   UNK N   1      34.052  13.356   4.854  0.00  0.00    -0.031 Br
HETATM   34  N   UNK N   1      32.792  15.600   6.186  0.00  0.00    -0.349 N 
HETATM   35  H   UNK N   1      33.642  16.008   6.471  0.00  0.00     0.166 HD
HETATM   36  C   UNK N   1      31.150  17.221   7.083  0.00  0.00     0.030 A 
HETATM   37  C   UNK N   1      29.763  17.489   7.161  0.00  0.00     0.003 A 
ENDBRANCH  16  19
ENDBRANCH  10  15
BRANCH  10  38
HETATM   38  C   UNK N   1      23.699  13.511   2.514  0.00  0.00     0.043 C 
HETATM   39  C   UNK N   1      22.742  12.400   2.912  0.00  0.00     0.015 C 
HETATM   40  C   UNK N   1      23.522  13.816   1.036  0.00  0.00     0.015 C 
ENDBRANCH  10  38
BRANCH   7  41
HETATM   41  O   UNK N   1      23.998  16.716   5.565  0.00  0.00    -0.347 OA
HETATM   42  H   UNK N   1      24.572  17.482   5.405  0.00  0.00     0.215 HD
ENDBRANCH   7  41
BRANCH   8  43
HETATM   43  C   UNK N   1      19.872  17.115   3.787  0.00  0.00     0.039 C 
BRANCH  43  44
HETATM   44  C   UNK N   1      20.061  18.558   3.356  0.00  0.00    -0.020 C 
HETATM   45  C   UNK N   1      21.145  19.185   4.207  0.00  0.00     0.009 C 
HETATM   46  C   UNK N   1      20.480  18.620   1.900  0.00  0.00     0.009 C 
ENDBRANCH  43  44
ENDBRANCH   8  43
TORSDOF 6
ENDMDL
MODEL 7
REMARK VINA RESULT:      -7.6      3.716      6.980
REMARK  6 active torsions:
REMARK  status: ('A' for Active; 'I' for Inactive)
REMARK    1  A    between atoms: C_13  and  O_3 
REMARK    2  A    between atoms: C_16  and  N_9 
REMARK       I    between atoms: N_9  and  C_26 
REMARK    3  A    between atoms: C_14  and  C_21 
REMARK    4  A    between atoms: C_16  and  C_22 
REMARK    5  A    between atoms: C_21  and  C_23 
REMARK    6  A    between atoms: C_27  and  C_26 
ROOT
HETATM    1  O   UNK N   1      28.592  18.686   6.252  0.00  0.00    -0.295 OA
HETATM    2  O   UNK N   1      28.672  15.342   6.117  0.00  0.00    -0.268 OA
HETATM    3  O   UNK N   1      25.567  15.915   3.434  0.00  0.00    -0.271 OA
HETATM    4  N   UNK N   1      28.531  17.048   4.649  0.00  0.00    -0.277 N 
HETATM    5  N   UNK N   1      26.138  18.012   4.022  0.00  0.00    -0.338 N 
HETATM    6  C   UNK N   1      27.157  19.021   4.194  0.00  0.00     0.173 C 
HETATM    7  C   UNK N   1      28.472  18.479   4.824  0.00  0.00     0.276 C 
HETATM    8  C   UNK N   1      27.896  16.375   3.524  0.00  0.00     0.185 C 
HETATM    9  C   UNK N   1      26.467  20.135   4.954  0.00  0.00     0.034 C 
HETATM   10  C   UNK N   1      29.362  17.570   6.704  0.00  0.00     0.227 C 
HETATM   11  C   UNK N   1      24.807  18.462   4.288  0.00  0.00     0.127 C 
HETATM   12  C   UNK N   1      24.976  19.933   4.656  0.00  0.00     0.022 C 
HETATM   13  C   UNK N   1      28.855  16.510   5.813  0.00  0.00     0.281 C 
HETATM   14  C   UNK N   1      26.446  16.750   3.614  0.00  0.00     0.243 C 
ENDROOT
BRANCH  10  15
HETATM   15  N   UNK N   1      30.750  17.835   6.339  0.00  0.00    -0.320 N 
HETATM   16  C   UNK N   1      31.768  16.953   6.463  0.00  0.00     0.229 C 
HETATM   17  O   UNK N   1      32.877  17.259   6.048  0.00  0.00    -0.273 OA
HETATM   18  H   UNK N   1      30.961  18.726   5.974  0.00  0.00     0.166 HD
BRANCH  16  19
HETATM   19  C   UNK N   1      31.554  15.621   7.111  0.00  0.00     0.129 C 
HETATM   20  C   UNK N   1      31.933  14.469   6.133  0.00  0.00     0.290 C 
HETATM   21  N   UNK N   1      33.103  13.668   6.532  0.00  0.00     0.094 N 
HETATM   22  C   UNK N   1      33.008  13.329   7.963  0.00  0.00     0.260 C 
HETATM   23  C   UNK N   1      33.064  12.463   5.710  0.00  0.00     0.310 C 
HETATM   24  C   UNK N   1      33.110  14.658   8.726  0.00  0.00    -0.017 C 
HETATM   25  C   UNK N   1      34.062  12.246   8.373  0.00  0.00     0.083 C 
HETATM   26  C   UNK N   1      32.354  15.672   8.354  0.00  0.00    -0.001 C 
HETATM   27  C   UNK N   1      34.233  14.956   9.617  0.00  0.00    -0.015 A 
HETATM   28  C   UNK N   1      35.215  14.020   9.701  0.00  0.00     0.011 A 
HETATM   29  C   UNK N   1      34.467  16.210  10.226  0.00  0.00     0.013 A 
HETATM   30  C   UNK N   1      35.216  12.791   9.153  0.00  0.00    -0.008 A 
HETATM   31  C   UNK N   1      36.394  14.215  10.333  0.00  0.00     0.044 A 
HETATM   32  C   UNK N   1      36.439  12.233   9.492  0.00  0.00     0.087 A 
HETATM   33 Br   UNK N   1      37.038  10.491   9.008  0.00  0.00    -0.031 Br
HETATM   34  N   UNK N   1      37.175  13.120  10.219  0.00  0.00    -0.349 N 
HETATM   35  H   UNK N   1      38.081  12.991  10.582  0.00  0.00     0.166 HD
HETATM   36  C   UNK N   1      36.679  15.429  10.960  0.00  0.00     0.030 A 
HETATM   37  C   UNK N   1      35.687  16.438  10.909  0.00  0.00     0.003 A 
ENDBRANCH  16  19
ENDBRANCH  10  15
BRANCH  10  38
HETATM   38  C   UNK N   1      29.230  17.261   8.214  0.00  0.00     0.043 C 
HETATM   39  C   UNK N   1      29.958  18.273   9.085  0.00  0.00     0.015 C 
HETATM   40  C   UNK N   1      27.780  17.173   8.660  0.00  0.00     0.015 C 
ENDBRANCH  10  38
BRANCH   7  41
HETATM   41  O   UNK N   1      29.560  19.091   4.188  0.00  0.00    -0.347 OA
HETATM   42  H   UNK N   1      30.451  19.323   3.882  0.00  0.00     0.215 HD
ENDBRANCH   7  41
BRANCH   8  43
HETATM   43  C   UNK N   1      28.153  14.862   3.487  0.00  0.00     0.039 C 
BRANCH  43  44
HETATM   44  C   UNK N   1      29.015  14.450   2.308  0.00  0.00    -0.020 C 
HETATM   45  C   UNK N   1      30.424  14.190   2.799  0.00  0.00     0.009 C 
HETATM   46  C   UNK N   1      28.471  13.183   1.677  0.00  0.00     0.009 C 
ENDBRANCH  43  44
ENDBRANCH   8  43
TORSDOF 6
ENDMDL
MODEL 8
REMARK VINA RESULT:      -7.6      3.854      8.743
REMARK  6 active torsions:
REMARK  status: ('A' for Active; 'I' for Inactive)
REMARK    1  A    between atoms: C_13  and  O_3 
REMARK    2  A    between atoms: C_16  and  N_9 
REMARK       I    between atoms: N_9  and  C_26 
REMARK    3  A    between atoms: C_14  and  C_21 
REMARK    4  A    between atoms: C_16  and  C_22 
REMARK    5  A    between atoms: C_21  and  C_23 
REMARK    6  A    between atoms: C_27  and  C_26 
ROOT
HETATM    1  O   UNK N   1      26.452  16.288   3.933  0.00  0.00    -0.295 OA
HETATM    2  O   UNK N   1      29.387  16.236   5.542  0.00  0.00    -0.268 OA
HETATM    3  O   UNK N   1      28.554  20.260   6.071  0.00  0.00    -0.271 OA
HETATM    4  N   UNK N   1      27.331  17.095   5.890  0.00  0.00    -0.277 N 
HETATM    5  N   UNK N   1      26.765  19.506   4.933  0.00  0.00    -0.338 N 
HETATM    6  C   UNK N   1      25.695  18.546   4.792  0.00  0.00     0.173 C 
HETATM    7  C   UNK N   1      26.126  17.083   5.098  0.00  0.00     0.276 C 
HETATM    8  C   UNK N   1      27.654  18.187   6.800  0.00  0.00     0.185 C 
HETATM    9  C   UNK N   1      25.137  18.797   3.406  0.00  0.00     0.034 C 
HETATM   10  C   UNK N   1      27.453  15.380   4.397  0.00  0.00     0.227 C 
HETATM   11  C   UNK N   1      26.760  20.547   3.952  0.00  0.00     0.127 C 
HETATM   12  C   UNK N   1      25.539  20.242   3.089  0.00  0.00     0.022 C 
HETATM   13  C   UNK N   1      28.182  16.240   5.348  0.00  0.00     0.281 C 
HETATM   14  C   UNK N   1      27.676  19.416   5.941  0.00  0.00     0.243 C 
ENDROOT
BRANCH  10  15
HETATM   15  N   UNK N   1      26.766  14.347   5.166  0.00  0.00    -0.320 N 
HETATM   16  C   UNK N   1      25.969  13.388   4.640  0.00  0.00     0.229 C 
HETATM   17  O   UNK N   1      25.510  12.525   5.374  0.00  0.00    -0.273 OA
HETATM   18  H   UNK N   1      26.892  14.349   6.143  0.00  0.00     0.166 HD
BRANCH  16  19
HETATM   19  C   UNK N   1      25.636  13.383   3.180  0.00  0.00     0.129 C 
HETATM   20  C   UNK N   1      25.180  11.964   2.728  0.00  0.00     0.290 C 
HETATM   21  N   UNK N   1      23.770  11.861   2.314  0.00  0.00     0.094 N 
HETATM   22  C   UNK N   1      23.430  12.989   1.429  0.00  0.00     0.260 C 
HETATM   23  C   UNK N   1      23.651  10.592   1.605  0.00  0.00     0.310 C 
HETATM   24  C   UNK N   1      23.540  14.257   2.288  0.00  0.00    -0.017 C 
HETATM   25  C   UNK N   1      22.044  12.779   0.729  0.00  0.00     0.083 C 
HETATM   26  C   UNK N   1      24.619  14.445   3.021  0.00  0.00    -0.001 C 
HETATM   27  C   UNK N   1      22.374  15.091   2.592  0.00  0.00    -0.015 A 
HETATM   28  C   UNK N   1      21.174  14.663   2.120  0.00  0.00     0.011 A 
HETATM   29  C   UNK N   1      22.376  16.177   3.496  0.00  0.00     0.013 A 
HETATM   30  C   UNK N   1      20.947  13.623   1.297  0.00  0.00    -0.008 A 
HETATM   31  C   UNK N   1      19.987  15.215   2.459  0.00  0.00     0.044 A 
HETATM   32  C   UNK N   1      19.572  13.572   1.131  0.00  0.00     0.087 A 
HETATM   33 Br   UNK N   1      18.627  12.309   0.063  0.00  0.00    -0.031 Br
HETATM   34  N   UNK N   1      18.974  14.557   1.859  0.00  0.00    -0.349 N 
HETATM   35  H   UNK N   1      18.010  14.746   1.932  0.00  0.00     0.166 HD
HETATM   36  C   UNK N   1      19.926  16.296   3.341  0.00  0.00     0.030 A 
HETATM   37  C   UNK N   1      21.148  16.786   3.858  0.00  0.00     0.003 A 
ENDBRANCH  16  19
ENDBRANCH  10  15
BRANCH  10  38
HETATM   38  C   UNK N   1      28.331  14.759   3.285  0.00  0.00     0.043 C 
HETATM   39  C   UNK N   1      29.054  15.809   2.456  0.00  0.00     0.015 C 
HETATM   40  C   UNK N   1      29.347  13.772   3.835  0.00  0.00     0.015 C 
ENDBRANCH  10  38
BRANCH   7  41
HETATM   41  O   UNK N   1      25.092  16.448   5.799  0.00  0.00    -0.347 OA
HETATM   42  H   UNK N   1      24.287  16.264   6.310  0.00  0.00     0.215 HD
ENDBRANCH   7  41
BRANCH   8  43
HETATM   43  C   UNK N   1      28.941  17.958   7.604  0.00  0.00     0.039 C 
BRANCH  43  44
HETATM   44  C   UNK N   1      28.797  18.372   9.057  0.00  0.00    -0.020 C 
HETATM   45  C   UNK N   1      28.565  17.134   9.898  0.00  0.00     0.009 C 
HETATM   46  C   UNK N   1      30.060  19.062   9.534  0.00  0.00     0.009 C 
ENDBRANCH  43  44
ENDBRANCH   8  43
TORSDOF 6
ENDMDL
MODEL 9
REMARK VINA RESULT:      -7.6      4.082      5.870
REMARK  6 active torsions:
REMARK  status: ('A' for Active; 'I' for Inactive)
REMARK    1  A    between atoms: C_13  and  O_3 
REMARK    2  A    between atoms: C_16  and  N_9 
REMARK       I    between atoms: N_9  and  C_26 
REMARK    3  A    between atoms: C_14  and  C_21 
REMARK    4  A    between atoms: C_16  and  C_22 
REMARK    5  A    between atoms: C_21  and  C_23 
REMARK    6  A    between atoms: C_27  and  C_26 
ROOT
HETATM    1  O   UNK N   1      22.575  13.008   6.422  0.00  0.00    -0.295 OA
HETATM    2  O   UNK N   1      19.516  14.295   5.976  0.00  0.00    -0.268 OA
HETATM    3  O   UNK N   1      19.455  14.182  10.118  0.00  0.00    -0.271 OA
HETATM    4  N   UNK N   1      21.294  14.692   7.306  0.00  0.00    -0.277 N 
HETATM    5  N   UNK N   1      21.497  13.384   9.607  0.00  0.00    -0.338 N 
HETATM    6  C   UNK N   1      22.745  13.525   8.894  0.00  0.00     0.173 C 
HETATM    7  C   UNK N   1      22.575  14.042   7.437  0.00  0.00     0.276 C 
HETATM    8  C   UNK N   1      20.641  15.355   8.426  0.00  0.00     0.185 C 
HETATM    9  C   UNK N   1      23.427  12.181   9.047  0.00  0.00     0.034 C 
HETATM   10  C   UNK N   1      21.720  13.523   5.398  0.00  0.00     0.227 C 
HETATM   11  C   UNK N   1      21.430  12.239  10.463  0.00  0.00     0.127 C 
HETATM   12  C   UNK N   1      22.793  11.573  10.303  0.00  0.00     0.022 C 
HETATM   13  C   UNK N   1      20.712  14.226   6.214  0.00  0.00     0.281 C 
HETATM   14  C   UNK N   1      20.493  14.294   9.476  0.00  0.00     0.243 C 
ENDROOT
BRANCH  10  15
HETATM   15  N   UNK N   1      22.486  14.528   4.670  0.00  0.00    -0.320 N 
HETATM   16  C   UNK N   1      23.494  14.263   3.807  0.00  0.00     0.229 C 
HETATM   17  O   UNK N   1      24.011  15.184   3.191  0.00  0.00    -0.273 OA
HETATM   18  H   UNK N   1      22.252  15.474   4.819  0.00  0.00     0.166 HD
BRANCH  16  19
HETATM   19  C   UNK N   1      23.985  12.863   3.609  0.00  0.00     0.129 C 
HETATM   20  C   UNK N   1      23.708  12.385   2.153  0.00  0.00     0.290 C 
HETATM   21  N   UNK N   1      24.908  12.155   1.330  0.00  0.00     0.094 N 
HETATM   22  C   UNK N   1      25.904  11.396   2.106  0.00  0.00     0.260 C 
HETATM   23  C   UNK N   1      24.460  11.389   0.172  0.00  0.00     0.310 C 
HETATM   24  C   UNK N   1      26.337  12.312   3.260  0.00  0.00    -0.017 C 
HETATM   25  C   UNK N   1      27.070  10.874   1.200  0.00  0.00     0.083 C 
HETATM   26  C   UNK N   1      25.415  12.907   3.990  0.00  0.00    -0.001 C 
HETATM   27  C   UNK N   1      27.706  12.821   3.375  0.00  0.00    -0.015 A 
HETATM   28  C   UNK N   1      28.570  12.485   2.380  0.00  0.00     0.011 A 
HETATM   29  C   UNK N   1      28.131  13.784   4.317  0.00  0.00     0.013 A 
HETATM   30  C   UNK N   1      28.349  11.635   1.362  0.00  0.00    -0.008 A 
HETATM   31  C   UNK N   1      29.808  13.012   2.244  0.00  0.00     0.044 A 
HETATM   32  C   UNK N   1      29.509  11.649   0.604  0.00  0.00     0.087 A 
HETATM   33 Br   UNK N   1      29.815  10.637  -0.981  0.00  0.00    -0.031 Br
HETATM   34  N   UNK N   1      30.414  12.511   1.148  0.00  0.00    -0.349 N 
HETATM   35  H   UNK N   1      31.315  12.722   0.812  0.00  0.00     0.166 HD
HETATM   36  C   UNK N   1      30.286  13.962   3.149  0.00  0.00     0.030 A 
HETATM   37  C   UNK N   1      29.429  14.343   4.208  0.00  0.00     0.003 A 
ENDBRANCH  16  19
ENDBRANCH  10  15
BRANCH  10  38
HETATM   38  C   UNK N   1      21.143  12.455   4.439  0.00  0.00     0.043 C 
HETATM   39  C   UNK N   1      20.433  11.330   5.175  0.00  0.00     0.015 C 
HETATM   40  C   UNK N   1      20.197  13.053   3.412  0.00  0.00     0.015 C 
ENDBRANCH  10  38
BRANCH   7  41
HETATM   41  O   UNK N   1      23.608  14.945   7.157  0.00  0.00    -0.347 OA
HETATM   42  H   UNK N   1      24.366  15.547   7.231  0.00  0.00     0.215 HD
ENDBRANCH   7  41
BRANCH   8  43
HETATM   43  C   UNK N   1      19.326  16.052   8.047  0.00  0.00     0.039 C 
BRANCH  43  44
HETATM   44  C   UNK N   1      18.827  16.980   9.139  0.00  0.00    -0.020 C 
HETATM   45  C   UNK N   1      19.573  18.295   9.043  0.00  0.00     0.009 C 
HETATM   46  C   UNK N   1      17.343  17.241   8.970  0.00  0.00     0.009 C 
ENDBRANCH  43  44
ENDBRANCH   8  43
TORSDOF 6
ENDMDL
