MODEL 1
REMARK VINA RESULT:      -6.8      0.000      0.000
REMARK  16 active torsions:
REMARK  status: ('A' for Active; 'I' for Inactive)
REMARK    1  A    between atoms: O_3  and  C_23 
REMARK    2  A    between atoms: O_4  and  C_24 
REMARK    3  A    between atoms: O_5  and  C_31 
REMARK    4  A    between atoms: O_6  and  C_32 
REMARK    5  A    between atoms: N_7  and  C_13 
REMARK    6  A    between atoms: N_7  and  C_21 
REMARK    7  A    between atoms: N_8  and  C_14 
REMARK    8  A    between atoms: N_8  and  C_22 
REMARK    9  A    between atoms: N_9  and  C_25 
REMARK   10  A    between atoms: N_9  and  C_29 
REMARK   11  A    between atoms: N_10  and  C_26 
REMARK   12  A    between atoms: N_10  and  C_30 
REMARK   13  A    between atoms: C_21  and  C_25 
REMARK   14  A    between atoms: C_22  and  C_26 
REMARK   15  A    between atoms: C_29  and  C_31 
REMARK   16  A    between atoms: C_30  and  C_32 
ROOT
HETATM    1  O   UNK N   1      20.207  13.791   8.565  0.00  0.00    -0.286 OA
HETATM    2  O   UNK N   1      25.492  13.560   9.228  0.00  0.00    -0.286 OA
HETATM    3  C   UNK N   1      22.316  14.368   7.685  0.00  0.00     0.058 A 
HETATM    4  C   UNK N   1      23.724  14.270   7.841  0.00  0.00     0.058 A 
HETATM    5  C   UNK N   1      21.792  15.030   6.536  0.00  0.00     0.043 A 
HETATM    6  C   UNK N   1      24.571  14.830   6.840  0.00  0.00     0.043 A 
HETATM    7  C   UNK N   1      21.984  13.089   9.922  0.00  0.00     0.065 A 
HETATM    8  C   UNK N   1      23.383  13.005  10.084  0.00  0.00     0.065 A 
HETATM    9  C   UNK N   1      21.418  13.762   8.718  0.00  0.00     0.199 A 
HETATM   10  C   UNK N   1      24.284  13.599   9.057  0.00  0.00     0.199 A 
HETATM   11  C   UNK N   1      22.651  15.562   5.582  0.00  0.00     0.032 A 
HETATM   12  C   UNK N   1      24.022  15.468   5.735  0.00  0.00     0.032 A 
HETATM   13  C   UNK N   1      21.135  12.528  10.910  0.00  0.00     0.081 A 
HETATM   14  C   UNK N   1      23.911  12.354  11.229  0.00  0.00     0.081 A 
HETATM   15  C   UNK N   1      21.679  11.898  12.027  0.00  0.00     0.040 A 
HETATM   16  C   UNK N   1      23.056  11.808  12.183  0.00  0.00     0.040 A 
ENDROOT
BRANCH   5  17
HETATM   17  N   UNK N   1      20.408  15.191   6.316  0.00  0.00    -0.388 N 
HETATM   18  H   UNK N   1      19.836  14.397   6.219  0.00  0.00     0.159 HD
BRANCH  17  19
HETATM   19  C   UNK N   1      19.824  16.505   6.232  0.00  0.00     0.139 C 
BRANCH  19  20
HETATM   20  C   UNK N   1      19.944  17.188   7.577  0.00  0.00     0.133 C 
BRANCH  20  21
HETATM   21  N   UNK N   1      19.011  16.588   8.516  0.00  0.00    -0.418 N 
HETATM   22  H   UNK N   1      18.741  15.606   8.564  0.00  0.00     0.153 HD
BRANCH  21  23
HETATM   23  C   UNK N   1      18.539  17.662   9.372  0.00  0.00     0.139 C 
BRANCH  23  24
HETATM   24  C   UNK N   1      19.614  18.722   9.499  0.00  0.00     0.183 C 
BRANCH  24  25
HETATM   25  O   UNK N   1      19.249  19.647  10.477  0.00  0.00    -0.399 OA
HETATM   26  H   UNK N   1      18.801  20.507  10.463  0.00  0.00     0.209 HD
ENDBRANCH  24  25
ENDBRANCH  23  24
ENDBRANCH  21  23
ENDBRANCH  20  21
ENDBRANCH  19  20
ENDBRANCH  17  19
ENDBRANCH   5  17
BRANCH   6  27
HETATM   27  N   UNK N   1      25.978  14.756   6.906  0.00  0.00    -0.388 N 
HETATM   28  H   UNK N   1      26.415  14.561   7.766  0.00  0.00     0.159 HD
BRANCH  27  29
HETATM   29  C   UNK N   1      26.783  14.962   5.730  0.00  0.00     0.139 C 
BRANCH  29  30
HETATM   30  C   UNK N   1      27.750  16.098   5.983  0.00  0.00     0.133 C 
BRANCH  30  31
HETATM   31  N   UNK N   1      27.444  16.728   7.256  0.00  0.00    -0.418 N 
HETATM   32  H   UNK N   1      26.522  16.829   7.680  0.00  0.00     0.153 HD
BRANCH  31  33
HETATM   33  C   UNK N   1      28.707  17.188   7.803  0.00  0.00     0.139 C 
BRANCH  33  34
HETATM   34  C   UNK N   1      28.504  17.651   9.232  0.00  0.00     0.183 C 
BRANCH  34  35
HETATM   35  O   UNK N   1      27.265  18.279   9.351  0.00  0.00    -0.399 OA
HETATM   36  H   UNK N   1      26.792  18.951   8.835  0.00  0.00     0.209 HD
ENDBRANCH  34  35
ENDBRANCH  33  34
ENDBRANCH  31  33
ENDBRANCH  30  31
ENDBRANCH  29  30
ENDBRANCH  27  29
ENDBRANCH   6  27
BRANCH  13  37
HETATM   37  O   UNK N   1      19.796  12.593  10.800  0.00  0.00    -0.360 OA
HETATM   38  H   UNK N   1      19.397  12.804   9.978  0.00  0.00     0.217 HD
ENDBRANCH  13  37
BRANCH  14  39
HETATM   39  O   UNK N   1      25.238  12.243  11.420  0.00  0.00    -0.360 OA
HETATM   40  H   UNK N   1      25.574  11.693  12.098  0.00  0.00     0.217 HD
ENDBRANCH  14  39
TORSDOF 16
ENDMDL
MODEL 2
REMARK VINA RESULT:      -6.7      1.950      2.529
REMARK  16 active torsions:
REMARK  status: ('A' for Active; 'I' for Inactive)
REMARK    1  A    between atoms: O_3  and  C_23 
REMARK    2  A    between atoms: O_4  and  C_24 
REMARK    3  A    between atoms: O_5  and  C_31 
REMARK    4  A    between atoms: O_6  and  C_32 
REMARK    5  A    between atoms: N_7  and  C_13 
REMARK    6  A    between atoms: N_7  and  C_21 
REMARK    7  A    between atoms: N_8  and  C_14 
REMARK    8  A    between atoms: N_8  and  C_22 
REMARK    9  A    between atoms: N_9  and  C_25 
REMARK   10  A    between atoms: N_9  and  C_29 
REMARK   11  A    between atoms: N_10  and  C_26 
REMARK   12  A    between atoms: N_10  and  C_30 
REMARK   13  A    between atoms: C_21  and  C_25 
REMARK   14  A    between atoms: C_22  and  C_26 
REMARK   15  A    between atoms: C_29  and  C_31 
REMARK   16  A    between atoms: C_30  and  C_32 
ROOT
HETATM    1  O   UNK N   1      20.202  13.957   8.392  0.00  0.00    -0.286 OA
HETATM    2  O   UNK N   1      25.459  13.602   9.201  0.00  0.00    -0.286 OA
HETATM    3  C   UNK N   1      22.347  14.502   7.581  0.00  0.00     0.058 A 
HETATM    4  C   UNK N   1      23.747  14.371   7.776  0.00  0.00     0.058 A 
HETATM    5  C   UNK N   1      21.870  15.192   6.428  0.00  0.00     0.043 A 
HETATM    6  C   UNK N   1      24.635  14.929   6.809  0.00  0.00     0.043 A 
HETATM    7  C   UNK N   1      21.923  13.197   9.787  0.00  0.00     0.065 A 
HETATM    8  C   UNK N   1      23.315  13.079   9.988  0.00  0.00     0.065 A 
HETATM    9  C   UNK N   1      21.406  13.900   8.579  0.00  0.00     0.199 A 
HETATM   10  C   UNK N   1      24.258  13.670   8.996  0.00  0.00     0.199 A 
HETATM   11  C   UNK N   1      22.767  15.720   5.508  0.00  0.00     0.032 A 
HETATM   12  C   UNK N   1      24.130  15.595   5.698  0.00  0.00     0.032 A 
HETATM   13  C   UNK N   1      21.034  12.639  10.742  0.00  0.00     0.081 A 
HETATM   14  C   UNK N   1      23.796  12.400  11.137  0.00  0.00     0.081 A 
HETATM   15  C   UNK N   1      21.533  11.980  11.864  0.00  0.00     0.040 A 
HETATM   16  C   UNK N   1      22.902  11.858  12.057  0.00  0.00     0.040 A 
ENDROOT
BRANCH   5  17
HETATM   17  N   UNK N   1      20.497  15.387   6.172  0.00  0.00    -0.388 N 
HETATM   18  H   UNK N   1      19.832  14.838   6.646  0.00  0.00     0.159 HD
BRANCH  17  19
HETATM   19  C   UNK N   1      20.057  16.379   5.226  0.00  0.00     0.139 C 
BRANCH  19  20
HETATM   20  C   UNK N   1      19.530  15.686   3.988  0.00  0.00     0.133 C 
BRANCH  20  21
HETATM   21  N   UNK N   1      19.405  16.647   2.905  0.00  0.00    -0.418 N 
HETATM   22  H   UNK N   1      18.869  16.531   2.045  0.00  0.00     0.153 HD
BRANCH  21  23
HETATM   23  C   UNK N   1      20.195  17.804   3.286  0.00  0.00     0.139 C 
BRANCH  23  24
HETATM   24  C   UNK N   1      19.538  19.064   2.762  0.00  0.00     0.183 C 
BRANCH  24  25
HETATM   25  O   UNK N   1      18.239  18.777   2.341  0.00  0.00    -0.399 OA
HETATM   26  H   UNK N   1      17.756  18.893   1.507  0.00  0.00     0.209 HD
ENDBRANCH  24  25
ENDBRANCH  23  24
ENDBRANCH  21  23
ENDBRANCH  20  21
ENDBRANCH  19  20
ENDBRANCH  17  19
ENDBRANCH   5  17
BRANCH   6  27
HETATM   27  N   UNK N   1      26.037  14.823   6.913  0.00  0.00    -0.388 N 
HETATM   28  H   UNK N   1      26.447  14.648   7.791  0.00  0.00     0.159 HD
BRANCH  27  29
HETATM   29  C   UNK N   1      26.876  14.968   5.752  0.00  0.00     0.139 C 
BRANCH  29  30
HETATM   30  C   UNK N   1      27.887  16.064   6.003  0.00  0.00     0.133 C 
BRANCH  30  31
HETATM   31  N   UNK N   1      27.450  16.888   7.118  0.00  0.00    -0.418 N 
HETATM   32  H   UNK N   1      26.640  16.725   7.715  0.00  0.00     0.153 HD
BRANCH  31  33
HETATM   33  C   UNK N   1      28.391  17.989   7.212  0.00  0.00     0.139 C 
BRANCH  33  34
HETATM   34  C   UNK N   1      28.315  18.608   8.592  0.00  0.00     0.183 C 
BRANCH  34  35
HETATM   35  O   UNK N   1      27.398  17.904   9.373  0.00  0.00    -0.399 OA
HETATM   36  H   UNK N   1      26.892  18.109  10.175  0.00  0.00     0.209 HD
ENDBRANCH  34  35
ENDBRANCH  33  34
ENDBRANCH  31  33
ENDBRANCH  30  31
ENDBRANCH  29  30
ENDBRANCH  27  29
ENDBRANCH   6  27
BRANCH  13  37
HETATM   37  O   UNK N   1      19.701  12.734  10.595  0.00  0.00    -0.360 OA
HETATM   38  H   UNK N   1      19.175  11.961  10.530  0.00  0.00     0.217 HD
ENDBRANCH  13  37
BRANCH  14  39
HETATM   39  O   UNK N   1      25.114  12.258  11.364  0.00  0.00    -0.360 OA
HETATM   40  H   UNK N   1      25.710  12.159  10.648  0.00  0.00     0.217 HD
ENDBRANCH  14  39
TORSDOF 16
ENDMDL
MODEL 3
REMARK VINA RESULT:      -6.6      1.766      6.001
REMARK  16 active torsions:
REMARK  status: ('A' for Active; 'I' for Inactive)
REMARK    1  A    between atoms: O_3  and  C_23 
REMARK    2  A    between atoms: O_4  and  C_24 
REMARK    3  A    between atoms: O_5  and  C_31 
REMARK    4  A    between atoms: O_6  and  C_32 
REMARK    5  A    between atoms: N_7  and  C_13 
REMARK    6  A    between atoms: N_7  and  C_21 
REMARK    7  A    between atoms: N_8  and  C_14 
REMARK    8  A    between atoms: N_8  and  C_22 
REMARK    9  A    between atoms: N_9  and  C_25 
REMARK   10  A    between atoms: N_9  and  C_29 
REMARK   11  A    between atoms: N_10  and  C_26 
REMARK   12  A    between atoms: N_10  and  C_30 
REMARK   13  A    between atoms: C_21  and  C_25 
REMARK   14  A    between atoms: C_22  and  C_26 
REMARK   15  A    between atoms: C_29  and  C_31 
REMARK   16  A    between atoms: C_30  and  C_32 
ROOT
HETATM    1  O   UNK N   1      25.451  13.516   9.072  0.00  0.00    -0.286 OA
HETATM    2  O   UNK N   1      20.201  13.999   8.280  0.00  0.00    -0.286 OA
HETATM    3  C   UNK N   1      23.753  14.292   7.633  0.00  0.00     0.058 A 
HETATM    4  C   UNK N   1      22.356  14.457   7.442  0.00  0.00     0.058 A 
HETATM    5  C   UNK N   1      24.650  14.794   6.645  0.00  0.00     0.043 A 
HETATM    6  C   UNK N   1      21.892  15.126   6.271  0.00  0.00     0.043 A 
HETATM    7  C   UNK N   1      23.298  13.079   9.885  0.00  0.00     0.065 A 
HETATM    8  C   UNK N   1      21.908  13.231   9.688  0.00  0.00     0.065 A 
HETATM    9  C   UNK N   1      24.251  13.613   8.871  0.00  0.00     0.199 A 
HETATM   10  C   UNK N   1      21.405  13.912   8.462  0.00  0.00     0.199 A 
HETATM   11  C   UNK N   1      24.159  15.441   5.518  0.00  0.00     0.032 A 
HETATM   12  C   UNK N   1      22.799  15.600   5.331  0.00  0.00     0.032 A 
HETATM   13  C   UNK N   1      23.766  12.421  11.051  0.00  0.00     0.081 A 
HETATM   14  C   UNK N   1      21.010  12.728  10.664  0.00  0.00     0.081 A 
HETATM   15  C   UNK N   1      22.863  11.933  11.992  0.00  0.00     0.040 A 
HETATM   16  C   UNK N   1      21.496  12.088  11.802  0.00  0.00     0.040 A 
ENDROOT
BRANCH   5  17
HETATM   17  N   UNK N   1      26.050  14.651   6.746  0.00  0.00    -0.388 N 
HETATM   18  H   UNK N   1      26.436  14.186   7.522  0.00  0.00     0.159 HD
BRANCH  17  19
HETATM   19  C   UNK N   1      26.919  15.178   5.726  0.00  0.00     0.139 C 
BRANCH  19  20
HETATM   20  C   UNK N   1      27.948  16.082   6.369  0.00  0.00     0.133 C 
BRANCH  20  21
HETATM   21  N   UNK N   1      27.279  17.168   7.065  0.00  0.00    -0.418 N 
HETATM   22  H   UNK N   1      26.321  17.169   7.415  0.00  0.00     0.153 HD
BRANCH  21  23
HETATM   23  C   UNK N   1      28.240  18.251   7.161  0.00  0.00     0.139 C 
BRANCH  23  24
HETATM   24  C   UNK N   1      28.327  18.728   8.597  0.00  0.00     0.183 C 
BRANCH  24  25
HETATM   25  O   UNK N   1      27.443  17.997   9.390  0.00  0.00    -0.399 OA
HETATM   26  H   UNK N   1      26.505  17.760   9.318  0.00  0.00     0.209 HD
ENDBRANCH  24  25
ENDBRANCH  23  24
ENDBRANCH  21  23
ENDBRANCH  20  21
ENDBRANCH  19  20
ENDBRANCH  17  19
ENDBRANCH   5  17
BRANCH   6  27
HETATM   27  N   UNK N   1      20.524  15.353   6.017  0.00  0.00    -0.388 N 
HETATM   28  H   UNK N   1      19.865  14.660   6.250  0.00  0.00     0.159 HD
BRANCH  27  29
HETATM   29  C   UNK N   1      20.080  16.586   5.419  0.00  0.00     0.139 C 
BRANCH  29  30
HETATM   30  C   UNK N   1      19.288  16.274   4.168  0.00  0.00     0.133 C 
BRANCH  30  31
HETATM   31  N   UNK N   1      19.296  17.428   3.284  0.00  0.00    -0.418 N 
HETATM   32  H   UNK N   1      18.501  17.809   2.771  0.00  0.00     0.153 HD
BRANCH  31  33
HETATM   33  C   UNK N   1      20.657  17.931   3.274  0.00  0.00     0.139 C 
BRANCH  33  34
HETATM   34  C   UNK N   1      20.650  19.413   2.959  0.00  0.00     0.183 C 
BRANCH  34  35
HETATM   35  O   UNK N   1      20.604  20.146   4.145  0.00  0.00    -0.399 OA
HETATM   36  H   UNK N   1      20.496  21.087   4.357  0.00  0.00     0.209 HD
ENDBRANCH  34  35
ENDBRANCH  33  34
ENDBRANCH  31  33
ENDBRANCH  30  31
ENDBRANCH  29  30
ENDBRANCH  27  29
ENDBRANCH   6  27
BRANCH  13  37
HETATM   37  O   UNK N   1      25.081  12.247  11.275  0.00  0.00    -0.360 OA
HETATM   38  H   UNK N   1      25.403  12.140  12.149  0.00  0.00     0.217 HD
ENDBRANCH  13  37
BRANCH  14  39
HETATM   39  O   UNK N   1      19.679  12.857  10.521  0.00  0.00    -0.360 OA
HETATM   40  H   UNK N   1      19.120  12.856  11.272  0.00  0.00     0.217 HD
ENDBRANCH  14  39
TORSDOF 16
ENDMDL
MODEL 4
REMARK VINA RESULT:      -6.5      3.790      8.139
REMARK  16 active torsions:
REMARK  status: ('A' for Active; 'I' for Inactive)
REMARK    1  A    between atoms: O_3  and  C_23 
REMARK    2  A    between atoms: O_4  and  C_24 
REMARK    3  A    between atoms: O_5  and  C_31 
REMARK    4  A    between atoms: O_6  and  C_32 
REMARK    5  A    between atoms: N_7  and  C_13 
REMARK    6  A    between atoms: N_7  and  C_21 
REMARK    7  A    between atoms: N_8  and  C_14 
REMARK    8  A    between atoms: N_8  and  C_22 
REMARK    9  A    between atoms: N_9  and  C_25 
REMARK   10  A    between atoms: N_9  and  C_29 
REMARK   11  A    between atoms: N_10  and  C_26 
REMARK   12  A    between atoms: N_10  and  C_30 
REMARK   13  A    between atoms: C_21  and  C_25 
REMARK   14  A    between atoms: C_22  and  C_26 
REMARK   15  A    between atoms: C_29  and  C_31 
REMARK   16  A    between atoms: C_30  and  C_32 
ROOT
HETATM    1  O   UNK N   1      24.090  20.562   3.427  0.00  0.00    -0.286 OA
HETATM    2  O   UNK N   1      21.760  15.849   4.310  0.00  0.00    -0.286 OA
HETATM    3  C   UNK N   1      24.377  18.351   4.190  0.00  0.00     0.058 A 
HETATM    4  C   UNK N   1      23.766  17.084   4.386  0.00  0.00     0.058 A 
HETATM    5  C   UNK N   1      25.761  18.505   4.496  0.00  0.00     0.043 A 
HETATM    6  C   UNK N   1      24.557  16.003   4.877  0.00  0.00     0.043 A 
HETATM    7  C   UNK N   1      22.112  19.309   3.355  0.00  0.00     0.065 A 
HETATM    8  C   UNK N   1      21.501  18.054   3.563  0.00  0.00     0.065 A 
HETATM    9  C   UNK N   1      23.562  19.485   3.653  0.00  0.00     0.199 A 
HETATM   10  C   UNK N   1      22.308  16.917   4.091  0.00  0.00     0.199 A 
HETATM   11  C   UNK N   1      26.498  17.427   4.971  0.00  0.00     0.032 A 
HETATM   12  C   UNK N   1      25.903  16.195   5.164  0.00  0.00     0.032 A 
HETATM   13  C   UNK N   1      21.333  20.387   2.861  0.00  0.00     0.081 A 
HETATM   14  C   UNK N   1      20.123  17.895   3.267  0.00  0.00     0.081 A 
HETATM   15  C   UNK N   1      19.980  20.205   2.581  0.00  0.00     0.040 A 
HETATM   16  C   UNK N   1      19.381  18.968   2.780  0.00  0.00     0.040 A 
ENDROOT
BRANCH   5  17
HETATM   17  N   UNK N   1      26.439  19.734   4.353  0.00  0.00    -0.388 N 
HETATM   18  H   UNK N   1      26.341  20.249   3.520  0.00  0.00     0.159 HD
BRANCH  17  19
HETATM   19  C   UNK N   1      27.273  20.243   5.411  0.00  0.00     0.139 C 
BRANCH  19  20
HETATM   20  C   UNK N   1      26.399  20.679   6.567  0.00  0.00     0.133 C 
BRANCH  20  21
HETATM   21  N   UNK N   1      26.898  20.101   7.803  0.00  0.00    -0.418 N 
HETATM   22  H   UNK N   1      26.466  20.166   8.725  0.00  0.00     0.153 HD
BRANCH  21  23
HETATM   23  C   UNK N   1      28.133  19.416   7.469  0.00  0.00     0.139 C 
BRANCH  23  24
HETATM   24  C   UNK N   1      28.232  18.129   8.263  0.00  0.00     0.183 C 
BRANCH  24  25
HETATM   25  O   UNK N   1      27.423  18.212   9.396  0.00  0.00    -0.399 OA
HETATM   26  H   UNK N   1      27.332  18.852  10.119  0.00  0.00     0.209 HD
ENDBRANCH  24  25
ENDBRANCH  23  24
ENDBRANCH  21  23
ENDBRANCH  20  21
ENDBRANCH  19  20
ENDBRANCH  17  19
ENDBRANCH   5  17
BRANCH   6  27
HETATM   27  N   UNK N   1      24.034  14.709   5.077  0.00  0.00    -0.388 N 
HETATM   28  H   UNK N   1      23.530  14.271   4.354  0.00  0.00     0.159 HD
BRANCH  27  29
HETATM   29  C   UNK N   1      24.231  14.020   6.326  0.00  0.00     0.139 C 
BRANCH  29  30
HETATM   30  C   UNK N   1      22.884  13.737   6.955  0.00  0.00     0.133 C 
BRANCH  30  31
HETATM   31  N   UNK N   1      22.239  14.990   7.312  0.00  0.00    -0.418 N 
HETATM   32  H   UNK N   1      22.683  15.905   7.387  0.00  0.00     0.153 HD
BRANCH  31  33
HETATM   33  C   UNK N   1      20.839  14.682   7.543  0.00  0.00     0.139 C 
BRANCH  33  34
HETATM   34  C   UNK N   1      20.020  15.954   7.474  0.00  0.00     0.183 C 
BRANCH  34  35
HETATM   35  O   UNK N   1      19.463  16.086   6.202  0.00  0.00    -0.399 OA
HETATM   36  H   UNK N   1      18.746  16.623   5.828  0.00  0.00     0.209 HD
ENDBRANCH  34  35
ENDBRANCH  33  34
ENDBRANCH  31  33
ENDBRANCH  30  31
ENDBRANCH  29  30
ENDBRANCH  27  29
ENDBRANCH   6  27
BRANCH  13  37
HETATM   37  O   UNK N   1      21.872  21.602   2.655  0.00  0.00    -0.360 OA
HETATM   38  H   UNK N   1      22.765  21.685   2.381  0.00  0.00     0.217 HD
ENDBRANCH  13  37
BRANCH  14  39
HETATM   39  O   UNK N   1      19.502  16.715   3.443  0.00  0.00    -0.360 OA
HETATM   40  H   UNK N   1      18.637  16.683   3.799  0.00  0.00     0.217 HD
ENDBRANCH  14  39
TORSDOF 16
ENDMDL
MODEL 5
REMARK VINA RESULT:      -6.5      3.711      6.667
REMARK  16 active torsions:
REMARK  status: ('A' for Active; 'I' for Inactive)
REMARK    1  A    between atoms: O_3  and  C_23 
REMARK    2  A    between atoms: O_4  and  C_24 
REMARK    3  A    between atoms: O_5  and  C_31 
REMARK    4  A    between atoms: O_6  and  C_32 
REMARK    5  A    between atoms: N_7  and  C_13 
REMARK    6  A    between atoms: N_7  and  C_21 
REMARK    7  A    between atoms: N_8  and  C_14 
REMARK    8  A    between atoms: N_8  and  C_22 
REMARK    9  A    between atoms: N_9  and  C_25 
REMARK   10  A    between atoms: N_9  and  C_29 
REMARK   11  A    between atoms: N_10  and  C_26 
REMARK   12  A    between atoms: N_10  and  C_30 
REMARK   13  A    between atoms: C_21  and  C_25 
REMARK   14  A    between atoms: C_22  and  C_26 
REMARK   15  A    between atoms: C_29  and  C_31 
REMARK   16  A    between atoms: C_30  and  C_32 
ROOT
HETATM    1  O   UNK N   1      21.528  15.845   4.274  0.00  0.00    -0.286 OA
HETATM    2  O   UNK N   1      24.274  20.356   3.550  0.00  0.00    -0.286 OA
HETATM    3  C   UNK N   1      23.625  16.907   4.447  0.00  0.00     0.058 A 
HETATM    4  C   UNK N   1      24.346  18.121   4.293  0.00  0.00     0.058 A 
HETATM    5  C   UNK N   1      24.303  15.759   4.952  0.00  0.00     0.043 A 
HETATM    6  C   UNK N   1      25.725  18.156   4.655  0.00  0.00     0.043 A 
HETATM    7  C   UNK N   1      21.483  18.072   3.549  0.00  0.00     0.065 A 
HETATM    8  C   UNK N   1      22.204  19.274   3.382  0.00  0.00     0.065 A 
HETATM    9  C   UNK N   1      22.171  16.866   4.092  0.00  0.00     0.199 A 
HETATM   10  C   UNK N   1      23.650  19.325   3.740  0.00  0.00     0.199 A 
HETATM   11  C   UNK N   1      25.647  15.835   5.295  0.00  0.00     0.032 A 
HETATM   12  C   UNK N   1      26.350  17.015   5.144  0.00  0.00     0.032 A 
HETATM   13  C   UNK N   1      20.109  18.031   3.197  0.00  0.00     0.081 A 
HETATM   14  C   UNK N   1      21.537  20.418   2.873  0.00  0.00     0.081 A 
HETATM   15  C   UNK N   1      19.479  19.168   2.695  0.00  0.00     0.040 A 
HETATM   16  C   UNK N   1      20.187  20.352   2.538  0.00  0.00     0.040 A 
ENDROOT
BRANCH   5  17
HETATM   17  N   UNK N   1      23.667  14.510   5.114  0.00  0.00    -0.388 N 
HETATM   18  H   UNK N   1      23.213  14.094   4.347  0.00  0.00     0.159 HD
BRANCH  17  19
HETATM   19  C   UNK N   1      23.676  13.838   6.387  0.00  0.00     0.139 C 
BRANCH  19  20
HETATM   20  C   UNK N   1      22.634  14.466   7.287  0.00  0.00     0.133 C 
BRANCH  20  21
HETATM   21  N   UNK N   1      21.310  14.019   6.889  0.00  0.00    -0.418 N 
HETATM   22  H   UNK N   1      21.085  13.182   6.352  0.00  0.00     0.153 HD
BRANCH  21  23
HETATM   23  C   UNK N   1      20.372  14.999   7.406  0.00  0.00     0.139 C 
BRANCH  23  24
HETATM   24  C   UNK N   1      21.096  16.298   7.690  0.00  0.00     0.183 C 
BRANCH  24  25
HETATM   25  O   UNK N   1      20.573  16.888   8.840  0.00  0.00    -0.399 OA
HETATM   26  H   UNK N   1      20.871  17.592   9.437  0.00  0.00     0.209 HD
ENDBRANCH  24  25
ENDBRANCH  23  24
ENDBRANCH  21  23
ENDBRANCH  20  21
ENDBRANCH  19  20
ENDBRANCH  17  19
ENDBRANCH   5  17
BRANCH   6  27
HETATM   27  N   UNK N   1      26.507  19.326   4.556  0.00  0.00    -0.388 N 
HETATM   28  H   UNK N   1      26.345  19.957   3.819  0.00  0.00     0.159 HD
BRANCH  27  29
HETATM   29  C   UNK N   1      27.539  19.605   5.520  0.00  0.00     0.139 C 
BRANCH  29  30
HETATM   30  C   UNK N   1      26.987  20.526   6.587  0.00  0.00     0.133 C 
BRANCH  30  31
HETATM   31  N   UNK N   1      27.138  19.907   7.893  0.00  0.00    -0.418 N 
HETATM   32  H   UNK N   1      26.583  20.100   8.727  0.00  0.00     0.153 HD
BRANCH  31  33
HETATM   33  C   UNK N   1      28.233  18.961   7.778  0.00  0.00     0.139 C 
BRANCH  33  34
HETATM   34  C   UNK N   1      28.477  18.300   9.119  0.00  0.00     0.183 C 
BRANCH  34  35
HETATM   35  O   UNK N   1      27.451  17.397   9.392  0.00  0.00    -0.399 OA
HETATM   36  H   UNK N   1      26.490  17.475   9.501  0.00  0.00     0.209 HD
ENDBRANCH  34  35
ENDBRANCH  33  34
ENDBRANCH  31  33
ENDBRANCH  30  31
ENDBRANCH  29  30
ENDBRANCH  27  29
ENDBRANCH   6  27
BRANCH  13  37
HETATM   37  O   UNK N   1      19.386  16.905   3.331  0.00  0.00    -0.360 OA
HETATM   38  H   UNK N   1      19.369  16.267   2.644  0.00  0.00     0.217 HD
ENDBRANCH  13  37
BRANCH  14  39
HETATM   39  O   UNK N   1      22.183  21.586   2.706  0.00  0.00    -0.360 OA
HETATM   40  H   UNK N   1      21.703  22.373   2.545  0.00  0.00     0.217 HD
ENDBRANCH  14  39
TORSDOF 16
ENDMDL
MODEL 6
REMARK VINA RESULT:      -6.5      5.061      8.412
REMARK  16 active torsions:
REMARK  status: ('A' for Active; 'I' for Inactive)
REMARK    1  A    between atoms: O_3  and  C_23 
REMARK    2  A    between atoms: O_4  and  C_24 
REMARK    3  A    between atoms: O_5  and  C_31 
REMARK    4  A    between atoms: O_6  and  C_32 
REMARK    5  A    between atoms: N_7  and  C_13 
REMARK    6  A    between atoms: N_7  and  C_21 
REMARK    7  A    between atoms: N_8  and  C_14 
REMARK    8  A    between atoms: N_8  and  C_22 
REMARK    9  A    between atoms: N_9  and  C_25 
REMARK   10  A    between atoms: N_9  and  C_29 
REMARK   11  A    between atoms: N_10  and  C_26 
REMARK   12  A    between atoms: N_10  and  C_30 
REMARK   13  A    between atoms: C_21  and  C_25 
REMARK   14  A    between atoms: C_22  and  C_26 
REMARK   15  A    between atoms: C_29  and  C_31 
REMARK   16  A    between atoms: C_30  and  C_32 
ROOT
HETATM    1  O   UNK N   1      24.273  20.536   3.382  0.00  0.00    -0.286 OA
HETATM    2  O   UNK N   1      21.763  15.920   4.281  0.00  0.00    -0.286 OA
HETATM    3  C   UNK N   1      24.480  18.311   4.132  0.00  0.00     0.058 A 
HETATM    4  C   UNK N   1      23.819  17.069   4.331  0.00  0.00     0.058 A 
HETATM    5  C   UNK N   1      25.874  18.406   4.416  0.00  0.00     0.043 A 
HETATM    6  C   UNK N   1      24.571  15.954   4.805  0.00  0.00     0.043 A 
HETATM    7  C   UNK N   1      22.244  19.367   3.335  0.00  0.00     0.065 A 
HETATM    8  C   UNK N   1      21.584  18.137   3.548  0.00  0.00     0.065 A 
HETATM    9  C   UNK N   1      23.704  19.481   3.611  0.00  0.00     0.199 A 
HETATM   10  C   UNK N   1      22.351  16.965   4.058  0.00  0.00     0.199 A 
HETATM   11  C   UNK N   1      26.571  17.296   4.875  0.00  0.00     0.032 A 
HETATM   12  C   UNK N   1      25.928  16.088   5.072  0.00  0.00     0.032 A 
HETATM   13  C   UNK N   1      21.503  20.479   2.858  0.00  0.00     0.081 A 
HETATM   14  C   UNK N   1      20.196  18.037   3.273  0.00  0.00     0.081 A 
HETATM   15  C   UNK N   1      20.140  20.355   2.599  0.00  0.00     0.040 A 
HETATM   16  C   UNK N   1      19.493  19.143   2.801  0.00  0.00     0.040 A 
ENDROOT
BRANCH   5  17
HETATM   17  N   UNK N   1      26.600  19.606   4.268  0.00  0.00    -0.388 N 
HETATM   18  H   UNK N   1      26.565  20.092   3.413  0.00  0.00     0.159 HD
BRANCH  17  19
HETATM   19  C   UNK N   1      27.391  20.127   5.352  0.00  0.00     0.139 C 
BRANCH  19  20
HETATM   20  C   UNK N   1      26.472  20.555   6.476  0.00  0.00     0.133 C 
BRANCH  20  21
HETATM   21  N   UNK N   1      26.972  20.039   7.740  0.00  0.00    -0.418 N 
HETATM   22  H   UNK N   1      26.560  20.180   8.662  0.00  0.00     0.153 HD
BRANCH  21  23
HETATM   23  C   UNK N   1      28.173  19.285   7.431  0.00  0.00     0.139 C 
BRANCH  23  24
HETATM   24  C   UNK N   1      28.222  18.034   8.284  0.00  0.00     0.183 C 
BRANCH  24  25
HETATM   25  O   UNK N   1      27.409  18.196   9.405  0.00  0.00    -0.399 OA
HETATM   26  H   UNK N   1      27.482  18.704  10.228  0.00  0.00     0.209 HD
ENDBRANCH  24  25
ENDBRANCH  23  24
ENDBRANCH  21  23
ENDBRANCH  20  21
ENDBRANCH  19  20
ENDBRANCH  17  19
ENDBRANCH   5  17
BRANCH   6  27
HETATM   27  N   UNK N   1      23.999  14.682   5.007  0.00  0.00    -0.388 N 
HETATM   28  H   UNK N   1      23.249  14.581   5.637  0.00  0.00     0.159 HD
BRANCH  27  29
HETATM   29  C   UNK N   1      24.497  13.529   4.303  0.00  0.00     0.139 C 
BRANCH  29  30
HETATM   30  C   UNK N   1      24.307  13.734   2.816  0.00  0.00     0.133 C 
BRANCH  30  31
HETATM   31  N   UNK N   1      22.889  13.718   2.497  0.00  0.00    -0.418 N 
HETATM   32  H   UNK N   1      22.148  13.269   3.035  0.00  0.00     0.153 HD
BRANCH  31  33
HETATM   33  C   UNK N   1      22.736  14.464   1.261  0.00  0.00     0.139 C 
BRANCH  33  34
HETATM   34  C   UNK N   1      21.275  14.803   1.050  0.00  0.00     0.183 C 
BRANCH  34  35
HETATM   35  O   UNK N   1      20.534  14.407   2.163  0.00  0.00    -0.399 OA
HETATM   36  H   UNK N   1      19.806  13.781   2.306  0.00  0.00     0.209 HD
ENDBRANCH  34  35
ENDBRANCH  33  34
ENDBRANCH  31  33
ENDBRANCH  30  31
ENDBRANCH  29  30
ENDBRANCH  27  29
ENDBRANCH   6  27
BRANCH  13  37
HETATM   37  O   UNK N   1      22.089  21.671   2.649  0.00  0.00    -0.360 OA
HETATM   38  H   UNK N   1      21.689  22.303   2.083  0.00  0.00     0.217 HD
ENDBRANCH  13  37
BRANCH  14  39
HETATM   39  O   UNK N   1      19.530  16.883   3.453  0.00  0.00    -0.360 OA
HETATM   40  H   UNK N   1      19.003  16.528   2.766  0.00  0.00     0.217 HD
ENDBRANCH  14  39
TORSDOF 16
ENDMDL
MODEL 7
REMARK VINA RESULT:      -6.5      3.617      6.300
REMARK  16 active torsions:
REMARK  status: ('A' for Active; 'I' for Inactive)
REMARK    1  A    between atoms: O_3  and  C_23 
REMARK    2  A    between atoms: O_4  and  C_24 
REMARK    3  A    between atoms: O_5  and  C_31 
REMARK    4  A    between atoms: O_6  and  C_32 
REMARK    5  A    between atoms: N_7  and  C_13 
REMARK    6  A    between atoms: N_7  and  C_21 
REMARK    7  A    between atoms: N_8  and  C_14 
REMARK    8  A    between atoms: N_8  and  C_22 
REMARK    9  A    between atoms: N_9  and  C_25 
REMARK   10  A    between atoms: N_9  and  C_29 
REMARK   11  A    between atoms: N_10  and  C_26 
REMARK   12  A    between atoms: N_10  and  C_30 
REMARK   13  A    between atoms: C_21  and  C_25 
REMARK   14  A    between atoms: C_22  and  C_26 
REMARK   15  A    between atoms: C_29  and  C_31 
REMARK   16  A    between atoms: C_30  and  C_32 
ROOT
HETATM    1  O   UNK N   1      20.114  16.271   4.495  0.00  0.00    -0.286 OA
HETATM    2  O   UNK N   1      24.600  19.127   4.121  0.00  0.00    -0.286 OA
HETATM    3  C   UNK N   1      22.405  16.394   5.035  0.00  0.00     0.058 A 
HETATM    4  C   UNK N   1      23.590  17.174   4.971  0.00  0.00     0.058 A 
HETATM    5  C   UNK N   1      22.436  15.145   5.722  0.00  0.00     0.043 A 
HETATM    6  C   UNK N   1      24.773  16.689   5.601  0.00  0.00     0.043 A 
HETATM    7  C   UNK N   1      21.142  18.207   3.668  0.00  0.00     0.065 A 
HETATM    8  C   UNK N   1      22.323  18.976   3.592  0.00  0.00     0.065 A 
HETATM    9  C   UNK N   1      21.151  16.907   4.397  0.00  0.00     0.199 A 
HETATM   10  C   UNK N   1      23.574  18.476   4.230  0.00  0.00     0.199 A 
HETATM   11  C   UNK N   1      23.609  14.707   6.325  0.00  0.00     0.032 A 
HETATM   12  C   UNK N   1      24.762  15.466   6.261  0.00  0.00     0.032 A 
HETATM   13  C   UNK N   1      19.960  18.687   3.049  0.00  0.00     0.081 A 
HETATM   14  C   UNK N   1      22.301  20.216   2.904  0.00  0.00     0.081 A 
HETATM   15  C   UNK N   1      19.966  19.907   2.376  0.00  0.00     0.040 A 
HETATM   16  C   UNK N   1      21.126  20.667   2.307  0.00  0.00     0.040 A 
ENDROOT
BRANCH   5  17
HETATM   17  N   UNK N   1      21.312  14.299   5.812  0.00  0.00    -0.388 N 
HETATM   18  H   UNK N   1      20.861  14.000   4.990  0.00  0.00     0.159 HD
BRANCH  17  19
HETATM   19  C   UNK N   1      20.815  13.867   7.093  0.00  0.00     0.139 C 
BRANCH  19  20
HETATM   20  C   UNK N   1      20.724  15.061   8.019  0.00  0.00     0.133 C 
BRANCH  20  21
HETATM   21  N   UNK N   1      19.672  15.954   7.563  0.00  0.00    -0.418 N 
HETATM   22  H   UNK N   1      18.803  15.687   7.102  0.00  0.00     0.153 HD
BRANCH  21  23
HETATM   23  C   UNK N   1      20.103  17.301   7.892  0.00  0.00     0.139 C 
BRANCH  23  24
HETATM   24  C   UNK N   1      19.250  17.847   9.018  0.00  0.00     0.183 C 
BRANCH  24  25
HETATM   25  O   UNK N   1      19.798  19.042   9.486  0.00  0.00    -0.399 OA
HETATM   26  H   UNK N   1      20.656  19.293   9.863  0.00  0.00     0.209 HD
ENDBRANCH  24  25
ENDBRANCH  23  24
ENDBRANCH  21  23
ENDBRANCH  20  21
ENDBRANCH  19  20
ENDBRANCH  17  19
ENDBRANCH   5  17
BRANCH   6  27
HETATM   27  N   UNK N   1      25.984  17.411   5.605  0.00  0.00    -0.388 N 
HETATM   28  H   UNK N   1      25.977  18.371   5.823  0.00  0.00     0.159 HD
BRANCH  27  29
HETATM   29  C   UNK N   1      27.231  16.761   5.293  0.00  0.00     0.139 C 
BRANCH  29  30
HETATM   30  C   UNK N   1      28.222  17.795   4.807  0.00  0.00     0.133 C 
BRANCH  30  31
HETATM   31  N   UNK N   1      27.510  18.953   4.294  0.00  0.00    -0.418 N 
HETATM   32  H   UNK N   1      26.752  18.950   3.611  0.00  0.00     0.153 HD
BRANCH  31  33
HETATM   33  C   UNK N   1      28.089  20.115   4.942  0.00  0.00     0.139 C 
BRANCH  33  34
HETATM   34  C   UNK N   1      26.988  20.970   5.535  0.00  0.00     0.183 C 
BRANCH  34  35
HETATM   35  O   UNK N   1      26.209  20.201   6.399  0.00  0.00    -0.399 OA
HETATM   36  H   UNK N   1      26.065  19.249   6.517  0.00  0.00     0.209 HD
ENDBRANCH  34  35
ENDBRANCH  33  34
ENDBRANCH  31  33
ENDBRANCH  30  31
ENDBRANCH  29  30
ENDBRANCH  27  29
ENDBRANCH   6  27
BRANCH  13  37
HETATM   37  O   UNK N   1      18.814  17.984   3.090  0.00  0.00    -0.360 OA
HETATM   38  H   UNK N   1      18.561  17.535   3.872  0.00  0.00     0.217 HD
ENDBRANCH  13  37
BRANCH  14  39
HETATM   39  O   UNK N   1      23.401  20.985   2.813  0.00  0.00    -0.360 OA
HETATM   40  H   UNK N   1      23.397  21.859   3.147  0.00  0.00     0.217 HD
ENDBRANCH  14  39
TORSDOF 16
ENDMDL
MODEL 8
REMARK VINA RESULT:      -6.4      3.728      8.533
REMARK  16 active torsions:
REMARK  status: ('A' for Active; 'I' for Inactive)
REMARK    1  A    between atoms: O_3  and  C_23 
REMARK    2  A    between atoms: O_4  and  C_24 
REMARK    3  A    between atoms: O_5  and  C_31 
REMARK    4  A    between atoms: O_6  and  C_32 
REMARK    5  A    between atoms: N_7  and  C_13 
REMARK    6  A    between atoms: N_7  and  C_21 
REMARK    7  A    between atoms: N_8  and  C_14 
REMARK    8  A    between atoms: N_8  and  C_22 
REMARK    9  A    between atoms: N_9  and  C_25 
REMARK   10  A    between atoms: N_9  and  C_29 
REMARK   11  A    between atoms: N_10  and  C_26 
REMARK   12  A    between atoms: N_10  and  C_30 
REMARK   13  A    between atoms: C_21  and  C_25 
REMARK   14  A    between atoms: C_22  and  C_26 
REMARK   15  A    between atoms: C_29  and  C_31 
REMARK   16  A    between atoms: C_30  and  C_32 
ROOT
HETATM    1  O   UNK N   1      24.654  19.081   3.938  0.00  0.00    -0.286 OA
HETATM    2  O   UNK N   1      20.075  16.417   4.536  0.00  0.00    -0.286 OA
HETATM    3  C   UNK N   1      23.589  17.215   4.908  0.00  0.00     0.058 A 
HETATM    4  C   UNK N   1      22.378  16.484   5.032  0.00  0.00     0.058 A 
HETATM    5  C   UNK N   1      24.765  16.720   5.544  0.00  0.00     0.043 A 
HETATM    6  C   UNK N   1      22.376  15.273   5.785  0.00  0.00     0.043 A 
HETATM    7  C   UNK N   1      22.364  18.987   3.455  0.00  0.00     0.065 A 
HETATM    8  C   UNK N   1      21.157  18.267   3.591  0.00  0.00     0.065 A 
HETATM    9  C   UNK N   1      23.607  18.475   4.099  0.00  0.00     0.199 A 
HETATM   10  C   UNK N   1      21.132  17.008   4.388  0.00  0.00     0.199 A 
HETATM   11  C   UNK N   1      24.722  15.535   6.268  0.00  0.00     0.032 A 
HETATM   12  C   UNK N   1      23.543  14.824   6.391  0.00  0.00     0.032 A 
HETATM   13  C   UNK N   1      22.374  20.189   2.702  0.00  0.00     0.081 A 
HETATM   14  C   UNK N   1      19.982  18.758   2.966  0.00  0.00     0.081 A 
HETATM   15  C   UNK N   1      21.206  20.651   2.101  0.00  0.00     0.040 A 
HETATM   16  C   UNK N   1      20.020  19.939   2.229  0.00  0.00     0.040 A 
ENDROOT
BRANCH   5  17
HETATM   17  N   UNK N   1      26.001  17.396   5.490  0.00  0.00    -0.388 N 
HETATM   18  H   UNK N   1      26.113  18.244   5.976  0.00  0.00     0.159 HD
BRANCH  17  19
HETATM   19  C   UNK N   1      27.101  16.860   4.730  0.00  0.00     0.139 C 
BRANCH  19  20
HETATM   20  C   UNK N   1      28.215  17.884   4.680  0.00  0.00     0.133 C 
BRANCH  20  21
HETATM   21  N   UNK N   1      27.715  19.123   4.108  0.00  0.00    -0.418 N 
HETATM   22  H   UNK N   1      27.179  19.224   3.247  0.00  0.00     0.153 HD
BRANCH  21  23
HETATM   23  C   UNK N   1      28.131  20.187   5.003  0.00  0.00     0.139 C 
BRANCH  23  24
HETATM   24  C   UNK N   1      26.916  20.961   5.473  0.00  0.00     0.183 C 
BRANCH  24  25
HETATM   25  O   UNK N   1      26.186  20.187   6.375  0.00  0.00    -0.399 OA
HETATM   26  H   UNK N   1      25.397  20.343   6.918  0.00  0.00     0.209 HD
ENDBRANCH  24  25
ENDBRANCH  23  24
ENDBRANCH  21  23
ENDBRANCH  20  21
ENDBRANCH  19  20
ENDBRANCH  17  19
ENDBRANCH   5  17
BRANCH   6  27
HETATM   27  N   UNK N   1      21.224  14.474   5.938  0.00  0.00    -0.388 N 
HETATM   28  H   UNK N   1      20.774  14.112   5.142  0.00  0.00     0.159 HD
BRANCH  27  29
HETATM   29  C   UNK N   1      20.698  14.184   7.247  0.00  0.00     0.139 C 
BRANCH  29  30
HETATM   30  C   UNK N   1      20.644  15.462   8.056  0.00  0.00     0.133 C 
BRANCH  30  31
HETATM   31  N   UNK N   1      19.526  16.276   7.611  0.00  0.00    -0.418 N 
HETATM   32  H   UNK N   1      18.982  16.151   6.757  0.00  0.00     0.153 HD
BRANCH  31  33
HETATM   33  C   UNK N   1      19.336  17.303   8.619  0.00  0.00     0.139 C 
BRANCH  33  34
HETATM   34  C   UNK N   1      17.974  17.141   9.261  0.00  0.00     0.183 C 
BRANCH  34  35
HETATM   35  O   UNK N   1      17.629  18.312   9.935  0.00  0.00    -0.399 OA
HETATM   36  H   UNK N   1      18.119  18.957  10.469  0.00  0.00     0.209 HD
ENDBRANCH  34  35
ENDBRANCH  33  34
ENDBRANCH  31  33
ENDBRANCH  30  31
ENDBRANCH  29  30
ENDBRANCH  27  29
ENDBRANCH   6  27
BRANCH  13  37
HETATM   37  O   UNK N   1      23.500  20.910   2.552  0.00  0.00    -0.360 OA
HETATM   38  H   UNK N   1      24.163  20.635   1.950  0.00  0.00     0.217 HD
ENDBRANCH  13  37
BRANCH  14  39
HETATM   39  O   UNK N   1      18.813  18.101   3.063  0.00  0.00    -0.360 OA
HETATM   40  H   UNK N   1      18.754  17.308   3.557  0.00  0.00     0.217 HD
ENDBRANCH  14  39
TORSDOF 16
ENDMDL
MODEL 9
REMARK VINA RESULT:      -6.4      2.429      2.932
REMARK  16 active torsions:
REMARK  status: ('A' for Active; 'I' for Inactive)
REMARK    1  A    between atoms: O_3  and  C_23 
REMARK    2  A    between atoms: O_4  and  C_24 
REMARK    3  A    between atoms: O_5  and  C_31 
REMARK    4  A    between atoms: O_6  and  C_32 
REMARK    5  A    between atoms: N_7  and  C_13 
REMARK    6  A    between atoms: N_7  and  C_21 
REMARK    7  A    between atoms: N_8  and  C_14 
REMARK    8  A    between atoms: N_8  and  C_22 
REMARK    9  A    between atoms: N_9  and  C_25 
REMARK   10  A    between atoms: N_9  and  C_29 
REMARK   11  A    between atoms: N_10  and  C_26 
REMARK   12  A    between atoms: N_10  and  C_30 
REMARK   13  A    between atoms: C_21  and  C_25 
REMARK   14  A    between atoms: C_22  and  C_26 
REMARK   15  A    between atoms: C_29  and  C_31 
REMARK   16  A    between atoms: C_30  and  C_32 
ROOT
HETATM    1  O   UNK N   1      20.221  15.050   7.696  0.00  0.00    -0.286 OA
HETATM    2  O   UNK N   1      25.276  13.500   8.380  0.00  0.00    -0.286 OA
HETATM    3  C   UNK N   1      22.432  15.174   6.887  0.00  0.00     0.058 A 
HETATM    4  C   UNK N   1      23.770  14.727   7.046  0.00  0.00     0.058 A 
HETATM    5  C   UNK N   1      22.114  16.035   5.796  0.00  0.00     0.043 A 
HETATM    6  C   UNK N   1      24.755  15.148   6.105  0.00  0.00     0.043 A 
HETATM    7  C   UNK N   1      21.738  13.831   9.001  0.00  0.00     0.065 A 
HETATM    8  C   UNK N   1      23.071  13.399   9.167  0.00  0.00     0.065 A 
HETATM    9  C   UNK N   1      21.385  14.718   7.856  0.00  0.00     0.199 A 
HETATM   10  C   UNK N   1      24.118  13.843   8.203  0.00  0.00     0.199 A 
HETATM   11  C   UNK N   1      23.103  16.422   4.900  0.00  0.00     0.032 A 
HETATM   12  C   UNK N   1      24.406  15.989   5.055  0.00  0.00     0.032 A 
HETATM   13  C   UNK N   1      20.751  13.411   9.929  0.00  0.00     0.081 A 
HETATM   14  C   UNK N   1      23.395  12.548  10.254  0.00  0.00     0.081 A 
HETATM   15  C   UNK N   1      21.096  12.578  10.991  0.00  0.00     0.040 A 
HETATM   16  C   UNK N   1      22.407  12.147  11.150  0.00  0.00     0.040 A 
ENDROOT
BRANCH   5  17
HETATM   17  N   UNK N   1      20.816  16.542   5.580  0.00  0.00    -0.388 N 
HETATM   18  H   UNK N   1      20.040  16.062   5.946  0.00  0.00     0.159 HD
BRANCH  17  19
HETATM   19  C   UNK N   1      20.615  17.755   4.829  0.00  0.00     0.139 C 
BRANCH  19  20
HETATM   20  C   UNK N   1      19.828  17.438   3.576  0.00  0.00     0.133 C 
BRANCH  20  21
HETATM   21  N   UNK N   1      19.611  18.656   2.813  0.00  0.00    -0.418 N 
HETATM   22  H   UNK N   1      18.713  19.040   2.520  0.00  0.00     0.153 HD
BRANCH  21  23
HETATM   23  C   UNK N   1      20.924  19.217   2.549  0.00  0.00     0.139 C 
BRANCH  23  24
HETATM   24  C   UNK N   1      20.777  20.624   2.007  0.00  0.00     0.183 C 
BRANCH  24  25
HETATM   25  O   UNK N   1      21.608  21.491   2.716  0.00  0.00    -0.399 OA
HETATM   26  H   UNK N   1      21.852  22.425   2.622  0.00  0.00     0.209 HD
ENDBRANCH  24  25
ENDBRANCH  23  24
ENDBRANCH  21  23
ENDBRANCH  20  21
ENDBRANCH  19  20
ENDBRANCH  17  19
ENDBRANCH   5  17
BRANCH   6  27
HETATM   27  N   UNK N   1      26.101  14.733   6.176  0.00  0.00    -0.388 N 
HETATM   28  H   UNK N   1      26.336  13.934   6.701  0.00  0.00     0.159 HD
BRANCH  27  29
HETATM   29  C   UNK N   1      27.135  15.462   5.489  0.00  0.00     0.139 C 
BRANCH  29  30
HETATM   30  C   UNK N   1      27.948  16.242   6.499  0.00  0.00     0.133 C 
BRANCH  30  31
HETATM   31  N   UNK N   1      27.296  17.511   6.778  0.00  0.00    -0.418 N 
HETATM   32  H   UNK N   1      26.301  17.718   6.688  0.00  0.00     0.153 HD
BRANCH  31  33
HETATM   33  C   UNK N   1      28.338  18.425   7.209  0.00  0.00     0.139 C 
BRANCH  33  34
HETATM   34  C   UNK N   1      28.593  18.244   8.691  0.00  0.00     0.183 C 
BRANCH  34  35
HETATM   35  O   UNK N   1      27.381  18.249   9.381  0.00  0.00    -0.399 OA
HETATM   36  H   UNK N   1      27.092  18.588  10.243  0.00  0.00     0.209 HD
ENDBRANCH  34  35
ENDBRANCH  33  34
ENDBRANCH  31  33
ENDBRANCH  30  31
ENDBRANCH  29  30
ENDBRANCH  27  29
ENDBRANCH   6  27
BRANCH  13  37
HETATM   37  O   UNK N   1      19.470  13.805   9.814  0.00  0.00    -0.360 OA
HETATM   38  H   UNK N   1      19.193  14.303   9.070  0.00  0.00     0.217 HD
ENDBRANCH  13  37
BRANCH  14  39
HETATM   39  O   UNK N   1      24.651  12.106  10.446  0.00  0.00    -0.360 OA
HETATM   40  H   UNK N   1      25.373  12.700  10.407  0.00  0.00     0.217 HD
ENDBRANCH  14  39
TORSDOF 16
ENDMDL
