MODEL 1
REMARK VINA RESULT:      -6.6      0.000      0.000
REMARK  4 active torsions:
REMARK  status: ('A' for Active; 'I' for Inactive)
REMARK    1  A    between atoms: N_1  and  C_16 
REMARK    2  A    between atoms: C_8  and  C_10 
REMARK    3  A    between atoms: C_9  and  C_11 
REMARK    4  A    between atoms: C_13  and  C_16 
ROOT
HETATM    1  N   UNK N   1      24.361  22.312  -8.194  0.00  0.00    -0.196 NA
HETATM    2  C   UNK N   1      26.954  22.576  -7.904  0.00  0.00     0.069 C 
HETATM    3  C   UNK N   1      27.521  21.158  -7.991  0.00  0.00     0.036 C 
HETATM    4  C   UNK N   1      27.496  23.354  -9.075  0.00  0.00     0.036 C 
HETATM    5  C   UNK N   1      25.502  22.440  -8.043  0.00  0.00     0.073 C 
ENDROOT
BRANCH   2   6
HETATM    6  C   UNK N   1      27.379  23.281  -6.610  0.00  0.00    -0.035 A 
HETATM    7  C   UNK N   1      28.609  23.048  -5.966  0.00  0.00     0.017 A 
HETATM    8  C   UNK N   1      28.901  23.650  -4.711  0.00  0.00    -0.035 A 
HETATM    9  C   UNK N   1      27.915  24.467  -4.102  0.00  0.00     0.017 A 
HETATM   10  C   UNK N   1      26.699  24.710  -4.759  0.00  0.00    -0.037 A 
HETATM   11  C   UNK N   1      26.473  24.124  -5.996  0.00  0.00     0.017 A 
BRANCH   8  12
HETATM   12  C   UNK N   1      30.298  23.542  -4.091  0.00  0.00     0.069 C 
HETATM   13  C   UNK N   1      31.122  22.445  -4.749  0.00  0.00     0.036 C 
HETATM   14  C   UNK N   1      31.037  24.850  -4.318  0.00  0.00     0.036 C 
HETATM   15  C   UNK N   1      30.308  23.266  -2.646  0.00  0.00     0.073 C 
HETATM   16  N   UNK N   1      30.377  23.051  -1.509  0.00  0.00    -0.196 NA
ENDBRANCH   8  12
BRANCH  10  17
HETATM   17  C   UNK N   1      25.634  25.614  -4.188  0.00  0.00     0.188 C 
BRANCH  17  18
HETATM   18  N   UNK N   1      26.100  27.007  -4.188  0.00  0.00    -0.283 N 
HETATM   19  N   UNK N   1      26.010  27.833  -3.160  0.00  0.00    -0.293 N 
HETATM   20  C   UNK N   1      26.396  29.045  -3.599  0.00  0.00     0.198 A 
ATOM     21  HN  UNK N   1      25.706  27.597  -2.216  1.00  0.00     0.188 HD
HETATM   22  N   UNK N   1      26.734  28.987  -4.906  0.00  0.00    -0.346 N 
HETATM   23  C   UNK N   1      26.533  27.699  -5.252  0.00  0.00     0.201 A 
ATOM     24  HN  UNK N   1      27.067  29.748  -5.500  1.00  0.00     0.167 HD
ENDBRANCH  17  18
ENDBRANCH  10  17
ENDBRANCH   2   6
TORSDOF 4
ENDMDL
MODEL 2
REMARK VINA RESULT:      -6.3     12.762     16.090
REMARK  4 active torsions:
REMARK  status: ('A' for Active; 'I' for Inactive)
REMARK    1  A    between atoms: N_1  and  C_16 
REMARK    2  A    between atoms: C_8  and  C_10 
REMARK    3  A    between atoms: C_9  and  C_11 
REMARK    4  A    between atoms: C_13  and  C_16 
ROOT
HETATM    1  N   UNK N   1      33.357  14.067   4.156  0.00  0.00    -0.196 NA
HETATM    2  C   UNK N   1      31.909  16.251   4.243  0.00  0.00     0.069 C 
HETATM    3  C   UNK N   1      32.704  17.299   3.461  0.00  0.00     0.036 C 
HETATM    4  C   UNK N   1      30.622  16.009   3.497  0.00  0.00     0.036 C 
HETATM    5  C   UNK N   1      32.719  15.030   4.220  0.00  0.00     0.073 C 
ENDROOT
BRANCH   2   6
HETATM    6  C   UNK N   1      31.571  16.732   5.659  0.00  0.00    -0.035 A 
HETATM    7  C   UNK N   1      30.277  17.111   6.063  0.00  0.00     0.017 A 
HETATM    8  C   UNK N   1      30.046  17.651   7.359  0.00  0.00    -0.035 A 
HETATM    9  C   UNK N   1      31.152  17.830   8.229  0.00  0.00     0.017 A 
HETATM   10  C   UNK N   1      32.436  17.431   7.826  0.00  0.00    -0.037 A 
HETATM   11  C   UNK N   1      32.605  16.882   6.563  0.00  0.00     0.017 A 
BRANCH   8  12
HETATM   12  C   UNK N   1      28.623  17.902   7.866  0.00  0.00     0.069 C 
HETATM   13  C   UNK N   1      27.675  16.783   7.459  0.00  0.00     0.036 C 
HETATM   14  C   UNK N   1      28.643  17.939   9.385  0.00  0.00     0.036 C 
HETATM   15  C   UNK N   1      28.017  19.158   7.395  0.00  0.00     0.073 C 
HETATM   16  N   UNK N   1      27.490  20.134   7.058  0.00  0.00    -0.196 NA
ENDBRANCH   8  12
BRANCH  10  17
HETATM   17  C   UNK N   1      33.641  17.545   8.726  0.00  0.00     0.188 C 
BRANCH  17  18
HETATM   18  N   UNK N   1      34.010  16.223   9.249  0.00  0.00    -0.283 N 
HETATM   19  N   UNK N   1      33.347  15.572  10.188  0.00  0.00    -0.293 N 
HETATM   20  C   UNK N   1      34.077  14.484  10.497  0.00  0.00     0.198 A 
ATOM     21  HN  UNK N   1      32.454  15.842  10.601  1.00  0.00     0.188 HD
HETATM   22  N   UNK N   1      35.202  14.444   9.750  0.00  0.00    -0.346 N 
HETATM   23  C   UNK N   1      35.137  15.549   8.980  0.00  0.00     0.201 A 
ATOM     24  HN  UNK N   1      35.937  13.735   9.765  1.00  0.00     0.167 HD
ENDBRANCH  17  18
ENDBRANCH  10  17
ENDBRANCH   2   6
TORSDOF 4
ENDMDL
MODEL 3
REMARK VINA RESULT:      -6.3     17.851     21.595
REMARK  4 active torsions:
REMARK  status: ('A' for Active; 'I' for Inactive)
REMARK    1  A    between atoms: N_1  and  C_16 
REMARK    2  A    between atoms: C_8  and  C_10 
REMARK    3  A    between atoms: C_9  and  C_11 
REMARK    4  A    between atoms: C_13  and  C_16 
ROOT
HETATM    1  N   UNK N   1      36.237  11.909   7.669  0.00  0.00    -0.196 NA
HETATM    2  C   UNK N   1      37.762  12.181   9.785  0.00  0.00     0.069 C 
HETATM    3  C   UNK N   1      37.957  10.766  10.333  0.00  0.00     0.036 C 
HETATM    4  C   UNK N   1      39.112  12.688   9.348  0.00  0.00     0.036 C 
HETATM    5  C   UNK N   1      36.892  12.045   8.613  0.00  0.00     0.073 C 
ENDROOT
BRANCH   2   6
HETATM    6  C   UNK N   1      37.203  13.132  10.851  0.00  0.00    -0.035 A 
HETATM    7  C   UNK N   1      37.098  12.796  12.214  0.00  0.00     0.017 A 
HETATM    8  C   UNK N   1      36.471  13.679  13.137  0.00  0.00    -0.035 A 
HETATM    9  C   UNK N   1      35.926  14.895  12.652  0.00  0.00     0.017 A 
HETATM   10  C   UNK N   1      36.053  15.232  11.296  0.00  0.00    -0.037 A 
HETATM   11  C   UNK N   1      36.698  14.351  10.440  0.00  0.00     0.017 A 
BRANCH   8  12
HETATM   12  C   UNK N   1      36.507  13.400  14.642  0.00  0.00     0.069 C 
HETATM   13  C   UNK N   1      35.117  13.126  15.197  0.00  0.00     0.036 C 
HETATM   14  C   UNK N   1      37.339  12.152  14.888  0.00  0.00     0.036 C 
HETATM   15  C   UNK N   1      37.078  14.486  15.455  0.00  0.00     0.073 C 
HETATM   16  N   UNK N   1      37.519  15.307  16.144  0.00  0.00    -0.196 NA
ENDBRANCH   8  12
BRANCH  10  17
HETATM   17  C   UNK N   1      35.542  16.535  10.732  0.00  0.00     0.188 C 
BRANCH  17  18
HETATM   18  N   UNK N   1      34.370  16.293   9.879  0.00  0.00    -0.283 N 
HETATM   19  N   UNK N   1      33.360  15.501  10.193  0.00  0.00    -0.293 N 
HETATM   20  C   UNK N   1      32.574  15.422   9.104  0.00  0.00     0.198 A 
ATOM     21  HN  UNK N   1      33.206  15.037  11.088  1.00  0.00     0.188 HD
HETATM   22  N   UNK N   1      33.084  16.168   8.099  0.00  0.00    -0.346 N 
HETATM   23  C   UNK N   1      34.214  16.699   8.611  0.00  0.00     0.201 A 
ATOM     24  HN  UNK N   1      32.701  16.301   7.162  1.00  0.00     0.167 HD
ENDBRANCH  17  18
ENDBRANCH  10  17
ENDBRANCH   2   6
TORSDOF 4
ENDMDL
MODEL 4
REMARK VINA RESULT:      -6.2      1.486      5.122
REMARK  4 active torsions:
REMARK  status: ('A' for Active; 'I' for Inactive)
REMARK    1  A    between atoms: N_1  and  C_16 
REMARK    2  A    between atoms: C_8  and  C_10 
REMARK    3  A    between atoms: C_9  and  C_11 
REMARK    4  A    between atoms: C_13  and  C_16 
ROOT
HETATM    1  N   UNK N   1      27.588  29.306  -5.926  0.00  0.00    -0.196 NA
HETATM    2  C   UNK N   1      26.216  27.332  -4.878  0.00  0.00     0.069 C 
HETATM    3  C   UNK N   1      25.932  27.753  -3.434  0.00  0.00     0.036 C 
HETATM    4  C   UNK N   1      24.892  27.230  -5.590  0.00  0.00     0.036 C 
HETATM    5  C   UNK N   1      27.002  28.418  -5.469  0.00  0.00     0.073 C 
ENDROOT
BRANCH   2   6
HETATM    6  C   UNK N   1      26.914  25.968  -4.947  0.00  0.00    -0.035 A 
HETATM    7  C   UNK N   1      28.224  25.742  -4.482  0.00  0.00     0.017 A 
HETATM    8  C   UNK N   1      28.858  24.482  -4.671  0.00  0.00    -0.035 A 
HETATM    9  C   UNK N   1      28.156  23.465  -5.365  0.00  0.00     0.017 A 
HETATM   10  C   UNK N   1      26.843  23.691  -5.807  0.00  0.00    -0.037 A 
HETATM   11  C   UNK N   1      26.257  24.927  -5.573  0.00  0.00     0.017 A 
BRANCH   8  12
HETATM   12  C   UNK N   1      30.210  24.175  -4.019  0.00  0.00     0.069 C 
HETATM   13  C   UNK N   1      31.046  23.234  -4.873  0.00  0.00     0.036 C 
HETATM   14  C   UNK N   1      30.993  25.470  -3.885  0.00  0.00     0.036 C 
HETATM   15  C   UNK N   1      30.122  23.564  -2.683  0.00  0.00     0.073 C 
HETATM   16  N   UNK N   1      30.113  23.083  -1.628  0.00  0.00    -0.196 NA
ENDBRANCH   8  12
BRANCH  10  17
HETATM   17  C   UNK N   1      26.026  22.630  -6.502  0.00  0.00     0.188 C 
BRANCH  17  18
HETATM   18  N   UNK N   1      26.541  22.404  -7.860  0.00  0.00    -0.283 N 
HETATM   19  N   UNK N   1      27.249  21.353  -8.233  0.00  0.00    -0.293 N 
HETATM   20  C   UNK N   1      27.658  21.587  -9.493  0.00  0.00     0.198 A 
ATOM     21  HN  UNK N   1      27.448  20.524  -7.673  1.00  0.00     0.188 HD
HETATM   22  N   UNK N   1      27.206  22.786  -9.921  0.00  0.00    -0.346 N 
HETATM   23  C   UNK N   1      26.512  23.279  -8.874  0.00  0.00     0.201 A 
ATOM     24  HN  UNK N   1      27.356  23.221 -10.832  1.00  0.00     0.167 HD
ENDBRANCH  17  18
ENDBRANCH  10  17
ENDBRANCH   2   6
TORSDOF 4
ENDMDL
MODEL 5
REMARK VINA RESULT:      -6.2      1.949      6.168
REMARK  4 active torsions:
REMARK  status: ('A' for Active; 'I' for Inactive)
REMARK    1  A    between atoms: N_1  and  C_16 
REMARK    2  A    between atoms: C_8  and  C_10 
REMARK    3  A    between atoms: C_9  and  C_11 
REMARK    4  A    between atoms: C_13  and  C_16 
ROOT
HETATM    1  N   UNK N   1      25.947  27.659  -2.628  0.00  0.00    -0.196 NA
HETATM    2  C   UNK N   1      26.005  27.067  -5.183  0.00  0.00     0.069 C 
HETATM    3  C   UNK N   1      24.564  27.230  -5.672  0.00  0.00     0.036 C 
HETATM    4  C   UNK N   1      26.846  28.092  -5.898  0.00  0.00     0.036 C 
HETATM    5  C   UNK N   1      25.983  27.374  -3.750  0.00  0.00     0.073 C 
ENDROOT
BRANCH   2   6
HETATM    6  C   UNK N   1      26.559  25.673  -5.498  0.00  0.00    -0.035 A 
HETATM    7  C   UNK N   1      25.966  24.791  -6.422  0.00  0.00     0.017 A 
HETATM    8  C   UNK N   1      26.464  23.470  -6.592  0.00  0.00    -0.035 A 
HETATM    9  C   UNK N   1      27.552  23.043  -5.789  0.00  0.00     0.017 A 
HETATM   10  C   UNK N   1      28.150  23.934  -4.885  0.00  0.00    -0.037 A 
HETATM   11  C   UNK N   1      27.648  25.222  -4.776  0.00  0.00     0.017 A 
BRANCH   8  12
HETATM   12  C   UNK N   1      25.938  22.568  -7.714  0.00  0.00     0.069 C 
HETATM   13  C   UNK N   1      24.831  21.647  -7.223  0.00  0.00     0.036 C 
HETATM   14  C   UNK N   1      25.340  23.442  -8.803  0.00  0.00     0.036 C 
HETATM   15  C   UNK N   1      26.955  21.707  -8.337  0.00  0.00     0.073 C 
HETATM   16  N   UNK N   1      27.713  21.008  -8.867  0.00  0.00    -0.196 NA
ENDBRANCH   8  12
BRANCH  10  17
HETATM   17  C   UNK N   1      29.345  23.556  -4.043  0.00  0.00     0.188 C 
BRANCH  17  18
HETATM   18  N   UNK N   1      30.181  22.584  -4.760  0.00  0.00    -0.283 N 
HETATM   19  N   UNK N   1      30.259  21.298  -4.471  0.00  0.00    -0.293 N 
HETATM   20  C   UNK N   1      31.235  20.783  -5.241  0.00  0.00     0.198 A 
ATOM     21  HN  UNK N   1      29.690  20.791  -3.793  1.00  0.00     0.188 HD
HETATM   22  N   UNK N   1      31.775  21.745  -6.023  0.00  0.00    -0.346 N 
HETATM   23  C   UNK N   1      31.099  22.865  -5.696  0.00  0.00     0.201 A 
ATOM     24  HN  UNK N   1      32.526  21.645  -6.707  1.00  0.00     0.167 HD
ENDBRANCH  17  18
ENDBRANCH  10  17
ENDBRANCH   2   6
TORSDOF 4
ENDMDL
MODEL 6
REMARK VINA RESULT:      -6.1      1.606      4.583
REMARK  4 active torsions:
REMARK  status: ('A' for Active; 'I' for Inactive)
REMARK    1  A    between atoms: N_1  and  C_16 
REMARK    2  A    between atoms: C_8  and  C_10 
REMARK    3  A    between atoms: C_9  and  C_11 
REMARK    4  A    between atoms: C_13  and  C_16 
ROOT
HETATM    1  N   UNK N   1      32.002  22.360  -6.833  0.00  0.00    -0.196 NA
HETATM    2  C   UNK N   1      30.541  22.644  -4.674  0.00  0.00     0.069 C 
HETATM    3  C   UNK N   1      30.594  21.289  -3.963  0.00  0.00     0.036 C 
HETATM    4  C   UNK N   1      31.200  23.655  -3.772  0.00  0.00     0.036 C 
HETATM    5  C   UNK N   1      31.337  22.492  -5.895  0.00  0.00     0.073 C 
ENDROOT
BRANCH   2   6
HETATM    6  C   UNK N   1      29.098  23.091  -4.939  0.00  0.00    -0.035 A 
HETATM    7  C   UNK N   1      28.362  22.706  -6.076  0.00  0.00     0.017 A 
HETATM    8  C   UNK N   1      27.066  23.240  -6.321  0.00  0.00    -0.035 A 
HETATM    9  C   UNK N   1      26.540  24.193  -5.414  0.00  0.00     0.017 A 
HETATM   10  C   UNK N   1      27.271  24.557  -4.272  0.00  0.00    -0.037 A 
HETATM   11  C   UNK N   1      28.518  23.987  -4.061  0.00  0.00     0.017 A 
BRANCH   8  12
HETATM   12  C   UNK N   1      26.193  22.697  -7.457  0.00  0.00     0.069 C 
HETATM   13  C   UNK N   1      25.697  23.811  -8.367  0.00  0.00     0.036 C 
HETATM   14  C   UNK N   1      27.031  21.763  -8.314  0.00  0.00     0.036 C 
HETATM   15  C   UNK N   1      25.003  21.953  -7.015  0.00  0.00     0.073 C 
HETATM   16  N   UNK N   1      24.052  21.357  -6.725  0.00  0.00    -0.196 NA
ENDBRANCH   8  12
BRANCH  10  17
HETATM   17  C   UNK N   1      26.741  25.524  -3.243  0.00  0.00     0.188 C 
BRANCH  17  18
HETATM   18  N   UNK N   1      26.535  26.846  -3.849  0.00  0.00    -0.283 N 
HETATM   19  N   UNK N   1      27.375  27.433  -4.682  0.00  0.00    -0.293 N 
HETATM   20  C   UNK N   1      26.913  28.679  -4.889  0.00  0.00     0.198 A 
ATOM     21  HN  UNK N   1      28.215  27.020  -5.091  1.00  0.00     0.188 HD
HETATM   22  N   UNK N   1      25.776  28.883  -4.188  0.00  0.00    -0.346 N 
HETATM   23  C   UNK N   1      25.565  27.718  -3.540  0.00  0.00     0.201 A 
ATOM     24  HN  UNK N   1      25.204  29.728  -4.155  1.00  0.00     0.167 HD
ENDBRANCH  17  18
ENDBRANCH  10  17
ENDBRANCH   2   6
TORSDOF 4
ENDMDL
MODEL 7
REMARK VINA RESULT:      -6.0      2.515      3.595
REMARK  4 active torsions:
REMARK  status: ('A' for Active; 'I' for Inactive)
REMARK    1  A    between atoms: N_1  and  C_16 
REMARK    2  A    between atoms: C_8  and  C_10 
REMARK    3  A    between atoms: C_9  and  C_11 
REMARK    4  A    between atoms: C_13  and  C_16 
ROOT
HETATM    1  N   UNK N   1      32.608  19.860  -7.472  0.00  0.00    -0.196 NA
HETATM    2  C   UNK N   1      30.030  20.219  -7.790  0.00  0.00     0.069 C 
HETATM    3  C   UNK N   1      29.840  20.521  -9.279  0.00  0.00     0.036 C 
HETATM    4  C   UNK N   1      29.320  18.924  -7.496  0.00  0.00     0.036 C 
HETATM    5  C   UNK N   1      31.471  20.037  -7.595  0.00  0.00     0.073 C 
ENDROOT
BRANCH   2   6
HETATM    6  C   UNK N   1      29.430  21.319  -6.905  0.00  0.00    -0.035 A 
HETATM    7  C   UNK N   1      29.969  21.695  -5.660  0.00  0.00     0.017 A 
HETATM    8  C   UNK N   1      29.306  22.647  -4.836  0.00  0.00    -0.035 A 
HETATM    9  C   UNK N   1      28.072  23.188  -5.278  0.00  0.00     0.017 A 
HETATM   10  C   UNK N   1      27.552  22.823  -6.529  0.00  0.00    -0.037 A 
HETATM   11  C   UNK N   1      28.250  21.913  -7.310  0.00  0.00     0.017 A 
BRANCH   8  12
HETATM   12  C   UNK N   1      29.971  23.188  -3.567  0.00  0.00     0.069 C 
HETATM   13  C   UNK N   1      30.573  24.567  -3.791  0.00  0.00     0.036 C 
HETATM   14  C   UNK N   1      28.914  23.333  -2.485  0.00  0.00     0.036 C 
HETATM   15  C   UNK N   1      31.049  22.341  -3.030  0.00  0.00     0.073 C 
HETATM   16  N   UNK N   1      31.904  21.714  -2.562  0.00  0.00    -0.196 NA
ENDBRANCH   8  12
BRANCH  10  17
HETATM   17  C   UNK N   1      26.272  23.406  -7.077  0.00  0.00     0.188 C 
BRANCH  17  18
HETATM   18  N   UNK N   1      26.069  24.763  -6.552  0.00  0.00    -0.283 N 
HETATM   19  N   UNK N   1      25.187  25.088  -5.624  0.00  0.00    -0.293 N 
HETATM   20  C   UNK N   1      25.198  26.430  -5.529  0.00  0.00     0.198 A 
ATOM     21  HN  UNK N   1      24.609  24.445  -5.082  1.00  0.00     0.188 HD
HETATM   22  N   UNK N   1      26.090  26.957  -6.397  0.00  0.00    -0.346 N 
HETATM   23  C   UNK N   1      26.618  25.889  -7.030  0.00  0.00     0.201 A 
ATOM     24  HN  UNK N   1      26.314  27.942  -6.542  1.00  0.00     0.167 HD
ENDBRANCH  17  18
ENDBRANCH  10  17
ENDBRANCH   2   6
TORSDOF 4
ENDMDL
MODEL 8
REMARK VINA RESULT:      -6.0      1.463      5.906
REMARK  4 active torsions:
REMARK  status: ('A' for Active; 'I' for Inactive)
REMARK    1  A    between atoms: N_1  and  C_16 
REMARK    2  A    between atoms: C_8  and  C_10 
REMARK    3  A    between atoms: C_9  and  C_11 
REMARK    4  A    between atoms: C_13  and  C_16 
ROOT
HETATM    1  N   UNK N   1      27.507  29.330  -5.866  0.00  0.00    -0.196 NA
HETATM    2  C   UNK N   1      26.076  27.333  -4.950  0.00  0.00     0.069 C 
HETATM    3  C   UNK N   1      25.863  27.632  -3.464  0.00  0.00     0.036 C 
HETATM    4  C   UNK N   1      24.725  27.358  -5.616  0.00  0.00     0.036 C 
HETATM    5  C   UNK N   1      26.894  28.432  -5.470  0.00  0.00     0.073 C 
ENDROOT
BRANCH   2   6
HETATM    6  C   UNK N   1      26.704  25.951  -5.167  0.00  0.00    -0.035 A 
HETATM    7  C   UNK N   1      26.434  25.142  -6.288  0.00  0.00     0.017 A 
HETATM    8  C   UNK N   1      26.963  23.825  -6.381  0.00  0.00    -0.035 A 
HETATM    9  C   UNK N   1      27.744  23.327  -5.308  0.00  0.00     0.017 A 
HETATM   10  C   UNK N   1      28.025  24.146  -4.204  0.00  0.00    -0.037 A 
HETATM   11  C   UNK N   1      27.512  25.434  -4.172  0.00  0.00     0.017 A 
BRANCH   8  12
HETATM   12  C   UNK N   1      26.818  23.007  -7.669  0.00  0.00     0.069 C 
HETATM   13  C   UNK N   1      27.310  23.779  -8.884  0.00  0.00     0.036 C 
HETATM   14  C   UNK N   1      27.678  21.760  -7.556  0.00  0.00     0.036 C 
HETATM   15  C   UNK N   1      25.443  22.579  -7.972  0.00  0.00     0.073 C 
HETATM   16  N   UNK N   1      24.382  22.212  -8.260  0.00  0.00    -0.196 NA
ENDBRANCH   8  12
BRANCH  10  17
HETATM   17  C   UNK N   1      28.895  23.692  -3.057  0.00  0.00     0.188 C 
BRANCH  17  18
HETATM   18  N   UNK N   1      30.292  23.574  -3.498  0.00  0.00    -0.283 N 
HETATM   19  N   UNK N   1      30.925  24.461  -4.245  0.00  0.00    -0.293 N 
HETATM   20  C   UNK N   1      32.119  23.925  -4.559  0.00  0.00     0.198 A 
ATOM     21  HN  UNK N   1      30.575  25.376  -4.531  1.00  0.00     0.188 HD
HETATM   22  N   UNK N   1      32.245  22.698  -4.006  0.00  0.00    -0.346 N 
HETATM   23  C   UNK N   1      31.082  22.501  -3.351  0.00  0.00     0.201 A 
ATOM     24  HN  UNK N   1      33.041  22.063  -4.071  1.00  0.00     0.167 HD
ENDBRANCH  17  18
ENDBRANCH  10  17
ENDBRANCH   2   6
TORSDOF 4
ENDMDL
MODEL 9
REMARK VINA RESULT:      -5.8      2.948      4.851
REMARK  4 active torsions:
REMARK  status: ('A' for Active; 'I' for Inactive)
REMARK    1  A    between atoms: N_1  and  C_16 
REMARK    2  A    between atoms: C_8  and  C_10 
REMARK    3  A    between atoms: C_9  and  C_11 
REMARK    4  A    between atoms: C_13  and  C_16 
ROOT
HETATM    1  N   UNK N   1      31.664  21.017  -9.827  0.00  0.00    -0.196 NA
HETATM    2  C   UNK N   1      30.798  20.317  -7.452  0.00  0.00     0.069 C 
HETATM    3  C   UNK N   1      29.852  19.138  -7.694  0.00  0.00     0.036 C 
HETATM    4  C   UNK N   1      31.962  19.807  -6.643  0.00  0.00     0.036 C 
HETATM    5  C   UNK N   1      31.273  20.732  -8.775  0.00  0.00     0.073 C 
ENDROOT
BRANCH   2   6
HETATM    6  C   UNK N   1      30.114  21.445  -6.670  0.00  0.00    -0.035 A 
HETATM    7  C   UNK N   1      30.452  21.789  -5.347  0.00  0.00     0.017 A 
HETATM    8  C   UNK N   1      29.709  22.772  -4.636  0.00  0.00    -0.035 A 
HETATM    9  C   UNK N   1      28.598  23.379  -5.274  0.00  0.00     0.017 A 
HETATM   10  C   UNK N   1      28.280  23.045  -6.600  0.00  0.00    -0.037 A 
HETATM   11  C   UNK N   1      29.053  22.102  -7.262  0.00  0.00     0.017 A 
BRANCH   8  12
HETATM   12  C   UNK N   1      30.176  23.274  -3.266  0.00  0.00     0.069 C 
HETATM   13  C   UNK N   1      29.120  23.047  -2.194  0.00  0.00     0.036 C 
HETATM   14  C   UNK N   1      31.408  22.487  -2.851  0.00  0.00     0.036 C 
HETATM   15  C   UNK N   1      30.521  24.703  -3.221  0.00  0.00     0.073 C 
HETATM   16  N   UNK N   1      30.808  25.823  -3.127  0.00  0.00    -0.196 NA
ENDBRANCH   8  12
BRANCH  10  17
HETATM   17  C   UNK N   1      27.145  23.697  -7.351  0.00  0.00     0.188 C 
BRANCH  17  18
HETATM   18  N   UNK N   1      26.026  22.755  -7.494  0.00  0.00    -0.283 N 
HETATM   19  N   UNK N   1      25.202  22.408  -6.522  0.00  0.00    -0.293 N 
HETATM   20  C   UNK N   1      24.424  21.422  -7.003  0.00  0.00     0.198 A 
ATOM     21  HN  UNK N   1      25.163  22.811  -5.585  1.00  0.00     0.188 HD
HETATM   22  N   UNK N   1      24.752  21.144  -8.284  0.00  0.00    -0.346 N 
HETATM   23  C   UNK N   1      25.765  21.991  -8.565  0.00  0.00     0.201 A 
ATOM     24  HN  UNK N   1      24.330  20.450  -8.901  1.00  0.00     0.167 HD
ENDBRANCH  17  18
ENDBRANCH  10  17
ENDBRANCH   2   6
TORSDOF 4
ENDMDL
