MODEL 1
REMARK VINA RESULT:      -5.3      0.000      0.000
REMARK  8 active torsions:
REMARK  status: ('A' for Active; 'I' for Inactive)
REMARK    1  A    between atoms: O_2  and  C_15 
REMARK    2  A    between atoms: N_4  and  C_7 
REMARK    3  A    between atoms: N_4  and  C_8 
REMARK    4  A    between atoms: N_4  and  C_9 
REMARK    5  A    between atoms: N_5  and  C_10 
REMARK       I    between atoms: N_5  and  C_13 
REMARK    6  A    between atoms: N_6  and  C_18 
REMARK    7  A    between atoms: C_7  and  C_10 
REMARK    8  A    between atoms: C_13  and  C_14 
ROOT
HETATM    1 Cl   UNK N   1      33.379  16.443   3.581  0.00  0.00    -0.082 Cl
HETATM    2  C   UNK N   1      33.392  17.765   7.408  0.00  0.00     0.067 A 
HETATM    3  C   UNK N   1      32.007  17.670   7.762  0.00  0.00     0.086 A 
HETATM    4  C   UNK N   1      33.770  17.390   6.107  0.00  0.00     0.046 A 
HETATM    5  C   UNK N   1      31.093  17.166   6.832  0.00  0.00     0.068 A 
HETATM    6  C   UNK N   1      31.497  16.781   5.556  0.00  0.00     0.050 A 
HETATM    7  C   UNK N   1      32.838  16.910   5.185  0.00  0.00     0.061 A 
ENDROOT
BRANCH   2   8
HETATM    8  C   UNK N   1      34.461  18.140   8.397  0.00  0.00     0.254 C 
HETATM    9  O   UNK N   1      35.016  19.221   8.285  0.00  0.00    -0.268 OA
HETATM   10  N   UNK N   1      34.804  17.374   9.464  0.00  0.00    -0.355 N 
HETATM   11  H   UNK N   1      35.424  17.779  10.113  0.00  0.00     0.162 HD
BRANCH  10  12
HETATM   12  C   UNK N   1      34.358  16.034   9.752  0.00  0.00     0.153 C 
BRANCH  12  13
HETATM   13  C   UNK N   1      35.341  15.003   9.158  0.00  0.00     0.292 C 
BRANCH  13  14
HETATM   14  N   UNK N   1      34.983  14.487   7.822  0.00  0.00     0.089 N 
BRANCH  14  15
HETATM   15  C   UNK N   1      34.010  13.400   7.921  0.00  0.00     0.268 C 
HETATM   16  C   UNK N   1      32.872  13.638   6.949  0.00  0.00     0.037 C 
ENDBRANCH  14  15
BRANCH  14  17
HETATM   17  C   UNK N   1      36.196  14.031   7.140  0.00  0.00     0.268 C 
HETATM   18  C   UNK N   1      36.298  14.593   5.731  0.00  0.00     0.037 C 
ENDBRANCH  14  17
ENDBRANCH  13  14
ENDBRANCH  12  13
ENDBRANCH  10  12
ENDBRANCH   2   8
BRANCH   3  19
HETATM   19  O   UNK N   1      31.503  18.057   8.960  0.00  0.00    -0.355 OA
HETATM   20  C   UNK N   1      30.241  18.583   9.122  0.00  0.00     0.210 C 
ENDBRANCH   3  19
BRANCH   6  21
HETATM   21  N   UNK N   1      30.544  16.274   4.649  0.00  0.00    -0.398 N 
HETATM   22  H   UNK N   1      30.747  15.491   4.087  0.00  0.00     0.156 HD
HETATM   23  H   UNK N   1      29.664  16.709   4.577  0.00  0.00     0.156 HD
ENDBRANCH   6  21
TORSDOF 8
ENDMDL
MODEL 2
REMARK VINA RESULT:      -5.3      1.629      2.624
REMARK  8 active torsions:
REMARK  status: ('A' for Active; 'I' for Inactive)
REMARK    1  A    between atoms: O_2  and  C_15 
REMARK    2  A    between atoms: N_4  and  C_7 
REMARK    3  A    between atoms: N_4  and  C_8 
REMARK    4  A    between atoms: N_4  and  C_9 
REMARK    5  A    between atoms: N_5  and  C_10 
REMARK       I    between atoms: N_5  and  C_13 
REMARK    6  A    between atoms: N_6  and  C_18 
REMARK    7  A    between atoms: C_7  and  C_10 
REMARK    8  A    between atoms: C_13  and  C_14 
ROOT
HETATM    1 Cl   UNK N   1      33.181  16.757   3.411  0.00  0.00    -0.082 Cl
HETATM    2  C   UNK N   1      33.271  17.783   7.326  0.00  0.00     0.067 A 
HETATM    3  C   UNK N   1      31.902  17.617   7.711  0.00  0.00     0.086 A 
HETATM    4  C   UNK N   1      33.620  17.520   5.989  0.00  0.00     0.046 A 
HETATM    5  C   UNK N   1      30.975  17.155   6.771  0.00  0.00     0.068 A 
HETATM    6  C   UNK N   1      31.351  16.882   5.459  0.00  0.00     0.050 A 
HETATM    7  C   UNK N   1      32.676  17.082   5.061  0.00  0.00     0.061 A 
ENDROOT
BRANCH   2   8
HETATM    8  C   UNK N   1      34.359  18.116   8.310  0.00  0.00     0.254 C 
HETATM    9  O   UNK N   1      34.919  19.198   8.228  0.00  0.00    -0.268 OA
HETATM   10  N   UNK N   1      34.714  17.311   9.343  0.00  0.00    -0.355 N 
HETATM   11  H   UNK N   1      35.348  17.688   9.996  0.00  0.00     0.162 HD
BRANCH  10  12
HETATM   12  C   UNK N   1      34.266  15.963   9.591  0.00  0.00     0.153 C 
BRANCH  12  13
HETATM   13  C   UNK N   1      35.440  14.973   9.448  0.00  0.00     0.292 C 
BRANCH  13  14
HETATM   14  N   UNK N   1      36.413  14.983  10.558  0.00  0.00     0.089 N 
BRANCH  14  15
HETATM   15  C   UNK N   1      37.231  13.771  10.553  0.00  0.00     0.268 C 
HETATM   16  C   UNK N   1      38.507  14.015   9.773  0.00  0.00     0.037 C 
ENDBRANCH  14  15
BRANCH  14  17
HETATM   17  C   UNK N   1      35.695  15.114  11.827  0.00  0.00     0.268 C 
HETATM   18  C   UNK N   1      35.373  13.759  12.438  0.00  0.00     0.037 C 
ENDBRANCH  14  17
ENDBRANCH  13  14
ENDBRANCH  12  13
ENDBRANCH  10  12
ENDBRANCH   2   8
BRANCH   3  19
HETATM   19  O   UNK N   1      31.424  17.894   8.950  0.00  0.00    -0.355 OA
HETATM   20  C   UNK N   1      30.267  18.607   9.178  0.00  0.00     0.210 C 
ENDBRANCH   3  19
BRANCH   6  21
HETATM   21  N   UNK N   1      30.386  16.414   4.543  0.00  0.00    -0.398 N 
HETATM   22  H   UNK N   1      30.425  16.669   3.592  0.00  0.00     0.156 HD
HETATM   23  H   UNK N   1      29.664  15.825   4.859  0.00  0.00     0.156 HD
ENDBRANCH   6  21
TORSDOF 8
ENDMDL
MODEL 3
REMARK VINA RESULT:      -4.9      9.553     11.942
REMARK  8 active torsions:
REMARK  status: ('A' for Active; 'I' for Inactive)
REMARK    1  A    between atoms: O_2  and  C_15 
REMARK    2  A    between atoms: N_4  and  C_7 
REMARK    3  A    between atoms: N_4  and  C_8 
REMARK    4  A    between atoms: N_4  and  C_9 
REMARK    5  A    between atoms: N_5  and  C_10 
REMARK       I    between atoms: N_5  and  C_13 
REMARK    6  A    between atoms: N_6  and  C_18 
REMARK    7  A    between atoms: C_7  and  C_10 
REMARK    8  A    between atoms: C_13  and  C_14 
ROOT
HETATM    1 Cl   UNK N   1      20.703  20.436   1.027  0.00  0.00    -0.082 Cl
HETATM    2  C   UNK N   1      21.464  18.060   4.214  0.00  0.00     0.067 A 
HETATM    3  C   UNK N   1      20.912  16.808   3.793  0.00  0.00     0.086 A 
HETATM    4  C   UNK N   1      21.367  19.155   3.338  0.00  0.00     0.046 A 
HETATM    5  C   UNK N   1      20.346  16.700   2.518  0.00  0.00     0.068 A 
HETATM    6  C   UNK N   1      20.282  17.795   1.661  0.00  0.00     0.050 A 
HETATM    7  C   UNK N   1      20.778  19.033   2.079  0.00  0.00     0.061 A 
ENDROOT
BRANCH   2   8
HETATM    8  C   UNK N   1      22.234  18.220   5.497  0.00  0.00     0.254 C 
HETATM    9  O   UNK N   1      21.641  18.584   6.500  0.00  0.00    -0.268 OA
HETATM   10  N   UNK N   1      23.548  17.911   5.631  0.00  0.00    -0.355 N 
HETATM   11  H   UNK N   1      23.914  17.934   6.546  0.00  0.00     0.162 HD
BRANCH  10  12
HETATM   12  C   UNK N   1      24.470  17.552   4.582  0.00  0.00     0.153 C 
BRANCH  12  13
HETATM   13  C   UNK N   1      25.861  18.159   4.861  0.00  0.00     0.292 C 
BRANCH  13  14
HETATM   14  N   UNK N   1      25.917  19.633   4.869  0.00  0.00     0.089 N 
BRANCH  14  15
HETATM   15  C   UNK N   1      26.363  20.151   3.575  0.00  0.00     0.268 C 
HETATM   16  C   UNK N   1      25.162  20.459   2.703  0.00  0.00     0.037 C 
ENDBRANCH  14  15
BRANCH  14  17
HETATM   17  C   UNK N   1      26.815  20.077   5.937  0.00  0.00     0.268 C 
HETATM   18  C   UNK N   1      26.488  21.487   6.403  0.00  0.00     0.037 C 
ENDBRANCH  14  17
ENDBRANCH  13  14
ENDBRANCH  12  13
ENDBRANCH  10  12
ENDBRANCH   2   8
BRANCH   3  19
HETATM   19  O   UNK N   1      20.886  15.692   4.565  0.00  0.00    -0.355 OA
HETATM   20  C   UNK N   1      20.332  14.498   4.160  0.00  0.00     0.210 C 
ENDBRANCH   3  19
BRANCH   6  21
HETATM   21  N   UNK N   1      19.706  17.644   0.383  0.00  0.00    -0.398 N 
HETATM   22  H   UNK N   1      18.795  17.284   0.277  0.00  0.00     0.156 HD
HETATM   23  H   UNK N   1      20.223  17.901  -0.414  0.00  0.00     0.156 HD
ENDBRANCH   6  21
TORSDOF 8
ENDMDL
MODEL 4
REMARK VINA RESULT:      -4.9      9.614     11.992
REMARK  8 active torsions:
REMARK  status: ('A' for Active; 'I' for Inactive)
REMARK    1  A    between atoms: O_2  and  C_15 
REMARK    2  A    between atoms: N_4  and  C_7 
REMARK    3  A    between atoms: N_4  and  C_8 
REMARK    4  A    between atoms: N_4  and  C_9 
REMARK    5  A    between atoms: N_5  and  C_10 
REMARK       I    between atoms: N_5  and  C_13 
REMARK    6  A    between atoms: N_6  and  C_18 
REMARK    7  A    between atoms: C_7  and  C_10 
REMARK    8  A    between atoms: C_13  and  C_14 
ROOT
HETATM    1 Cl   UNK N   1      20.461  14.487   2.002  0.00  0.00    -0.082 Cl
HETATM    2  C   UNK N   1      21.564  17.745   4.137  0.00  0.00     0.067 A 
HETATM    3  C   UNK N   1      20.990  18.812   3.374  0.00  0.00     0.086 A 
HETATM    4  C   UNK N   1      21.389  16.429   3.673  0.00  0.00     0.046 A 
HETATM    5  C   UNK N   1      20.239  18.513   2.232  0.00  0.00     0.068 A 
HETATM    6  C   UNK N   1      20.063  17.200   1.806  0.00  0.00     0.050 A 
HETATM    7  C   UNK N   1      20.655  16.154   2.519  0.00  0.00     0.061 A 
ENDROOT
BRANCH   2   8
HETATM    8  C   UNK N   1      22.243  17.965   5.461  0.00  0.00     0.254 C 
HETATM    9  O   UNK N   1      21.562  18.242   6.435  0.00  0.00    -0.268 OA
HETATM   10  N   UNK N   1      23.575  17.800   5.662  0.00  0.00    -0.355 N 
HETATM   11  H   UNK N   1      23.887  17.845   6.596  0.00  0.00     0.162 HD
BRANCH  10  12
HETATM   12  C   UNK N   1      24.585  17.565   4.660  0.00  0.00     0.153 C 
BRANCH  12  13
HETATM   13  C   UNK N   1      25.814  18.461   4.918  0.00  0.00     0.292 C 
BRANCH  13  14
HETATM   14  N   UNK N   1      25.553  19.913   4.888  0.00  0.00     0.089 N 
BRANCH  14  15
HETATM   15  C   UNK N   1      24.792  20.289   3.696  0.00  0.00     0.268 C 
HETATM   16  C   UNK N   1      25.741  20.714   2.594  0.00  0.00     0.037 C 
ENDBRANCH  14  15
BRANCH  14  17
HETATM   17  C   UNK N   1      26.827  20.634   4.932  0.00  0.00     0.268 C 
HETATM   18  C   UNK N   1      26.946  21.499   6.176  0.00  0.00     0.037 C 
ENDBRANCH  14  17
ENDBRANCH  13  14
ENDBRANCH  12  13
ENDBRANCH  10  12
ENDBRANCH   2   8
BRANCH   3  19
HETATM   19  O   UNK N   1      21.136  20.126   3.678  0.00  0.00    -0.355 OA
HETATM   20  C   UNK N   1      21.227  21.122   2.731  0.00  0.00     0.210 C 
ENDBRANCH   3  19
BRANCH   6  21
HETATM   21  N   UNK N   1      19.296  16.942   0.651  0.00  0.00    -0.398 N 
HETATM   22  H   UNK N   1      18.316  16.852   0.704  0.00  0.00     0.156 HD
HETATM   23  H   UNK N   1      19.745  16.850  -0.219  0.00  0.00     0.156 HD
ENDBRANCH   6  21
TORSDOF 8
ENDMDL
MODEL 5
REMARK VINA RESULT:      -4.6      5.019      7.261
REMARK  8 active torsions:
REMARK  status: ('A' for Active; 'I' for Inactive)
REMARK    1  A    between atoms: O_2  and  C_15 
REMARK    2  A    between atoms: N_4  and  C_7 
REMARK    3  A    between atoms: N_4  and  C_8 
REMARK    4  A    between atoms: N_4  and  C_9 
REMARK    5  A    between atoms: N_5  and  C_10 
REMARK       I    between atoms: N_5  and  C_13 
REMARK    6  A    between atoms: N_6  and  C_18 
REMARK    7  A    between atoms: C_7  and  C_10 
REMARK    8  A    between atoms: C_13  and  C_14 
ROOT
HETATM    1 Cl   UNK N   1      33.584   9.933  11.751  0.00  0.00    -0.082 Cl
HETATM    2  C   UNK N   1      36.060  13.107  12.187  0.00  0.00     0.067 A 
HETATM    3  C   UNK N   1      35.915  13.410  13.579  0.00  0.00     0.086 A 
HETATM    4  C   UNK N   1      35.314  12.036  11.662  0.00  0.00     0.046 A 
HETATM    5  C   UNK N   1      35.087  12.612  14.374  0.00  0.00     0.068 A 
HETATM    6  C   UNK N   1      34.375  11.545  13.833  0.00  0.00     0.050 A 
HETATM    7  C   UNK N   1      34.476  11.266  12.467  0.00  0.00     0.061 A 
ENDROOT
BRANCH   2   8
HETATM    8  C   UNK N   1      37.051  13.808  11.300  0.00  0.00     0.254 C 
HETATM    9  O   UNK N   1      38.076  13.225  10.983  0.00  0.00    -0.268 OA
HETATM   10  N   UNK N   1      36.844  15.036  10.760  0.00  0.00    -0.355 N 
HETATM   11  H   UNK N   1      37.503  15.339  10.093  0.00  0.00     0.162 HD
BRANCH  10  12
HETATM   12  C   UNK N   1      35.765  15.946  11.055  0.00  0.00     0.153 C 
BRANCH  12  13
HETATM   13  C   UNK N   1      35.162  16.503   9.748  0.00  0.00     0.292 C 
BRANCH  13  14
HETATM   14  N   UNK N   1      33.722  16.241   9.556  0.00  0.00     0.089 N 
BRANCH  14  15
HETATM   15  C   UNK N   1      33.413  14.825   9.752  0.00  0.00     0.268 C 
HETATM   16  C   UNK N   1      33.752  14.046   8.497  0.00  0.00     0.037 C 
ENDBRANCH  14  15
BRANCH  14  17
HETATM   17  C   UNK N   1      33.329  16.672   8.214  0.00  0.00     0.268 C 
HETATM   18  C   UNK N   1      32.369  17.850   8.256  0.00  0.00     0.037 C 
ENDBRANCH  14  17
ENDBRANCH  13  14
ENDBRANCH  12  13
ENDBRANCH  10  12
ENDBRANCH   2   8
BRANCH   3  19
HETATM   19  O   UNK N   1      36.529  14.451  14.196  0.00  0.00    -0.355 OA
HETATM   20  C   UNK N   1      37.021  14.393  15.482  0.00  0.00     0.210 C 
ENDBRANCH   3  19
BRANCH   6  21
HETATM   21  N   UNK N   1      33.554  10.762  14.670  0.00  0.00    -0.398 N 
HETATM   22  H   UNK N   1      32.936  11.184  15.311  0.00  0.00     0.156 HD
HETATM   23  H   UNK N   1      33.599   9.780  14.613  0.00  0.00     0.156 HD
ENDBRANCH   6  21
TORSDOF 8
ENDMDL
MODEL 6
REMARK VINA RESULT:      -4.6      7.382      9.581
REMARK  8 active torsions:
REMARK  status: ('A' for Active; 'I' for Inactive)
REMARK    1  A    between atoms: O_2  and  C_15 
REMARK    2  A    between atoms: N_4  and  C_7 
REMARK    3  A    between atoms: N_4  and  C_8 
REMARK    4  A    between atoms: N_4  and  C_9 
REMARK    5  A    between atoms: N_5  and  C_10 
REMARK       I    between atoms: N_5  and  C_13 
REMARK    6  A    between atoms: N_6  and  C_18 
REMARK    7  A    between atoms: C_7  and  C_10 
REMARK    8  A    between atoms: C_13  and  C_14 
ROOT
HETATM    1 Cl   UNK N   1      38.588   9.345  14.312  0.00  0.00    -0.082 Cl
HETATM    2  C   UNK N   1      36.744  12.807  15.313  0.00  0.00     0.067 A 
HETATM    3  C   UNK N   1      35.772  12.364  16.267  0.00  0.00     0.086 A 
HETATM    4  C   UNK N   1      37.583  11.844  14.725  0.00  0.00     0.046 A 
HETATM    5  C   UNK N   1      35.721  11.012  16.618  0.00  0.00     0.068 A 
HETATM    6  C   UNK N   1      36.577  10.081  16.036  0.00  0.00     0.050 A 
HETATM    7  C   UNK N   1      37.501  10.495  15.073  0.00  0.00     0.061 A 
ENDROOT
BRANCH   2   8
HETATM    8  C   UNK N   1      36.977  14.261  15.002  0.00  0.00     0.254 C 
HETATM    9  O   UNK N   1      37.591  14.945  15.804  0.00  0.00    -0.268 OA
HETATM   10  N   UNK N   1      36.607  14.851  13.837  0.00  0.00    -0.355 N 
HETATM   11  H   UNK N   1      36.925  15.773  13.692  0.00  0.00     0.162 HD
BRANCH  10  12
HETATM   12  C   UNK N   1      35.801  14.279  12.788  0.00  0.00     0.153 C 
BRANCH  12  13
HETATM   13  C   UNK N   1      36.700  13.620  11.721  0.00  0.00     0.292 C 
BRANCH  13  14
HETATM   14  N   UNK N   1      36.393  12.208  11.422  0.00  0.00     0.089 N 
BRANCH  14  15
HETATM   15  C   UNK N   1      36.576  11.918  10.000  0.00  0.00     0.268 C 
HETATM   16  C   UNK N   1      37.985  12.284   9.578  0.00  0.00     0.037 C 
ENDBRANCH  14  15
BRANCH  14  17
HETATM   17  C   UNK N   1      35.018  11.916  11.832  0.00  0.00     0.268 C 
HETATM   18  C   UNK N   1      34.885  10.517  12.411  0.00  0.00     0.037 C 
ENDBRANCH  14  17
ENDBRANCH  13  14
ENDBRANCH  12  13
ENDBRANCH  10  12
ENDBRANCH   2   8
BRANCH   3  19
HETATM   19  O   UNK N   1      34.865  13.181  16.859  0.00  0.00    -0.355 OA
HETATM   20  C   UNK N   1      35.057  13.765  18.092  0.00  0.00     0.210 C 
ENDBRANCH   3  19
BRANCH   6  21
HETATM   21  N   UNK N   1      36.496   8.727  16.421  0.00  0.00    -0.398 N 
HETATM   22  H   UNK N   1      37.271   8.266  16.817  0.00  0.00     0.156 HD
HETATM   23  H   UNK N   1      35.652   8.236  16.293  0.00  0.00     0.156 HD
ENDBRANCH   6  21
TORSDOF 8
ENDMDL
MODEL 7
REMARK VINA RESULT:      -4.6      3.717      7.172
REMARK  8 active torsions:
REMARK  status: ('A' for Active; 'I' for Inactive)
REMARK    1  A    between atoms: O_2  and  C_15 
REMARK    2  A    between atoms: N_4  and  C_7 
REMARK    3  A    between atoms: N_4  and  C_8 
REMARK    4  A    between atoms: N_4  and  C_9 
REMARK    5  A    between atoms: N_5  and  C_10 
REMARK       I    between atoms: N_5  and  C_13 
REMARK    6  A    between atoms: N_6  and  C_18 
REMARK    7  A    between atoms: C_7  and  C_10 
REMARK    8  A    between atoms: C_13  and  C_14 
ROOT
HETATM    1 Cl   UNK N   1      34.462  16.330   6.408  0.00  0.00    -0.082 Cl
HETATM    2  C   UNK N   1      30.417  16.454   6.534  0.00  0.00     0.067 A 
HETATM    3  C   UNK N   1      30.176  17.077   7.801  0.00  0.00     0.086 A 
HETATM    4  C   UNK N   1      31.751  16.231   6.149  0.00  0.00     0.046 A 
HETATM    5  C   UNK N   1      31.261  17.485   8.584  0.00  0.00     0.068 A 
HETATM    6  C   UNK N   1      32.573  17.270   8.170  0.00  0.00     0.050 A 
HETATM    7  C   UNK N   1      32.819  16.625   6.955  0.00  0.00     0.061 A 
ENDROOT
BRANCH   2   8
HETATM    8  C   UNK N   1      29.315  16.135   5.561  0.00  0.00     0.254 C 
HETATM    9  O   UNK N   1      29.052  14.966   5.330  0.00  0.00    -0.268 OA
HETATM   10  N   UNK N   1      28.535  17.076   4.971  0.00  0.00    -0.355 N 
HETATM   11  H   UNK N   1      27.764  16.745   4.454  0.00  0.00     0.162 HD
BRANCH  10  12
HETATM   12  C   UNK N   1      28.708  18.506   5.018  0.00  0.00     0.153 C 
BRANCH  12  13
HETATM   13  C   UNK N   1      27.458  19.178   5.624  0.00  0.00     0.292 C 
BRANCH  13  14
HETATM   14  N   UNK N   1      27.075  20.465   5.013  0.00  0.00     0.089 N 
BRANCH  14  15
HETATM   15  C   UNK N   1      27.174  21.558   5.981  0.00  0.00     0.268 C 
HETATM   16  C   UNK N   1      26.421  21.194   7.245  0.00  0.00     0.037 C 
ENDBRANCH  14  15
BRANCH  14  17
HETATM   17  C   UNK N   1      25.712  20.365   4.489  0.00  0.00     0.268 C 
HETATM   18  C   UNK N   1      25.696  20.230   2.975  0.00  0.00     0.037 C 
ENDBRANCH  14  17
ENDBRANCH  13  14
ENDBRANCH  12  13
ENDBRANCH  10  12
ENDBRANCH   2   8
BRANCH   3  19
HETATM   19  O   UNK N   1      28.940  17.293   8.317  0.00  0.00    -0.355 OA
HETATM   20  C   UNK N   1      28.701  18.093   9.412  0.00  0.00     0.210 C 
ENDBRANCH   3  19
BRANCH   6  21
HETATM   21  N   UNK N   1      33.638  17.700   8.987  0.00  0.00    -0.398 N 
HETATM   22  H   UNK N   1      34.502  17.227   8.983  0.00  0.00     0.156 HD
HETATM   23  H   UNK N   1      33.517  18.484   9.569  0.00  0.00     0.156 HD
ENDBRANCH   6  21
TORSDOF 8
ENDMDL
MODEL 8
REMARK VINA RESULT:      -4.6      2.152      3.594
REMARK  8 active torsions:
REMARK  status: ('A' for Active; 'I' for Inactive)
REMARK    1  A    between atoms: O_2  and  C_15 
REMARK    2  A    between atoms: N_4  and  C_7 
REMARK    3  A    between atoms: N_4  and  C_8 
REMARK    4  A    between atoms: N_4  and  C_9 
REMARK    5  A    between atoms: N_5  and  C_10 
REMARK       I    between atoms: N_5  and  C_13 
REMARK    6  A    between atoms: N_6  and  C_18 
REMARK    7  A    between atoms: C_7  and  C_10 
REMARK    8  A    between atoms: C_13  and  C_14 
ROOT
HETATM    1 Cl   UNK N   1      29.363  17.634   6.322  0.00  0.00    -0.082 Cl
HETATM    2  C   UNK N   1      33.239  17.122   7.372  0.00  0.00     0.067 A 
HETATM    3  C   UNK N   1      33.821  16.653   6.150  0.00  0.00     0.086 A 
HETATM    4  C   UNK N   1      31.861  17.400   7.385  0.00  0.00     0.046 A 
HETATM    5  C   UNK N   1      33.022  16.536   5.009  0.00  0.00     0.068 A 
HETATM    6  C   UNK N   1      31.663  16.838   5.044  0.00  0.00     0.050 A 
HETATM    7  C   UNK N   1      31.076  17.255   6.241  0.00  0.00     0.061 A 
ENDROOT
BRANCH   2   8
HETATM    8  C   UNK N   1      34.056  17.432   8.597  0.00  0.00     0.254 C 
HETATM    9  O   UNK N   1      34.651  18.496   8.656  0.00  0.00    -0.268 OA
HETATM   10  N   UNK N   1      34.115  16.627   9.688  0.00  0.00    -0.355 N 
HETATM   11  H   UNK N   1      34.577  16.992  10.478  0.00  0.00     0.162 HD
BRANCH  10  12
HETATM   12  C   UNK N   1      33.578  15.296   9.818  0.00  0.00     0.153 C 
BRANCH  12  13
HETATM   13  C   UNK N   1      34.621  14.357  10.460  0.00  0.00     0.292 C 
BRANCH  13  14
HETATM   14  N   UNK N   1      35.860  15.013  10.922  0.00  0.00     0.089 N 
BRANCH  14  15
HETATM   15  C   UNK N   1      37.025  14.513  10.192  0.00  0.00     0.268 C 
HETATM   16  C   UNK N   1      36.618  13.350   9.309  0.00  0.00     0.037 C 
ENDBRANCH  14  15
BRANCH  14  17
HETATM   17  C   UNK N   1      36.018  14.786  12.360  0.00  0.00     0.268 C 
HETATM   18  C   UNK N   1      35.301  13.526  12.817  0.00  0.00     0.037 C 
ENDBRANCH  14  17
ENDBRANCH  13  14
ENDBRANCH  12  13
ENDBRANCH  10  12
ENDBRANCH   2   8
BRANCH   3  19
HETATM   19  O   UNK N   1      35.122  16.293   6.020  0.00  0.00    -0.355 OA
HETATM   20  C   UNK N   1      35.563  14.989   6.091  0.00  0.00     0.210 C 
ENDBRANCH   3  19
BRANCH   6  21
HETATM   21  N   UNK N   1      30.893  16.710   3.869  0.00  0.00    -0.398 N 
HETATM   22  H   UNK N   1      30.051  16.200   3.869  0.00  0.00     0.156 HD
HETATM   23  H   UNK N   1      31.203  17.137   3.038  0.00  0.00     0.156 HD
ENDBRANCH   6  21
TORSDOF 8
ENDMDL
MODEL 9
REMARK VINA RESULT:      -4.5      3.561      5.198
REMARK  8 active torsions:
REMARK  status: ('A' for Active; 'I' for Inactive)
REMARK    1  A    between atoms: O_2  and  C_15 
REMARK    2  A    between atoms: N_4  and  C_7 
REMARK    3  A    between atoms: N_4  and  C_8 
REMARK    4  A    between atoms: N_4  and  C_9 
REMARK    5  A    between atoms: N_5  and  C_10 
REMARK       I    between atoms: N_5  and  C_13 
REMARK    6  A    between atoms: N_6  and  C_18 
REMARK    7  A    between atoms: C_7  and  C_10 
REMARK    8  A    between atoms: C_13  and  C_14 
ROOT
HETATM    1 Cl   UNK N   1      26.727  20.468   3.436  0.00  0.00    -0.082 Cl
HETATM    2  C   UNK N   1      28.395  17.770   5.951  0.00  0.00     0.067 A 
HETATM    3  C   UNK N   1      28.376  18.472   7.199  0.00  0.00     0.086 A 
HETATM    4  C   UNK N   1      27.890  18.425   4.814  0.00  0.00     0.046 A 
HETATM    5  C   UNK N   1      27.816  19.752   7.259  0.00  0.00     0.068 A 
HETATM    6  C   UNK N   1      27.303  20.371   6.122  0.00  0.00     0.050 A 
HETATM    7  C   UNK N   1      27.356  19.712   4.890  0.00  0.00     0.061 A 
ENDROOT
BRANCH   2   8
HETATM    8  C   UNK N   1      28.826  16.334   5.831  0.00  0.00     0.254 C 
HETATM    9  O   UNK N   1      27.974  15.460   5.820  0.00  0.00    -0.268 OA
HETATM   10  N   UNK N   1      30.115  15.945   5.657  0.00  0.00    -0.355 N 
HETATM   11  H   UNK N   1      30.263  14.991   5.462  0.00  0.00     0.162 HD
BRANCH  10  12
HETATM   12  C   UNK N   1      31.292  16.775   5.725  0.00  0.00     0.153 C 
BRANCH  12  13
HETATM   13  C   UNK N   1      32.535  15.917   6.041  0.00  0.00     0.292 C 
BRANCH  13  14
HETATM   14  N   UNK N   1      33.330  16.362   7.202  0.00  0.00     0.089 N 
BRANCH  14  15
HETATM   15  C   UNK N   1      32.523  16.368   8.423  0.00  0.00     0.268 C 
HETATM   16  C   UNK N   1      32.741  15.078   9.188  0.00  0.00     0.037 C 
ENDBRANCH  14  15
BRANCH  14  17
HETATM   17  C   UNK N   1      33.867  17.698   6.935  0.00  0.00     0.268 C 
HETATM   18  C   UNK N   1      34.478  18.322   8.180  0.00  0.00     0.037 C 
ENDBRANCH  14  17
ENDBRANCH  13  14
ENDBRANCH  12  13
ENDBRANCH  10  12
ENDBRANCH   2   8
BRANCH   3  19
HETATM   19  O   UNK N   1      28.887  17.978   8.354  0.00  0.00    -0.355 OA
HETATM   20  C   UNK N   1      29.788  18.660   9.142  0.00  0.00     0.210 C 
ENDBRANCH   3  19
BRANCH   6  21
HETATM   21  N   UNK N   1      26.743  21.661   6.226  0.00  0.00    -0.398 N 
HETATM   22  H   UNK N   1      26.141  22.009   5.529  0.00  0.00     0.156 HD
HETATM   23  H   UNK N   1      26.958  22.221   7.006  0.00  0.00     0.156 HD
ENDBRANCH   6  21
TORSDOF 8
ENDMDL
