REMARK  4 active torsions:
REMARK  status: ('A' for Active; 'I' for Inactive)
REMARK    1  A    between atoms: C_15  and  O_3 
REMARK    2  A    between atoms: O_5  and  C_26 
REMARK    3  A    between atoms: C_11  and  C_21 
REMARK    4  A    between atoms: C_21  and  C_26 
ROOT
HETATM    1  F   UNK N   1       4.137  -0.865  -1.759  0.00  0.00    -0.238 F 
HETATM    2  O   UNK N   1       8.413   0.900  -1.622  0.00  0.00    -0.381 OA
HETATM    3  O   UNK N   1      -0.579  -3.446  -0.326  0.00  0.00    -0.289 OA
HETATM    4  C   UNK N   1       6.968   0.301   0.200  0.00  0.00     0.001 C 
HETATM    5  C   UNK N   1       6.813  -1.071  -0.467  0.00  0.00     0.005 C 
HETATM    6  C   UNK N   1       5.519  -1.762  -0.008  0.00  0.00     0.035 C 
HETATM    7  C   UNK N   1       4.270  -0.883  -0.375  0.00  0.00     0.147 C 
HETATM    8  C   UNK N   1       8.398   0.676  -0.238  0.00  0.00     0.131 C 
HETATM    9  C   UNK N   1       8.132  -1.777  -0.159  0.00  0.00     0.013 C 
HETATM   10  C   UNK N   1       5.831   1.198  -0.295  0.00  0.00     0.048 C 
HETATM   11  C   UNK N   1       9.176  -0.654   0.021  0.00  0.00     0.025 C 
HETATM   12  C   UNK N   1       4.476   0.590   0.112  0.00  0.00     0.160 C 
HETATM   13  C   UNK N   1       2.998  -1.536   0.276  0.00  0.00     0.036 C 
HETATM   14  C   UNK N   1       5.361  -3.155  -0.627  0.00  0.00     0.013 C 
HETATM   15  C   UNK N   1       6.900   0.230   1.741  0.00  0.00     0.019 C 
HETATM   16  C   UNK N   1       4.165  -3.870   0.002  0.00  0.00     0.036 C 
HETATM   17  C   UNK N   1       2.924  -3.026  -0.085  0.00  0.00    -0.061 C 
HETATM   18  C   UNK N   1       9.724  -0.820   1.435  0.00  0.00     0.013 C 
HETATM   19  C   UNK N   1       3.117  -1.459   1.797  0.00  0.00     0.028 C 
HETATM   20  C   UNK N   1       1.719  -0.784  -0.067  0.00  0.00    -0.006 C 
HETATM   21  C   UNK N   1       1.750  -3.640  -0.303  0.00  0.00     0.058 C 
HETATM   22  C   UNK N   1       0.556  -1.405  -0.303  0.00  0.00     0.052 C 
HETATM   23  C   UNK N   1       0.498  -2.872  -0.307  0.00  0.00     0.172 C 
HETATM   24  H   UNK N   1       8.552   0.969  -2.579  0.00  0.00     0.211 HD
ENDROOT
BRANCH   8  25
HETATM   25  C   UNK N   1       8.949   1.935   0.423  0.00  0.00     0.185 C 
HETATM   26  O   UNK N   1       9.970   1.901   1.093  0.00  0.00    -0.292 OA
BRANCH  25  27
HETATM   27  C   UNK N   1       8.244   3.243   0.246  0.00  0.00     0.245 C 
BRANCH  27  28
HETATM   28  O   UNK N   1       9.088   4.157  -0.383  0.00  0.00    -0.393 OA
HETATM   29  H   UNK N   1       9.933   3.967  -0.820  0.00  0.00     0.209 HD
ENDBRANCH  27  28
ENDBRANCH  25  27
ENDBRANCH   8  25
BRANCH  12  30
HETATM   30  O   UNK N   1       3.453   1.424  -0.343  0.00  0.00    -0.392 OA
HETATM   31  H   UNK N   1       3.600   2.329  -0.659  0.00  0.00     0.210 HD
ENDBRANCH  12  30
TORSDOF 4
