MODEL 1
REMARK VINA RESULT:      -8.2      0.000      0.000
REMARK  4 active torsions:
REMARK  status: ('A' for Active; 'I' for Inactive)
REMARK    1  A    between atoms: C_15  and  O_3 
REMARK    2  A    between atoms: O_5  and  C_26 
REMARK    3  A    between atoms: C_11  and  C_21 
REMARK    4  A    between atoms: C_21  and  C_26 
ROOT
HETATM    1  F   UNK N   1      29.784  21.298  -3.429  0.00  0.00    -0.238 F 
HETATM    2  O   UNK N   1      26.197  24.198  -3.809  0.00  0.00    -0.381 OA
HETATM    3  O   UNK N   1      34.746  18.884  -4.143  0.00  0.00    -0.289 OA
HETATM    4  C   UNK N   1      28.496  24.554  -4.404  0.00  0.00     0.001 C 
HETATM    5  C   UNK N   1      28.415  23.253  -5.211  0.00  0.00     0.005 C 
HETATM    6  C   UNK N   1      29.813  22.647  -5.418  0.00  0.00     0.035 C 
HETATM    7  C   UNK N   1      30.485  22.336  -4.033  0.00  0.00     0.147 C 
HETATM    8  C   UNK N   1      27.044  25.059  -4.521  0.00  0.00     0.131 C 
HETATM    9  C   UNK N   1      27.630  23.648  -6.460  0.00  0.00     0.013 C 
HETATM   10  C   UNK N   1      29.002  24.209  -3.001  0.00  0.00     0.048 C 
HETATM   11  C   UNK N   1      26.747  24.842  -6.040  0.00  0.00     0.025 C 
HETATM   12  C   UNK N   1      30.407  23.586  -3.094  0.00  0.00     0.160 C 
HETATM   13  C   UNK N   1      31.971  21.898  -4.292  0.00  0.00     0.036 C 
HETATM   14  C   UNK N   1      29.765  21.368  -6.260  0.00  0.00     0.013 C 
HETATM   15  C   UNK N   1      29.456  25.589  -5.029  0.00  0.00     0.019 C 
HETATM   16  C   UNK N   1      31.186  20.912  -6.594  0.00  0.00     0.036 C 
HETATM   17  C   UNK N   1      32.019  20.786  -5.349  0.00  0.00    -0.061 C 
HETATM   18  C   UNK N   1      27.152  25.997  -6.951  0.00  0.00     0.013 C 
HETATM   19  C   UNK N   1      32.750  23.081  -4.866  0.00  0.00     0.028 C 
HETATM   20  C   UNK N   1      32.698  21.521  -3.009  0.00  0.00    -0.006 C 
HETATM   21  C   UNK N   1      32.916  19.789  -5.281  0.00  0.00     0.058 C 
HETATM   22  C   UNK N   1      33.577  20.512  -2.944  0.00  0.00     0.052 C 
HETATM   23  C   UNK N   1      33.816  19.675  -4.126  0.00  0.00     0.172 C 
HETATM   24  H   UNK N   1      25.520  23.610  -3.440  0.00  0.00     0.211 HD
ENDROOT
BRANCH   8  25
HETATM   25  C   UNK N   1      26.819  26.462  -3.969  0.00  0.00     0.185 C 
HETATM   26  O   UNK N   1      27.698  27.048  -3.356  0.00  0.00    -0.292 OA
BRANCH  25  27
HETATM   27  C   UNK N   1      25.508  27.150  -4.186  0.00  0.00     0.245 C 
BRANCH  27  28
HETATM   28  O   UNK N   1      25.318  28.130  -3.213  0.00  0.00    -0.393 OA
HETATM   29  H   UNK N   1      24.471  28.476  -2.890  0.00  0.00     0.209 HD
ENDBRANCH  27  28
ENDBRANCH  25  27
ENDBRANCH   8  25
BRANCH  12  30
HETATM   30  O   UNK N   1      30.852  23.283  -1.806  0.00  0.00    -0.392 OA
HETATM   31  H   UNK N   1      31.615  22.713  -1.623  0.00  0.00     0.210 HD
ENDBRANCH  12  30
TORSDOF 4
ENDMDL
MODEL 2
REMARK VINA RESULT:      -7.9     18.587     21.729
REMARK  4 active torsions:
REMARK  status: ('A' for Active; 'I' for Inactive)
REMARK    1  A    between atoms: C_15  and  O_3 
REMARK    2  A    between atoms: O_5  and  C_26 
REMARK    3  A    between atoms: C_11  and  C_21 
REMARK    4  A    between atoms: C_21  and  C_26 
ROOT
HETATM    1  F   UNK N   1      34.225  11.819  14.699  0.00  0.00    -0.238 F 
HETATM    2  O   UNK N   1      33.572  14.863  11.274  0.00  0.00    -0.381 OA
HETATM    3  O   UNK N   1      36.340   7.730  17.823  0.00  0.00    -0.289 OA
HETATM    4  C   UNK N   1      35.569  13.672  11.876  0.00  0.00     0.001 C 
HETATM    5  C   UNK N   1      34.735  12.387  11.820  0.00  0.00     0.005 C 
HETATM    6  C   UNK N   1      35.381  11.275  12.662  0.00  0.00     0.035 C 
HETATM    7  C   UNK N   1      35.504  11.727  14.162  0.00  0.00     0.147 C 
HETATM    8  C   UNK N   1      34.853  14.528  10.812  0.00  0.00     0.131 C 
HETATM    9  C   UNK N   1      34.568  12.125  10.324  0.00  0.00     0.013 C 
HETATM   10  C   UNK N   1      35.545  14.189  13.316  0.00  0.00     0.048 C 
HETATM   11  C   UNK N   1      34.669  13.508   9.644  0.00  0.00     0.025 C 
HETATM   12  C   UNK N   1      36.172  13.140  14.254  0.00  0.00     0.160 C 
HETATM   13  C   UNK N   1      36.334  10.643  14.938  0.00  0.00     0.036 C 
HETATM   14  C   UNK N   1      34.589   9.965  12.589  0.00  0.00     0.013 C 
HETATM   15  C   UNK N   1      37.040  13.451  11.459  0.00  0.00     0.019 C 
HETATM   16  C   UNK N   1      35.368   8.849  13.285  0.00  0.00     0.036 C 
HETATM   17  C   UNK N   1      35.749   9.246  14.684  0.00  0.00    -0.061 C 
HETATM   18  C   UNK N   1      35.845  13.409   8.677  0.00  0.00     0.013 C 
HETATM   19  C   UNK N   1      37.763  10.624  14.400  0.00  0.00     0.028 C 
HETATM   20  C   UNK N   1      36.465  10.963  16.421  0.00  0.00    -0.006 C 
HETATM   21  C   UNK N   1      35.734   8.304  15.640  0.00  0.00     0.058 C 
HETATM   22  C   UNK N   1      36.429  10.020  17.371  0.00  0.00     0.052 C 
HETATM   23  C   UNK N   1      36.184   8.620  17.003  0.00  0.00     0.172 C 
HETATM   24  H   UNK N   1      32.639  15.055  11.452  0.00  0.00     0.211 HD
ENDROOT
BRANCH   8  25
HETATM   25  C   UNK N   1      35.561  15.837  10.477  0.00  0.00     0.185 C 
HETATM   26  O   UNK N   1      36.714  16.038  10.825  0.00  0.00    -0.292 OA
BRANCH  25  27
HETATM   27  C   UNK N   1      34.847  16.896   9.697  0.00  0.00     0.245 C 
BRANCH  27  28
HETATM   28  O   UNK N   1      35.575  18.084   9.731  0.00  0.00    -0.393 OA
HETATM   29  H   UNK N   1      36.535  18.183   9.642  0.00  0.00     0.209 HD
ENDBRANCH  27  28
ENDBRANCH  25  27
ENDBRANCH   8  25
BRANCH  12  30
HETATM   30  O   UNK N   1      36.146  13.631  15.560  0.00  0.00    -0.392 OA
HETATM   31  H   UNK N   1      36.895  14.083  15.978  0.00  0.00     0.210 HD
ENDBRANCH  12  30
TORSDOF 4
ENDMDL
MODEL 3
REMARK VINA RESULT:      -7.9     13.089     16.998
REMARK  4 active torsions:
REMARK  status: ('A' for Active; 'I' for Inactive)
REMARK    1  A    between atoms: C_15  and  O_3 
REMARK    2  A    between atoms: O_5  and  C_26 
REMARK    3  A    between atoms: C_11  and  C_21 
REMARK    4  A    between atoms: C_21  and  C_26 
ROOT
HETATM    1  F   UNK N   1      34.830  17.148   7.089  0.00  0.00    -0.238 F 
HETATM    2  O   UNK N   1      36.932  15.889  11.015  0.00  0.00    -0.381 OA
HETATM    3  O   UNK N   1      31.849  17.008   2.393  0.00  0.00    -0.289 OA
HETATM    4  C   UNK N   1      35.121  14.814   9.860  0.00  0.00     0.001 C 
HETATM    5  C   UNK N   1      35.993  14.859   8.599  0.00  0.00     0.005 C 
HETATM    6  C   UNK N   1      35.129  14.775   7.331  0.00  0.00     0.035 C 
HETATM    7  C   UNK N   1      34.113  15.972   7.280  0.00  0.00     0.147 C 
HETATM    8  C   UNK N   1      36.201  14.693  10.954  0.00  0.00     0.131 C 
HETATM    9  C   UNK N   1      37.018  13.749   8.824  0.00  0.00     0.013 C 
HETATM   10  C   UNK N   1      34.250  16.072   9.877  0.00  0.00     0.048 C 
HETATM   11  C   UNK N   1      37.149  13.605  10.356  0.00  0.00     0.025 C 
HETATM   12  C   UNK N   1      33.340  16.090   8.636  0.00  0.00     0.160 C 
HETATM   13  C   UNK N   1      33.135  15.740   6.073  0.00  0.00     0.036 C 
HETATM   14  C   UNK N   1      35.979  14.774   6.056  0.00  0.00     0.013 C 
HETATM   15  C   UNK N   1      34.197  13.578   9.906  0.00  0.00     0.019 C 
HETATM   16  C   UNK N   1      35.092  14.501   4.841  0.00  0.00     0.036 C 
HETATM   17  C   UNK N   1      33.932  15.456   4.793  0.00  0.00    -0.061 C 
HETATM   18  C   UNK N   1      36.763  12.164  10.672  0.00  0.00     0.013 C 
HETATM   19  C   UNK N   1      32.288  14.498   6.346  0.00  0.00     0.028 C 
HETATM   20  C   UNK N   1      32.139  16.879   5.905  0.00  0.00    -0.006 C 
HETATM   21  C   UNK N   1      33.517  15.894   3.593  0.00  0.00     0.058 C 
HETATM   22  C   UNK N   1      31.745  17.324   4.705  0.00  0.00     0.052 C 
HETATM   23  C   UNK N   1      32.332  16.756   3.485  0.00  0.00     0.172 C 
HETATM   24  H   UNK N   1      37.561  16.624  11.063  0.00  0.00     0.211 HD
ENDROOT
BRANCH   8  25
HETATM   25  C   UNK N   1      35.653  14.434  12.353  0.00  0.00     0.185 C 
HETATM   26  O   UNK N   1      34.552  13.931  12.517  0.00  0.00    -0.292 OA
BRANCH  25  27
HETATM   27  C   UNK N   1      36.472  14.786  13.555  0.00  0.00     0.245 C 
BRANCH  27  28
HETATM   28  O   UNK N   1      37.037  13.634  14.100  0.00  0.00    -0.393 OA
HETATM   29  H   UNK N   1      37.915  13.268  13.910  0.00  0.00     0.209 HD
ENDBRANCH  27  28
ENDBRANCH  25  27
ENDBRANCH   8  25
BRANCH  12  30
HETATM   30  O   UNK N   1      32.550  17.241   8.672  0.00  0.00    -0.392 OA
HETATM   31  H   UNK N   1      32.178  17.609   9.488  0.00  0.00     0.210 HD
ENDBRANCH  12  30
TORSDOF 4
ENDMDL
MODEL 4
REMARK VINA RESULT:      -7.7     13.714     16.735
REMARK  4 active torsions:
REMARK  status: ('A' for Active; 'I' for Inactive)
REMARK    1  A    between atoms: C_15  and  O_3 
REMARK    2  A    between atoms: O_5  and  C_26 
REMARK    3  A    between atoms: C_11  and  C_21 
REMARK    4  A    between atoms: C_21  and  C_26 
ROOT
HETATM    1  F   UNK N   1      33.316  14.902  10.850  0.00  0.00    -0.238 F 
HETATM    2  O   UNK N   1      31.515  16.387   6.854  0.00  0.00    -0.381 OA
HETATM    3  O   UNK N   1      36.689  12.531  14.586  0.00  0.00    -0.289 OA
HETATM    4  C   UNK N   1      33.781  15.765   7.350  0.00  0.00     0.001 C 
HETATM    5  C   UNK N   1      33.222  14.450   7.907  0.00  0.00     0.005 C 
HETATM    6  C   UNK N   1      34.207  13.812   8.901  0.00  0.00     0.035 C 
HETATM    7  C   UNK N   1      34.482  14.788  10.101  0.00  0.00     0.147 C 
HETATM    8  C   UNK N   1      32.743  16.078   6.253  0.00  0.00     0.131 C 
HETATM    9  C   UNK N   1      32.868  13.646   6.658  0.00  0.00     0.013 C 
HETATM   10  C   UNK N   1      33.890  16.760   8.508  0.00  0.00     0.048 C 
HETATM   11  C   UNK N   1      32.578  14.689   5.557  0.00  0.00     0.025 C 
HETATM   12  C   UNK N   1      34.859  16.212   9.572  0.00  0.00     0.160 C 
HETATM   13  C   UNK N   1      35.627  14.175  10.984  0.00  0.00     0.036 C 
HETATM   14  C   UNK N   1      33.692  12.474   9.441  0.00  0.00     0.013 C 
HETATM   15  C   UNK N   1      35.177  15.601   6.711  0.00  0.00     0.019 C 
HETATM   16  C   UNK N   1      34.782  11.795  10.271  0.00  0.00     0.036 C 
HETATM   17  C   UNK N   1      35.300  12.718  11.339  0.00  0.00    -0.061 C 
HETATM   18  C   UNK N   1      33.575  14.400   4.439  0.00  0.00     0.013 C 
HETATM   19  C   UNK N   1      36.924  14.148  10.176  0.00  0.00     0.028 C 
HETATM   20  C   UNK N   1      35.933  15.025  12.210  0.00  0.00    -0.006 C 
HETATM   21  C   UNK N   1      35.631  12.193  12.530  0.00  0.00     0.058 C 
HETATM   22  C   UNK N   1      36.243  14.493  13.399  0.00  0.00     0.052 C 
HETATM   23  C   UNK N   1      36.226  13.035  13.575  0.00  0.00     0.172 C 
HETATM   24  H   UNK N   1      30.604  16.508   7.163  0.00  0.00     0.211 HD
ENDROOT
BRANCH   8  25
HETATM   25  C   UNK N   1      33.110  17.256   5.357  0.00  0.00     0.185 C 
HETATM   26  O   UNK N   1      33.988  18.043   5.678  0.00  0.00    -0.292 OA
BRANCH  25  27
HETATM   27  C   UNK N   1      32.400  17.457   4.056  0.00  0.00     0.245 C 
BRANCH  27  28
HETATM   28  O   UNK N   1      31.094  17.885   4.288  0.00  0.00    -0.393 OA
HETATM   29  H   UNK N   1      30.482  18.272   3.642  0.00  0.00     0.209 HD
ENDBRANCH  27  28
ENDBRANCH  25  27
ENDBRANCH   8  25
BRANCH  12  30
HETATM   30  O   UNK N   1      34.950  17.135  10.616  0.00  0.00    -0.392 OA
HETATM   31  H   UNK N   1      35.552  17.033  11.370  0.00  0.00     0.210 HD
ENDBRANCH  12  30
TORSDOF 4
ENDMDL
MODEL 5
REMARK VINA RESULT:      -7.5     19.130     22.736
REMARK  4 active torsions:
REMARK  status: ('A' for Active; 'I' for Inactive)
REMARK    1  A    between atoms: C_15  and  O_3 
REMARK    2  A    between atoms: O_5  and  C_26 
REMARK    3  A    between atoms: C_11  and  C_21 
REMARK    4  A    between atoms: C_21  and  C_26 
ROOT
HETATM    1  F   UNK N   1      37.728  11.678  15.046  0.00  0.00    -0.238 F 
HETATM    2  O   UNK N   1      38.372  13.710  10.938  0.00  0.00    -0.381 OA
HETATM    3  O   UNK N   1      35.314   9.515  19.567  0.00  0.00    -0.289 OA
HETATM    4  C   UNK N   1      36.402  12.642  11.801  0.00  0.00     0.001 C 
HETATM    5  C   UNK N   1      36.546  13.536  13.039  0.00  0.00     0.005 C 
HETATM    6  C   UNK N   1      35.828  12.918  14.250  0.00  0.00     0.035 C 
HETATM    7  C   UNK N   1      36.430  11.505  14.579  0.00  0.00     0.147 C 
HETATM    8  C   UNK N   1      36.996  13.558  10.712  0.00  0.00     0.131 C 
HETATM    9  C   UNK N   1      36.063  14.903  12.560  0.00  0.00     0.013 C 
HETATM   10  C   UNK N   1      37.134  11.327  12.080  0.00  0.00     0.048 C 
HETATM   11  C   UNK N   1      36.322  14.929  11.038  0.00  0.00     0.025 C 
HETATM   12  C   UNK N   1      36.491  10.622  13.289  0.00  0.00     0.160 C 
HETATM   13  C   UNK N   1      35.545  10.840  15.695  0.00  0.00     0.036 C 
HETATM   14  C   UNK N   1      35.920  13.812  15.490  0.00  0.00     0.013 C 
HETATM   15  C   UNK N   1      34.931  12.321  11.462  0.00  0.00     0.019 C 
HETATM   16  C   UNK N   1      35.038  13.248  16.604  0.00  0.00     0.036 C 
HETATM   17  C   UNK N   1      35.365  11.806  16.874  0.00  0.00    -0.061 C 
HETATM   18  C   UNK N   1      34.960  15.153  10.389  0.00  0.00     0.013 C 
HETATM   19  C   UNK N   1      34.151  10.567  15.134  0.00  0.00     0.028 C 
HETATM   20  C   UNK N   1      36.079   9.480  16.126  0.00  0.00    -0.006 C 
HETATM   21  C   UNK N   1      35.313  11.367  18.142  0.00  0.00     0.058 C 
HETATM   22  C   UNK N   1      36.042   9.058  17.396  0.00  0.00     0.052 C 
HETATM   23  C   UNK N   1      35.535   9.948  18.448  0.00  0.00     0.172 C 
HETATM   24  H   UNK N   1      39.298  13.966  11.067  0.00  0.00     0.211 HD
ENDROOT
BRANCH   8  25
HETATM   25  C   UNK N   1      36.834  13.032   9.290  0.00  0.00     0.185 C 
HETATM   26  O   UNK N   1      36.251  11.981   9.069  0.00  0.00    -0.292 OA
BRANCH  25  27
HETATM   27  C   UNK N   1      37.380  13.812   8.137  0.00  0.00     0.245 C 
BRANCH  27  28
HETATM   28  O   UNK N   1      38.774  13.794   8.168  0.00  0.00    -0.393 OA
HETATM   29  H   UNK N   1      39.342  13.877   8.950  0.00  0.00     0.209 HD
ENDBRANCH  27  28
ENDBRANCH  25  27
ENDBRANCH   8  25
BRANCH  12  30
HETATM   30  O   UNK N   1      37.168   9.423  13.524  0.00  0.00    -0.392 OA
HETATM   31  H   UNK N   1      37.381   8.783  12.827  0.00  0.00     0.210 HD
ENDBRANCH  12  30
TORSDOF 4
ENDMDL
MODEL 6
REMARK VINA RESULT:      -7.5     10.754     13.809
REMARK  4 active torsions:
REMARK  status: ('A' for Active; 'I' for Inactive)
REMARK    1  A    between atoms: C_15  and  O_3 
REMARK    2  A    between atoms: O_5  and  C_26 
REMARK    3  A    between atoms: C_11  and  C_21 
REMARK    4  A    between atoms: C_21  and  C_26 
ROOT
HETATM    1  F   UNK N   1      29.770  18.311   4.944  0.00  0.00    -0.238 F 
HETATM    2  O   UNK N   1      34.180  17.960   6.301  0.00  0.00    -0.381 OA
HETATM    3  O   UNK N   1      24.591  17.024   3.368  0.00  0.00    -0.289 OA
HETATM    4  C   UNK N   1      32.420  16.333   6.451  0.00  0.00     0.001 C 
HETATM    5  C   UNK N   1      32.179  16.560   4.954  0.00  0.00     0.005 C 
HETATM    6  C   UNK N   1      30.751  16.151   4.559  0.00  0.00     0.035 C 
HETATM    7  C   UNK N   1      29.698  16.989   5.369  0.00  0.00     0.147 C 
HETATM    8  C   UNK N   1      33.936  16.600   6.544  0.00  0.00     0.131 C 
HETATM    9  C   UNK N   1      33.332  15.817   4.282  0.00  0.00     0.013 C 
HETATM   10  C   UNK N   1      31.498  17.276   7.227  0.00  0.00     0.048 C 
HETATM   11  C   UNK N   1      34.482  15.808   5.313  0.00  0.00     0.025 C 
HETATM   12  C   UNK N   1      30.029  16.952   6.898  0.00  0.00     0.160 C 
HETATM   13  C   UNK N   1      28.269  16.408   5.071  0.00  0.00     0.036 C 
HETATM   14  C   UNK N   1      30.497  16.327   3.058  0.00  0.00     0.013 C 
HETATM   15  C   UNK N   1      32.122  14.883   6.893  0.00  0.00     0.019 C 
HETATM   16  C   UNK N   1      29.137  15.734   2.688  0.00  0.00     0.036 C 
HETATM   17  C   UNK N   1      28.047  16.299   3.556  0.00  0.00    -0.061 C 
HETATM   18  C   UNK N   1      34.793  14.338   5.573  0.00  0.00     0.013 C 
HETATM   19  C   UNK N   1      28.178  14.990   5.631  0.00  0.00     0.028 C 
HETATM   20  C   UNK N   1      27.167  17.190   5.771  0.00  0.00    -0.006 C 
HETATM   21  C   UNK N   1      26.845  16.524   3.003  0.00  0.00     0.058 C 
HETATM   22  C   UNK N   1      25.977  17.428   5.205  0.00  0.00     0.052 C 
HETATM   23  C   UNK N   1      25.722  16.990   3.827  0.00  0.00     0.172 C 
HETATM   24  H   UNK N   1      34.464  18.850   6.042  0.00  0.00     0.211 HD
ENDROOT
BRANCH   8  25
HETATM   25  C   UNK N   1      34.551  16.272   7.900  0.00  0.00     0.185 C 
HETATM   26  O   UNK N   1      35.241  15.276   8.056  0.00  0.00    -0.292 OA
BRANCH  25  27
HETATM   27  C   UNK N   1      34.324  17.184   9.065  0.00  0.00     0.245 C 
BRANCH  27  28
HETATM   28  O   UNK N   1      35.129  18.316   8.947  0.00  0.00    -0.393 OA
HETATM   29  H   UNK N   1      35.691  18.558   8.193  0.00  0.00     0.209 HD
ENDBRANCH  27  28
ENDBRANCH  25  27
ENDBRANCH   8  25
BRANCH  12  30
HETATM   30  O   UNK N   1      29.205  17.818   7.618  0.00  0.00    -0.392 OA
HETATM   31  H   UNK N   1      29.528  18.409   8.316  0.00  0.00     0.210 HD
ENDBRANCH  12  30
TORSDOF 4
ENDMDL
MODEL 7
REMARK VINA RESULT:      -7.3     10.860     12.538
REMARK  4 active torsions:
REMARK  status: ('A' for Active; 'I' for Inactive)
REMARK    1  A    between atoms: C_15  and  O_3 
REMARK    2  A    between atoms: O_5  and  C_26 
REMARK    3  A    between atoms: C_11  and  C_21 
REMARK    4  A    between atoms: C_21  and  C_26 
ROOT
HETATM    1  F   UNK N   1      29.682  18.244   4.775  0.00  0.00    -0.238 F 
HETATM    2  O   UNK N   1      25.481  17.043   3.250  0.00  0.00    -0.381 OA
HETATM    3  O   UNK N   1      34.647  18.112   7.282  0.00  0.00    -0.289 OA
HETATM    4  C   UNK N   1      27.275  15.633   3.999  0.00  0.00     0.001 C 
HETATM    5  C   UNK N   1      27.325  16.491   5.269  0.00  0.00     0.005 C 
HETATM    6  C   UNK N   1      28.700  16.389   5.948  0.00  0.00     0.035 C 
HETATM    7  C   UNK N   1      29.830  16.875   4.971  0.00  0.00     0.147 C 
HETATM    8  C   UNK N   1      25.778  15.730   3.643  0.00  0.00     0.131 C 
HETATM    9  C   UNK N   1      26.111  16.026   6.071  0.00  0.00     0.013 C 
HETATM   10  C   UNK N   1      28.269  16.219   2.994  0.00  0.00     0.048 C 
HETATM   11  C   UNK N   1      25.098  15.500   5.031  0.00  0.00     0.025 C 
HETATM   12  C   UNK N   1      29.692  16.169   3.581  0.00  0.00     0.160 C 
HETATM   13  C   UNK N   1      31.221  16.577   5.637  0.00  0.00     0.036 C 
HETATM   14  C   UNK N   1      28.763  17.204   7.244  0.00  0.00     0.013 C 
HETATM   15  C   UNK N   1      27.652  14.158   4.257  0.00  0.00     0.019 C 
HETATM   16  C   UNK N   1      30.076  16.920   7.973  0.00  0.00     0.036 C 
HETATM   17  C   UNK N   1      31.255  17.137   7.065  0.00  0.00    -0.061 C 
HETATM   18  C   UNK N   1      24.849  14.040   5.397  0.00  0.00     0.013 C 
HETATM   19  C   UNK N   1      31.407  15.065   5.754  0.00  0.00     0.028 C 
HETATM   20  C   UNK N   1      32.388  17.062   4.787  0.00  0.00    -0.006 C 
HETATM   21  C   UNK N   1      32.375  17.660   7.590  0.00  0.00     0.058 C 
HETATM   22  C   UNK N   1      33.494  17.601   5.317  0.00  0.00     0.052 C 
HETATM   23  C   UNK N   1      33.583  17.808   6.767  0.00  0.00     0.172 C 
HETATM   24  H   UNK N   1      25.152  17.936   3.070  0.00  0.00     0.211 HD
ENDROOT
BRANCH   8  25
HETATM   25  C   UNK N   1      25.342  14.815   2.503  0.00  0.00     0.185 C 
HETATM   26  O   UNK N   1      26.142  14.083   1.940  0.00  0.00    -0.292 OA
BRANCH  25  27
HETATM   27  C   UNK N   1      23.911  14.793   2.066  0.00  0.00     0.245 C 
BRANCH  27  28
HETATM   28  O   UNK N   1      23.828  14.411   0.728  0.00  0.00    -0.393 OA
HETATM   29  H   UNK N   1      24.534  14.026   0.186  0.00  0.00     0.209 HD
ENDBRANCH  27  28
ENDBRANCH  25  27
ENDBRANCH   8  25
BRANCH  12  30
HETATM   30  O   UNK N   1      30.583  16.702   2.648  0.00  0.00    -0.392 OA
HETATM   31  H   UNK N   1      31.410  16.267   2.388  0.00  0.00     0.210 HD
ENDBRANCH  12  30
TORSDOF 4
ENDMDL
MODEL 8
REMARK VINA RESULT:      -7.3     11.427     13.645
REMARK  4 active torsions:
REMARK  status: ('A' for Active; 'I' for Inactive)
REMARK    1  A    between atoms: C_15  and  O_3 
REMARK    2  A    between atoms: O_5  and  C_26 
REMARK    3  A    between atoms: C_11  and  C_21 
REMARK    4  A    between atoms: C_21  and  C_26 
ROOT
HETATM    1  F   UNK N   1      31.591  15.337   8.760  0.00  0.00    -0.238 F 
HETATM    2  O   UNK N   1      27.723  15.776   6.257  0.00  0.00    -0.381 OA
HETATM    3  O   UNK N   1      36.944  15.281  10.276  0.00  0.00    -0.289 OA
HETATM    4  C   UNK N   1      29.896  16.713   5.854  0.00  0.00     0.001 C 
HETATM    5  C   UNK N   1      30.458  15.294   6.005  0.00  0.00     0.005 C 
HETATM    6  C   UNK N   1      31.948  15.331   6.382  0.00  0.00     0.035 C 
HETATM    7  C   UNK N   1      32.150  16.097   7.739  0.00  0.00     0.147 C 
HETATM    8  C   UNK N   1      28.499  16.411   5.277  0.00  0.00     0.131 C 
HETATM    9  C   UNK N   1      30.085  14.612   4.691  0.00  0.00     0.013 C 
HETATM   10  C   UNK N   1      29.952  17.392   7.224  0.00  0.00     0.048 C 
HETATM   11  C   UNK N   1      28.823  15.343   4.184  0.00  0.00     0.025 C 
HETATM   12  C   UNK N   1      31.413  17.477   7.702  0.00  0.00     0.160 C 
HETATM   13  C   UNK N   1      33.692  16.270   7.983  0.00  0.00     0.036 C 
HETATM   14  C   UNK N   1      32.546  13.925   6.498  0.00  0.00     0.013 C 
HETATM   15  C   UNK N   1      30.696  17.571   4.850  0.00  0.00     0.019 C 
HETATM   16  C   UNK N   1      34.060  14.018   6.687  0.00  0.00     0.036 C 
HETATM   17  C   UNK N   1      34.406  14.918   7.841  0.00  0.00    -0.061 C 
HETATM   18  C   UNK N   1      29.192  15.907   2.815  0.00  0.00     0.013 C 
HETATM   19  C   UNK N   1      34.272  17.187   6.908  0.00  0.00     0.028 C 
HETATM   20  C   UNK N   1      33.997  16.958   9.307  0.00  0.00    -0.006 C 
HETATM   21  C   UNK N   1      35.456  14.592   8.610  0.00  0.00     0.058 C 
HETATM   22  C   UNK N   1      35.035  16.613  10.080  0.00  0.00     0.052 C 
HETATM   23  C   UNK N   1      35.890  15.484   9.694  0.00  0.00     0.172 C 
HETATM   24  H   UNK N   1      27.145  15.239   6.822  0.00  0.00     0.211 HD
ENDROOT
BRANCH   8  25
HETATM   25  C   UNK N   1      27.724  17.644   4.826  0.00  0.00     0.185 C 
HETATM   26  O   UNK N   1      28.266  18.735   4.744  0.00  0.00    -0.292 OA
BRANCH  25  27
HETATM   27  C   UNK N   1      26.277  17.527   4.463  0.00  0.00     0.245 C 
BRANCH  27  28
HETATM   28  O   UNK N   1      25.515  17.309   5.610  0.00  0.00    -0.393 OA
HETATM   29  H   UNK N   1      25.747  17.550   6.520  0.00  0.00     0.209 HD
ENDBRANCH  27  28
ENDBRANCH  25  27
ENDBRANCH   8  25
BRANCH  12  30
HETATM   30  O   UNK N   1      31.444  18.103   8.950  0.00  0.00    -0.392 OA
HETATM   31  H   UNK N   1      32.262  18.297   9.432  0.00  0.00     0.210 HD
ENDBRANCH  12  30
TORSDOF 4
ENDMDL
MODEL 9
REMARK VINA RESULT:      -7.2     10.827     14.137
REMARK  4 active torsions:
REMARK  status: ('A' for Active; 'I' for Inactive)
REMARK    1  A    between atoms: C_15  and  O_3 
REMARK    2  A    between atoms: O_5  and  C_26 
REMARK    3  A    between atoms: C_11  and  C_21 
REMARK    4  A    between atoms: C_21  and  C_26 
ROOT
HETATM    1  F   UNK N   1      29.146  14.540   5.694  0.00  0.00    -0.238 F 
HETATM    2  O   UNK N   1      32.615  14.910   8.736  0.00  0.00    -0.381 OA
HETATM    3  O   UNK N   1      25.737  15.495   1.402  0.00  0.00    -0.289 OA
HETATM    4  C   UNK N   1      32.434  15.845   6.531  0.00  0.00     0.001 C 
HETATM    5  C   UNK N   1      31.079  16.418   6.962  0.00  0.00     0.005 C 
HETATM    6  C   UNK N   1      30.190  16.705   5.742  0.00  0.00     0.035 C 
HETATM    7  C   UNK N   1      29.938  15.386   4.926  0.00  0.00     0.147 C 
HETATM    8  C   UNK N   1      33.192  15.853   7.873  0.00  0.00     0.131 C 
HETATM    9  C   UNK N   1      31.451  17.603   7.852  0.00  0.00     0.013 C 
HETATM   10  C   UNK N   1      32.184  14.482   5.881  0.00  0.00     0.048 C 
HETATM   11  C   UNK N   1      32.840  17.267   8.437  0.00  0.00     0.025 C 
HETATM   12  C   UNK N   1      31.292  14.656   4.638  0.00  0.00     0.160 C 
HETATM   13  C   UNK N   1      29.188  15.762   3.598  0.00  0.00     0.036 C 
HETATM   14  C   UNK N   1      28.844  17.320   6.143  0.00  0.00     0.013 C 
HETATM   15  C   UNK N   1      33.170  16.745   5.515  0.00  0.00     0.019 C 
HETATM   16  C   UNK N   1      28.080  17.758   4.893  0.00  0.00     0.036 C 
HETATM   17  C   UNK N   1      27.959  16.626   3.911  0.00  0.00    -0.061 C 
HETATM   18  C   UNK N   1      33.763  18.394   7.984  0.00  0.00     0.013 C 
HETATM   19  C   UNK N   1      30.110  16.611   2.724  0.00  0.00     0.028 C 
HETATM   20  C   UNK N   1      28.849  14.539   2.757  0.00  0.00    -0.006 C 
HETATM   21  C   UNK N   1      26.824  16.517   3.201  0.00  0.00     0.058 C 
HETATM   22  C   UNK N   1      27.705  14.430   2.068  0.00  0.00     0.052 C 
HETATM   23  C   UNK N   1      26.689  15.485   2.166  0.00  0.00     0.172 C 
HETATM   24  H   UNK N   1      32.224  14.369   9.439  0.00  0.00     0.211 HD
ENDROOT
BRANCH   8  25
HETATM   25  C   UNK N   1      34.673  15.506   7.762  0.00  0.00     0.185 C 
HETATM   26  O   UNK N   1      35.314  15.788   6.761  0.00  0.00    -0.292 OA
BRANCH  25  27
HETATM   27  C   UNK N   1      35.369  14.820   8.895  0.00  0.00     0.245 C 
BRANCH  27  28
HETATM   28  O   UNK N   1      35.383  15.649  10.016  0.00  0.00    -0.393 OA
HETATM   29  H   UNK N   1      35.776  16.533  10.084  0.00  0.00     0.209 HD
ENDBRANCH  27  28
ENDBRANCH  25  27
ENDBRANCH   8  25
BRANCH  12  30
HETATM   30  O   UNK N   1      31.080  13.404   4.057  0.00  0.00    -0.392 OA
HETATM   31  H   UNK N   1      31.067  13.253   3.099  0.00  0.00     0.210 HD
ENDBRANCH  12  30
TORSDOF 4
ENDMDL
