MODEL 1
REMARK VINA RESULT:      -7.5      0.000      0.000
REMARK  7 active torsions:
REMARK  status: ('A' for Active; 'I' for Inactive)
REMARK    1  A    between atoms: O_3  and  C_16 
REMARK    2  A    between atoms: O_3  and  C_22 
REMARK    3  A    between atoms: N_5  and  C_12 
REMARK    4  A    between atoms: N_6  and  C_14 
REMARK    5  A    between atoms: C_12  and  C_13 
REMARK    6  A    between atoms: C_13  and  C_15 
REMARK    7  A    between atoms: C_15  and  C_16 
ROOT
HETATM    1  C   UNK N   1      35.900  13.204  10.493  0.00  0.00     0.032 C 
ENDROOT
BRANCH   1   2
HETATM    2  C   UNK N   1      35.608  14.174   9.347  0.00  0.00     0.272 C 
BRANCH   2   3
HETATM    3  N   UNK N   1      34.485  15.070   9.619  0.00  0.00     0.091 N 
HETATM    4  C   UNK N   1      34.671  16.212   8.715  0.00  0.00     0.292 C 
HETATM    5  C   UNK N   1      33.506  17.197   8.820  0.00  0.00     0.153 C 
HETATM    6  N   UNK N   1      32.267  16.485   8.612  0.00  0.00    -0.376 N 
HETATM    7  C   UNK N   1      32.044  15.336   9.462  0.00  0.00     0.153 C 
HETATM    8  C   UNK N   1      33.227  14.386   9.280  0.00  0.00     0.292 C 
BRANCH   6   9
HETATM    9  C   UNK N   1      31.298  16.838   7.605  0.00  0.00     0.053 A 
HETATM   10  C   UNK N   1      30.147  17.657   7.851  0.00  0.00     0.082 A 
HETATM   11 Cl   UNK N   1      29.787  18.371   9.429  0.00  0.00    -0.080 Cl
HETATM   12  C   UNK N   1      29.260  17.942   6.789  0.00  0.00     0.058 A 
HETATM   13 Cl   UNK N   1      27.843  18.957   7.022  0.00  0.00    -0.082 Cl
HETATM   14  C   UNK N   1      29.495  17.430   5.513  0.00  0.00     0.026 A 
HETATM   15  C   UNK N   1      30.609  16.640   5.267  0.00  0.00     0.004 A 
HETATM   16  C   UNK N   1      31.500  16.354   6.298  0.00  0.00     0.031 A 
ENDBRANCH   6   9
ENDBRANCH   2   3
ENDBRANCH   1   2
BRANCH   1  17
HETATM   17  C   UNK N   1      36.699  13.842  11.622  0.00  0.00     0.028 C 
BRANCH  17  18
HETATM   18  C   UNK N   1      35.830  14.313  12.785  0.00  0.00     0.175 C 
BRANCH  18  19
HETATM   19  O   UNK N   1      35.019  13.296  13.244  0.00  0.00    -0.351 OA
BRANCH  19  20
HETATM   20  C   UNK N   1      35.187  12.664  14.431  0.00  0.00     0.070 A 
HETATM   21  C   UNK N   1      34.987  13.318  15.659  0.00  0.00     0.066 A 
HETATM   22  C   UNK N   1      35.187  12.637  16.867  0.00  0.00     0.043 A 
HETATM   23  N   UNK N   1      34.993  13.318  18.089  0.00  0.00    -0.327 N 
HETATM   24  C   UNK N   1      35.585  11.289  16.848  0.00  0.00    -0.031 A 
HETATM   25  C   UNK N   1      35.175  12.728  19.296  0.00  0.00     0.222 A 
HETATM   26  H   UNK N   1      34.713  14.262  18.064  0.00  0.00     0.169 HD
HETATM   27  O   UNK N   1      34.993  13.379  20.311  0.00  0.00    -0.273 OA
HETATM   28  C   UNK N   1      35.595  11.288  19.423  0.00  0.00     0.108 A 
HETATM   29  C   UNK N   1      35.811  10.521  18.114  0.00  0.00     0.050 A 
HETATM   30  C   UNK N   1      35.779  10.639  15.627  0.00  0.00     0.012 A 
HETATM   31  C   UNK N   1      35.584  11.324  14.426  0.00  0.00     0.037 A 
ENDBRANCH  19  20
ENDBRANCH  18  19
ENDBRANCH  17  18
ENDBRANCH   1  17
TORSDOF 7
ENDMDL
MODEL 2
REMARK VINA RESULT:      -7.4      1.944      2.486
REMARK  7 active torsions:
REMARK  status: ('A' for Active; 'I' for Inactive)
REMARK    1  A    between atoms: O_3  and  C_16 
REMARK    2  A    between atoms: O_3  and  C_22 
REMARK    3  A    between atoms: N_5  and  C_12 
REMARK    4  A    between atoms: N_6  and  C_14 
REMARK    5  A    between atoms: C_12  and  C_13 
REMARK    6  A    between atoms: C_13  and  C_15 
REMARK    7  A    between atoms: C_15  and  C_16 
ROOT
HETATM    1  C   UNK N   1      35.947  13.529  10.769  0.00  0.00     0.032 C 
ENDROOT
BRANCH   1   2
HETATM    2  C   UNK N   1      35.368  14.940  10.871  0.00  0.00     0.272 C 
BRANCH   2   3
HETATM    3  N   UNK N   1      35.493  15.708   9.633  0.00  0.00     0.091 N 
HETATM    4  C   UNK N   1      35.079  14.790   8.564  0.00  0.00     0.292 C 
HETATM    5  C   UNK N   1      35.065  15.491   7.205  0.00  0.00     0.153 C 
HETATM    6  N   UNK N   1      34.253  16.682   7.298  0.00  0.00    -0.376 N 
HETATM    7  C   UNK N   1      34.603  17.609   8.350  0.00  0.00     0.153 C 
HETATM    8  C   UNK N   1      34.564  16.849   9.675  0.00  0.00     0.292 C 
BRANCH   6   9
HETATM    9  C   UNK N   1      33.127  16.953   6.441  0.00  0.00     0.053 A 
HETATM   10  C   UNK N   1      31.759  16.798   6.841  0.00  0.00     0.082 A 
HETATM   11 Cl   UNK N   1      31.277  16.279   8.462  0.00  0.00    -0.080 Cl
HETATM   12  C   UNK N   1      30.729  17.094   5.919  0.00  0.00     0.058 A 
HETATM   13 Cl   UNK N   1      29.033  16.942   6.356  0.00  0.00    -0.082 Cl
HETATM   14  C   UNK N   1      31.036  17.529   4.630  0.00  0.00     0.026 A 
HETATM   15  C   UNK N   1      32.358  17.685   4.238  0.00  0.00     0.004 A 
HETATM   16  C   UNK N   1      33.387  17.407   5.133  0.00  0.00     0.031 A 
ENDBRANCH   6   9
ENDBRANCH   2   3
ENDBRANCH   1   2
BRANCH   1  17
HETATM   17  C   UNK N   1      36.068  12.836  12.120  0.00  0.00     0.028 C 
BRANCH  17  18
HETATM   18  C   UNK N   1      35.271  13.525  13.224  0.00  0.00     0.175 C 
BRANCH  18  19
HETATM   19  O   UNK N   1      34.520  12.614  13.938  0.00  0.00    -0.351 OA
BRANCH  19  20
HETATM   20  C   UNK N   1      34.751  12.281  15.231  0.00  0.00     0.070 A 
HETATM   21  C   UNK N   1      34.845  10.942  15.651  0.00  0.00     0.066 A 
HETATM   22  C   UNK N   1      35.067  10.636  17.000  0.00  0.00     0.043 A 
HETATM   23  N   UNK N   1      35.146   9.283  17.401  0.00  0.00    -0.327 N 
HETATM   24  C   UNK N   1      35.202  11.675  17.937  0.00  0.00    -0.031 A 
HETATM   25  C   UNK N   1      35.350   8.909  18.688  0.00  0.00     0.222 A 
HETATM   26  H   UNK N   1      35.047   8.582  16.718  0.00  0.00     0.169 HD
HETATM   27  O   UNK N   1      35.402   7.723  18.963  0.00  0.00    -0.273 OA
HETATM   28  C   UNK N   1      35.517   9.919  19.793  0.00  0.00     0.108 A 
HETATM   29  C   UNK N   1      35.440  11.395  19.389  0.00  0.00     0.050 A 
HETATM   30  C   UNK N   1      35.112  13.004  17.517  0.00  0.00     0.012 A 
HETATM   31  C   UNK N   1      34.885  13.305  16.173  0.00  0.00     0.037 A 
ENDBRANCH  19  20
ENDBRANCH  18  19
ENDBRANCH  17  18
ENDBRANCH   1  17
TORSDOF 7
ENDMDL
MODEL 3
REMARK VINA RESULT:      -7.2      4.606     11.493
REMARK  7 active torsions:
REMARK  status: ('A' for Active; 'I' for Inactive)
REMARK    1  A    between atoms: O_3  and  C_16 
REMARK    2  A    between atoms: O_3  and  C_22 
REMARK    3  A    between atoms: N_5  and  C_12 
REMARK    4  A    between atoms: N_6  and  C_14 
REMARK    5  A    between atoms: C_12  and  C_13 
REMARK    6  A    between atoms: C_13  and  C_15 
REMARK    7  A    between atoms: C_15  and  C_16 
ROOT
HETATM    1  C   UNK N   1      33.363  16.187   7.643  0.00  0.00     0.032 C 
ENDROOT
BRANCH   1   2
HETATM    2  C   UNK N   1      34.298  15.007   7.913  0.00  0.00     0.272 C 
BRANCH   2   3
HETATM    3  N   UNK N   1      35.223  15.243   9.020  0.00  0.00     0.091 N 
HETATM    4  C   UNK N   1      34.379  15.646  10.152  0.00  0.00     0.292 C 
HETATM    5  C   UNK N   1      35.208  15.836  11.423  0.00  0.00     0.153 C 
HETATM    6  N   UNK N   1      35.977  14.638  11.666  0.00  0.00    -0.376 N 
HETATM    7  C   UNK N   1      36.808  14.183  10.574  0.00  0.00     0.153 C 
HETATM    8  C   UNK N   1      35.910  13.986   9.355  0.00  0.00     0.292 C 
BRANCH   6   9
HETATM    9  C   UNK N   1      35.921  13.884  12.894  0.00  0.00     0.053 A 
HETATM   10  C   UNK N   1      35.308  12.594  13.016  0.00  0.00     0.082 A 
HETATM   11 Cl   UNK N   1      34.565  11.743  11.655  0.00  0.00    -0.080 Cl
HETATM   12  C   UNK N   1      35.311  11.941  14.269  0.00  0.00     0.058 A 
HETATM   13 Cl   UNK N   1      34.593  10.349  14.478  0.00  0.00    -0.082 Cl
HETATM   14  C   UNK N   1      35.899  12.544  15.381  0.00  0.00     0.026 A 
HETATM   15  C   UNK N   1      36.497  13.791  15.268  0.00  0.00     0.004 A 
HETATM   16  C   UNK N   1      36.513  14.447  14.041  0.00  0.00     0.031 A 
ENDBRANCH   6   9
ENDBRANCH   2   3
ENDBRANCH   1   2
BRANCH   1  17
HETATM   17  C   UNK N   1      33.668  16.898   6.331  0.00  0.00     0.028 C 
BRANCH  17  18
HETATM   18  C   UNK N   1      32.562  16.744   5.290  0.00  0.00     0.175 C 
BRANCH  18  19
HETATM   19  O   UNK N   1      31.368  16.389   5.883  0.00  0.00    -0.351 OA
BRANCH  19  20
HETATM   20  C   UNK N   1      30.301  17.216   6.003  0.00  0.00     0.070 A 
HETATM   21  C   UNK N   1      29.703  17.828   4.888  0.00  0.00     0.066 A 
HETATM   22  C   UNK N   1      28.611  18.691   5.053  0.00  0.00     0.043 A 
HETATM   23  N   UNK N   1      28.033  19.304   3.918  0.00  0.00    -0.327 N 
HETATM   24  C   UNK N   1      28.110  18.942   6.341  0.00  0.00    -0.031 A 
HETATM   25  C   UNK N   1      26.982  20.156   3.999  0.00  0.00     0.222 A 
HETATM   26  H   UNK N   1      28.410  19.105   3.031  0.00  0.00     0.169 HD
HETATM   27  O   UNK N   1      26.537  20.653   2.979  0.00  0.00    -0.273 OA
HETATM   28  C   UNK N   1      26.343  20.509   5.317  0.00  0.00     0.108 A 
HETATM   29  C   UNK N   1      26.946  19.857   6.565  0.00  0.00     0.050 A 
HETATM   30  C   UNK N   1      28.704  18.330   7.448  0.00  0.00     0.012 A 
HETATM   31  C   UNK N   1      29.794  17.475   7.280  0.00  0.00     0.037 A 
ENDBRANCH  19  20
ENDBRANCH  18  19
ENDBRANCH  17  18
ENDBRANCH   1  17
TORSDOF 7
ENDMDL
MODEL 4
REMARK VINA RESULT:      -7.2      2.057      2.879
REMARK  7 active torsions:
REMARK  status: ('A' for Active; 'I' for Inactive)
REMARK    1  A    between atoms: O_3  and  C_16 
REMARK    2  A    between atoms: O_3  and  C_22 
REMARK    3  A    between atoms: N_5  and  C_12 
REMARK    4  A    between atoms: N_6  and  C_14 
REMARK    5  A    between atoms: C_12  and  C_13 
REMARK    6  A    between atoms: C_13  and  C_15 
REMARK    7  A    between atoms: C_15  and  C_16 
ROOT
HETATM    1  C   UNK N   1      36.284  15.071  10.726  0.00  0.00     0.032 C 
ENDROOT
BRANCH   1   2
HETATM    2  C   UNK N   1      35.317  16.244  10.563  0.00  0.00     0.272 C 
BRANCH   2   3
HETATM    3  N   UNK N   1      34.511  16.164   9.345  0.00  0.00     0.091 N 
HETATM    4  C   UNK N   1      33.286  15.455   9.735  0.00  0.00     0.292 C 
HETATM    5  C   UNK N   1      32.295  15.380   8.573  0.00  0.00     0.153 C 
HETATM    6  N   UNK N   1      32.060  16.712   8.069  0.00  0.00    -0.376 N 
HETATM    7  C   UNK N   1      33.236  17.465   7.692  0.00  0.00     0.153 C 
HETATM    8  C   UNK N   1      34.161  17.524   8.906  0.00  0.00     0.292 C 
BRANCH   6   9
HETATM    9  C   UNK N   1      30.754  17.313   7.966  0.00  0.00     0.053 A 
HETATM   10  C   UNK N   1      29.979  17.346   6.760  0.00  0.00     0.082 A 
HETATM   11 Cl   UNK N   1      30.521  16.619   5.241  0.00  0.00    -0.080 Cl
HETATM   12  C   UNK N   1      28.707  17.961   6.770  0.00  0.00     0.058 A 
HETATM   13 Cl   UNK N   1      27.701  18.016   5.328  0.00  0.00    -0.082 Cl
HETATM   14  C   UNK N   1      28.207  18.535   7.938  0.00  0.00     0.026 A 
HETATM   15  C   UNK N   1      28.950  18.503   9.110  0.00  0.00     0.004 A 
HETATM   16  C   UNK N   1      30.202  17.895   9.123  0.00  0.00     0.031 A 
ENDBRANCH   6   9
ENDBRANCH   2   3
ENDBRANCH   1   2
BRANCH   1  17
HETATM   17  C   UNK N   1      36.426  14.614  12.172  0.00  0.00     0.028 C 
BRANCH  17  18
HETATM   18  C   UNK N   1      35.416  13.540  12.566  0.00  0.00     0.175 C 
BRANCH  18  19
HETATM   19  O   UNK N   1      34.971  13.727  13.859  0.00  0.00    -0.351 OA
BRANCH  19  20
HETATM   20  C   UNK N   1      35.268  12.904  14.894  0.00  0.00     0.070 A 
HETATM   21  C   UNK N   1      36.011  11.723  14.719  0.00  0.00     0.066 A 
HETATM   22  C   UNK N   1      36.282  10.888  15.810  0.00  0.00     0.043 A 
HETATM   23  N   UNK N   1      37.021   9.700  15.609  0.00  0.00    -0.327 N 
HETATM   24  C   UNK N   1      35.812  11.236  17.088  0.00  0.00    -0.031 A 
HETATM   25  C   UNK N   1      37.316   8.838  16.613  0.00  0.00     0.222 A 
HETATM   26  H   UNK N   1      37.335   9.488  14.700  0.00  0.00     0.169 HD
HETATM   27  O   UNK N   1      37.953   7.830  16.366  0.00  0.00    -0.273 OA
HETATM   28  C   UNK N   1      36.879   9.091  18.032  0.00  0.00     0.108 A 
HETATM   29  C   UNK N   1      36.079  10.373  18.283  0.00  0.00     0.050 A 
HETATM   30  C   UNK N   1      35.078  12.411  17.260  0.00  0.00     0.012 A 
HETATM   31  C   UNK N   1      34.805  13.238  16.170  0.00  0.00     0.037 A 
ENDBRANCH  19  20
ENDBRANCH  18  19
ENDBRANCH  17  18
ENDBRANCH   1  17
TORSDOF 7
ENDMDL
MODEL 5
REMARK VINA RESULT:      -7.2      4.798     11.416
REMARK  7 active torsions:
REMARK  status: ('A' for Active; 'I' for Inactive)
REMARK    1  A    between atoms: O_3  and  C_16 
REMARK    2  A    between atoms: O_3  and  C_22 
REMARK    3  A    between atoms: N_5  and  C_12 
REMARK    4  A    between atoms: N_6  and  C_14 
REMARK    5  A    between atoms: C_12  and  C_13 
REMARK    6  A    between atoms: C_13  and  C_15 
REMARK    7  A    between atoms: C_15  and  C_16 
ROOT
HETATM    1  C   UNK N   1      35.766  14.535  10.847  0.00  0.00     0.032 C 
ENDROOT
BRANCH   1   2
HETATM    2  C   UNK N   1      34.926  14.032  12.022  0.00  0.00     0.272 C 
BRANCH   2   3
HETATM    3  N   UNK N   1      35.609  13.020  12.828  0.00  0.00     0.091 N 
HETATM    4  C   UNK N   1      36.381  13.774  13.824  0.00  0.00     0.292 C 
HETATM    5  C   UNK N   1      37.079  12.836  14.810  0.00  0.00     0.153 C 
HETATM    6  N   UNK N   1      36.099  11.944  15.385  0.00  0.00    -0.376 N 
HETATM    7  C   UNK N   1      35.294  11.194  14.446  0.00  0.00     0.153 C 
HETATM    8  C   UNK N   1      34.606  12.195  13.520  0.00  0.00     0.292 C 
BRANCH   6   9
HETATM    9  C   UNK N   1      35.875  11.805  16.802  0.00  0.00     0.053 A 
HETATM   10  C   UNK N   1      36.196  10.627  17.553  0.00  0.00     0.082 A 
HETATM   11 Cl   UNK N   1      36.945   9.195  16.834  0.00  0.00    -0.080 Cl
HETATM   12  C   UNK N   1      35.935  10.597  18.941  0.00  0.00     0.058 A 
HETATM   13 Cl   UNK N   1      36.325   9.190  19.920  0.00  0.00    -0.082 Cl
HETATM   14  C   UNK N   1      35.366  11.700  19.578  0.00  0.00     0.026 A 
HETATM   15  C   UNK N   1      35.056  12.844  18.858  0.00  0.00     0.004 A 
HETATM   16  C   UNK N   1      35.313  12.897  17.491  0.00  0.00     0.031 A 
ENDBRANCH   6   9
ENDBRANCH   2   3
ENDBRANCH   1   2
BRANCH   1  17
HETATM   17  C   UNK N   1      35.984  16.042  10.875  0.00  0.00     0.028 C 
BRANCH  17  18
HETATM   18  C   UNK N   1      35.014  16.809   9.981  0.00  0.00     0.175 C 
BRANCH  18  19
HETATM   19  O   UNK N   1      34.340  15.956   9.131  0.00  0.00    -0.351 OA
BRANCH  19  20
HETATM   20  C   UNK N   1      33.613  16.360   8.062  0.00  0.00     0.070 A 
HETATM   21  C   UNK N   1      32.215  16.498   8.119  0.00  0.00     0.066 A 
HETATM   22  C   UNK N   1      31.495  16.902   6.986  0.00  0.00     0.043 A 
HETATM   23  N   UNK N   1      30.089  17.022   7.064  0.00  0.00    -0.327 N 
HETATM   24  C   UNK N   1      32.177  17.175   5.789  0.00  0.00    -0.031 A 
HETATM   25  C   UNK N   1      29.325  17.398   6.010  0.00  0.00     0.222 A 
HETATM   26  H   UNK N   1      29.645  16.823   7.919  0.00  0.00     0.169 HD
HETATM   27  O   UNK N   1      28.117  17.476   6.147  0.00  0.00    -0.273 OA
HETATM   28  C   UNK N   1      29.926  17.726   4.668  0.00  0.00     0.108 A 
HETATM   29  C   UNK N   1      31.449  17.609   4.553  0.00  0.00     0.050 A 
HETATM   30  C   UNK N   1      33.567  17.041   5.735  0.00  0.00     0.012 A 
HETATM   31  C   UNK N   1      34.280  16.634   6.863  0.00  0.00     0.037 A 
ENDBRANCH  19  20
ENDBRANCH  18  19
ENDBRANCH  17  18
ENDBRANCH   1  17
TORSDOF 7
ENDMDL
MODEL 6
REMARK VINA RESULT:      -7.1     19.747     22.246
REMARK  7 active torsions:
REMARK  status: ('A' for Active; 'I' for Inactive)
REMARK    1  A    between atoms: O_3  and  C_16 
REMARK    2  A    between atoms: O_3  and  C_22 
REMARK    3  A    between atoms: N_5  and  C_12 
REMARK    4  A    between atoms: N_6  and  C_14 
REMARK    5  A    between atoms: C_12  and  C_13 
REMARK    6  A    between atoms: C_13  and  C_15 
REMARK    7  A    between atoms: C_15  and  C_16 
ROOT
HETATM    1  C   UNK N   1      31.176  28.294  -2.570  0.00  0.00     0.032 C 
ENDROOT
BRANCH   1   2
HETATM    2  C   UNK N   1      31.263  27.735  -3.990  0.00  0.00     0.272 C 
BRANCH   2   3
HETATM    3  N   UNK N   1      30.272  26.694  -4.263  0.00  0.00     0.091 N 
HETATM    4  C   UNK N   1      30.493  26.304  -5.662  0.00  0.00     0.292 C 
HETATM    5  C   UNK N   1      29.583  25.143  -6.064  0.00  0.00     0.153 C 
HETATM    6  N   UNK N   1      29.757  24.062  -5.124  0.00  0.00    -0.376 N 
HETATM    7  C   UNK N   1      29.574  24.396  -3.729  0.00  0.00     0.153 C 
HETATM    8  C   UNK N   1      30.534  25.536  -3.394  0.00  0.00     0.292 C 
BRANCH   6   9
HETATM    9  C   UNK N   1      30.128  22.721  -5.502  0.00  0.00     0.053 A 
HETATM   10  C   UNK N   1      29.348  21.887  -6.368  0.00  0.00     0.082 A 
HETATM   11 Cl   UNK N   1      27.833  22.414  -7.113  0.00  0.00    -0.080 Cl
HETATM   12  C   UNK N   1      29.807  20.586  -6.676  0.00  0.00     0.058 A 
HETATM   13 Cl   UNK N   1      28.905  19.523  -7.747  0.00  0.00    -0.082 Cl
HETATM   14  C   UNK N   1      31.004  20.112  -6.141  0.00  0.00     0.026 A 
HETATM   15  C   UNK N   1      31.766  20.916  -5.304  0.00  0.00     0.004 A 
HETATM   16  C   UNK N   1      31.337  22.204  -4.996  0.00  0.00     0.031 A 
ENDBRANCH   6   9
ENDBRANCH   2   3
ENDBRANCH   1   2
BRANCH   1  17
HETATM   17  C   UNK N   1      30.473  29.644  -2.504  0.00  0.00     0.028 C 
BRANCH  17  18
HETATM   18  C   UNK N   1      29.065  29.562  -1.922  0.00  0.00     0.175 C 
BRANCH  18  19
HETATM   19  O   UNK N   1      28.120  29.952  -2.849  0.00  0.00    -0.351 OA
BRANCH  19  20
HETATM   20  C   UNK N   1      27.743  29.206  -3.914  0.00  0.00     0.070 A 
HETATM   21  C   UNK N   1      27.097  27.966  -3.765  0.00  0.00     0.066 A 
HETATM   22  C   UNK N   1      26.737  27.213  -4.890  0.00  0.00     0.043 A 
HETATM   23  N   UNK N   1      26.099  25.964  -4.715  0.00  0.00    -0.327 N 
HETATM   24  C   UNK N   1      27.020  27.704  -6.176  0.00  0.00    -0.031 A 
HETATM   25  C   UNK N   1      25.729  25.176  -5.755  0.00  0.00     0.222 A 
HETATM   26  H   UNK N   1      25.916  25.652  -3.800  0.00  0.00     0.169 HD
HETATM   27  O   UNK N   1      25.187  24.108  -5.530  0.00  0.00    -0.273 OA
HETATM   28  C   UNK N   1      25.967  25.582  -7.185  0.00  0.00     0.108 A 
HETATM   29  C   UNK N   1      26.654  26.933  -7.408  0.00  0.00     0.050 A 
HETATM   30  C   UNK N   1      27.658  28.937  -6.323  0.00  0.00     0.012 A 
HETATM   31  C   UNK N   1      28.020  29.682  -5.199  0.00  0.00     0.037 A 
ENDBRANCH  19  20
ENDBRANCH  18  19
ENDBRANCH  17  18
ENDBRANCH   1  17
TORSDOF 7
ENDMDL
MODEL 7
REMARK VINA RESULT:      -7.1      2.814      4.682
REMARK  7 active torsions:
REMARK  status: ('A' for Active; 'I' for Inactive)
REMARK    1  A    between atoms: O_3  and  C_16 
REMARK    2  A    between atoms: O_3  and  C_22 
REMARK    3  A    between atoms: N_5  and  C_12 
REMARK    4  A    between atoms: N_6  and  C_14 
REMARK    5  A    between atoms: C_12  and  C_13 
REMARK    6  A    between atoms: C_13  and  C_15 
REMARK    7  A    between atoms: C_15  and  C_16 
ROOT
HETATM    1  C   UNK N   1      32.838  15.321   8.012  0.00  0.00     0.032 C 
ENDROOT
BRANCH   1   2
HETATM    2  C   UNK N   1      32.510  16.489   7.080  0.00  0.00     0.272 C 
BRANCH   2   3
HETATM    3  N   UNK N   1      31.185  16.387   6.470  0.00  0.00     0.091 N 
HETATM    4  C   UNK N   1      30.242  16.800   7.517  0.00  0.00     0.292 C 
HETATM    5  C   UNK N   1      28.808  16.836   6.989  0.00  0.00     0.153 C 
HETATM    6  N   UNK N   1      28.763  17.663   5.806  0.00  0.00    -0.376 N 
HETATM    7  C   UNK N   1      29.689  17.314   4.751  0.00  0.00     0.153 C 
HETATM    8  C   UNK N   1      31.097  17.329   5.344  0.00  0.00     0.292 C 
BRANCH   6   9
HETATM    9  C   UNK N   1      27.892  18.802   5.655  0.00  0.00     0.053 A 
HETATM   10  C   UNK N   1      26.841  18.885   4.684  0.00  0.00     0.082 A 
HETATM   11 Cl   UNK N   1      26.456  17.574   3.560  0.00  0.00    -0.080 Cl
HETATM   12  C   UNK N   1      26.044  20.050   4.622  0.00  0.00     0.058 A 
HETATM   13 Cl   UNK N   1      24.727  20.203   3.467  0.00  0.00    -0.082 Cl
HETATM   14  C   UNK N   1      26.277  21.114   5.493  0.00  0.00     0.026 A 
HETATM   15  C   UNK N   1      27.291  21.039   6.438  0.00  0.00     0.004 A 
HETATM   16  C   UNK N   1      28.082  19.897   6.520  0.00  0.00     0.031 A 
ENDBRANCH   6   9
ENDBRANCH   2   3
ENDBRANCH   1   2
BRANCH   1  17
HETATM   17  C   UNK N   1      34.172  14.661   7.691  0.00  0.00     0.028 C 
BRANCH  17  18
HETATM   18  C   UNK N   1      35.243  14.922   8.746  0.00  0.00     0.175 C 
BRANCH  18  19
HETATM   19  O   UNK N   1      35.687  13.743   9.307  0.00  0.00    -0.351 OA
BRANCH  19  20
HETATM   20  C   UNK N   1      35.639  13.462  10.632  0.00  0.00     0.070 A 
HETATM   21  C   UNK N   1      36.283  14.266  11.589  0.00  0.00     0.066 A 
HETATM   22  C   UNK N   1      36.226  13.933  12.949  0.00  0.00     0.043 A 
HETATM   23  N   UNK N   1      36.891  14.750  13.892  0.00  0.00    -0.327 N 
HETATM   24  C   UNK N   1      35.517  12.791  13.357  0.00  0.00    -0.031 A 
HETATM   25  C   UNK N   1      36.887  14.488  15.222  0.00  0.00     0.222 A 
HETATM   26  H   UNK N   1      37.377  15.542  13.570  0.00  0.00     0.169 HD
HETATM   27  O   UNK N   1      37.487  15.233  15.977  0.00  0.00    -0.273 OA
HETATM   28  C   UNK N   1      36.162  13.300  15.797  0.00  0.00     0.108 A 
HETATM   29  C   UNK N   1      35.429  12.397  14.800  0.00  0.00     0.050 A 
HETATM   30  C   UNK N   1      34.875  11.996  12.405  0.00  0.00     0.012 A 
HETATM   31  C   UNK N   1      34.938  12.327  11.051  0.00  0.00     0.037 A 
ENDBRANCH  19  20
ENDBRANCH  18  19
ENDBRANCH  17  18
ENDBRANCH   1  17
TORSDOF 7
ENDMDL
MODEL 8
REMARK VINA RESULT:      -7.0      4.452     11.520
REMARK  7 active torsions:
REMARK  status: ('A' for Active; 'I' for Inactive)
REMARK    1  A    between atoms: O_3  and  C_16 
REMARK    2  A    between atoms: O_3  and  C_22 
REMARK    3  A    between atoms: N_5  and  C_12 
REMARK    4  A    between atoms: N_6  and  C_14 
REMARK    5  A    between atoms: C_12  and  C_13 
REMARK    6  A    between atoms: C_13  and  C_15 
REMARK    7  A    between atoms: C_15  and  C_16 
ROOT
HETATM    1  C   UNK N   1      35.043  15.106  11.742  0.00  0.00     0.032 C 
ENDROOT
BRANCH   1   2
HETATM    2  C   UNK N   1      36.051  14.615  12.782  0.00  0.00     0.272 C 
BRANCH   2   3
HETATM    3  N   UNK N   1      35.965  13.177  13.038  0.00  0.00     0.091 N 
HETATM    4  C   UNK N   1      37.061  12.881  13.968  0.00  0.00     0.292 C 
HETATM    5  C   UNK N   1      37.037  11.416  14.405  0.00  0.00     0.153 C 
HETATM    6  N   UNK N   1      35.728  11.103  14.929  0.00  0.00    -0.376 N 
HETATM    7  C   UNK N   1      34.609  11.398  14.061  0.00  0.00     0.153 C 
HETATM    8  C   UNK N   1      34.682  12.879  13.694  0.00  0.00     0.292 C 
BRANCH   6   9
HETATM    9  C   UNK N   1      35.498  10.565  16.246  0.00  0.00     0.053 A 
HETATM   10  C   UNK N   1      35.336  11.367  17.423  0.00  0.00     0.082 A 
HETATM   11 Cl   UNK N   1      35.366  13.135  17.401  0.00  0.00    -0.080 Cl
HETATM   12  C   UNK N   1      35.113  10.735  18.667  0.00  0.00     0.058 A 
HETATM   13 Cl   UNK N   1      34.887  11.665  20.143  0.00  0.00    -0.082 Cl
HETATM   14  C   UNK N   1      35.055   9.345  18.755  0.00  0.00     0.026 A 
HETATM   15  C   UNK N   1      35.208   8.562  17.619  0.00  0.00     0.004 A 
HETATM   16  C   UNK N   1      35.419   9.165  16.383  0.00  0.00     0.031 A 
ENDBRANCH   6   9
ENDBRANCH   2   3
ENDBRANCH   1   2
BRANCH   1  17
HETATM   17  C   UNK N   1      35.405  16.466  11.161  0.00  0.00     0.028 C 
BRANCH  17  18
HETATM   18  C   UNK N   1      35.161  16.563   9.657  0.00  0.00     0.175 C 
BRANCH  18  19
HETATM   19  O   UNK N   1      34.095  17.393   9.379  0.00  0.00    -0.351 OA
BRANCH  19  20
HETATM   20  C   UNK N   1      33.319  17.293   8.273  0.00  0.00     0.070 A 
HETATM   21  C   UNK N   1      33.851  16.955   7.016  0.00  0.00     0.066 A 
HETATM   22  C   UNK N   1      33.019  16.879   5.891  0.00  0.00     0.043 A 
HETATM   23  N   UNK N   1      33.578  16.550   4.635  0.00  0.00    -0.327 N 
HETATM   24  C   UNK N   1      31.644  17.137   6.022  0.00  0.00    -0.031 A 
HETATM   25  C   UNK N   1      32.839  16.465   3.502  0.00  0.00     0.222 A 
HETATM   26  H   UNK N   1      34.545  16.375   4.580  0.00  0.00     0.169 HD
HETATM   27  O   UNK N   1      33.389  16.181   2.452  0.00  0.00    -0.273 OA
HETATM   28  C   UNK N   1      31.354  16.711   3.500  0.00  0.00     0.108 A 
HETATM   29  C   UNK N   1      30.717  17.067   4.847  0.00  0.00     0.050 A 
HETATM   30  C   UNK N   1      31.116  17.468   7.273  0.00  0.00     0.012 A 
HETATM   31  C   UNK N   1      31.949  17.548   8.390  0.00  0.00     0.037 A 
ENDBRANCH  19  20
ENDBRANCH  18  19
ENDBRANCH  17  18
ENDBRANCH   1  17
TORSDOF 7
ENDMDL
MODEL 9
REMARK VINA RESULT:      -7.0      4.617     11.396
REMARK  7 active torsions:
REMARK  status: ('A' for Active; 'I' for Inactive)
REMARK    1  A    between atoms: O_3  and  C_16 
REMARK    2  A    between atoms: O_3  and  C_22 
REMARK    3  A    between atoms: N_5  and  C_12 
REMARK    4  A    between atoms: N_6  and  C_14 
REMARK    5  A    between atoms: C_12  and  C_13 
REMARK    6  A    between atoms: C_13  and  C_15 
REMARK    7  A    between atoms: C_15  and  C_16 
ROOT
HETATM    1  C   UNK N   1      33.705  15.798   8.926  0.00  0.00     0.032 C 
ENDROOT
BRANCH   1   2
HETATM    2  C   UNK N   1      34.159  14.853   7.812  0.00  0.00     0.272 C 
BRANCH   2   3
HETATM    3  N   UNK N   1      34.909  13.698   8.305  0.00  0.00     0.091 N 
HETATM    4  C   UNK N   1      36.159  14.247   8.843  0.00  0.00     0.292 C 
HETATM    5  C   UNK N   1      37.013  13.154   9.487  0.00  0.00     0.153 C 
HETATM    6  N   UNK N   1      36.217  12.451  10.466  0.00  0.00    -0.376 N 
HETATM    7  C   UNK N   1      34.962  11.910   9.994  0.00  0.00     0.153 C 
HETATM    8  C   UNK N   1      34.154  13.060   9.395  0.00  0.00     0.292 C 
BRANCH   6   9
HETATM    9  C   UNK N   1      36.591  12.306  11.850  0.00  0.00     0.053 A 
HETATM   10  C   UNK N   1      36.511  13.361  12.818  0.00  0.00     0.082 A 
HETATM   11 Cl   UNK N   1      35.906  14.979  12.437  0.00  0.00    -0.080 Cl
HETATM   12  C   UNK N   1      36.903  13.109  14.151  0.00  0.00     0.058 A 
HETATM   13 Cl   UNK N   1      36.808  14.356  15.388  0.00  0.00    -0.082 Cl
HETATM   14  C   UNK N   1      37.369  11.850  14.527  0.00  0.00     0.026 A 
HETATM   15  C   UNK N   1      37.446  10.823  13.597  0.00  0.00     0.004 A 
HETATM   16  C   UNK N   1      37.056  11.048  12.280  0.00  0.00     0.031 A 
ENDBRANCH   6   9
ENDBRANCH   2   3
ENDBRANCH   1   2
BRANCH   1  17
HETATM   17  C   UNK N   1      32.703  16.842   8.448  0.00  0.00     0.028 C 
BRANCH  17  18
HETATM   18  C   UNK N   1      32.069  16.497   7.103  0.00  0.00     0.175 C 
BRANCH  18  19
HETATM   19  O   UNK N   1      30.709  16.304   7.229  0.00  0.00    -0.351 OA
BRANCH  19  20
HETATM   20  C   UNK N   1      29.783  17.283   7.086  0.00  0.00     0.070 A 
HETATM   21  C   UNK N   1      29.355  17.726   5.823  0.00  0.00     0.066 A 
HETATM   22  C   UNK N   1      28.408  18.753   5.714  0.00  0.00     0.043 A 
HETATM   23  N   UNK N   1      28.001  19.190   4.433  0.00  0.00    -0.327 N 
HETATM   24  C   UNK N   1      27.881  19.341   6.877  0.00  0.00    -0.031 A 
HETATM   25  C   UNK N   1      27.097  20.183   4.249  0.00  0.00     0.222 A 
HETATM   26  H   UNK N   1      28.390  18.755   3.641  0.00  0.00     0.169 HD
HETATM   27  O   UNK N   1      26.796  20.512   3.115  0.00  0.00    -0.273 OA
HETATM   28  C   UNK N   1      26.449  20.895   5.407  0.00  0.00     0.108 A 
HETATM   29  C   UNK N   1      26.868  20.441   6.810  0.00  0.00     0.050 A 
HETATM   30  C   UNK N   1      28.306  18.897   8.132  0.00  0.00     0.012 A 
HETATM   31  C   UNK N   1      29.253  17.877   8.236  0.00  0.00     0.037 A 
ENDBRANCH  19  20
ENDBRANCH  18  19
ENDBRANCH  17  18
ENDBRANCH   1  17
TORSDOF 7
ENDMDL
