MODEL 1
REMARK VINA RESULT:      -7.9      0.000      0.000
REMARK  17 active torsions:
REMARK  status: ('A' for Active; 'I' for Inactive)
REMARK    1  A    between atoms: C_17  and  O_2 
REMARK    2  A    between atoms: O_2  and  C_36 
REMARK    3  A    between atoms: C_20  and  O_3 
REMARK    4  A    between atoms: O_3  and  C_37 
REMARK    5  A    between atoms: C_21  and  O_4 
REMARK    6  A    between atoms: C_22  and  O_5 
REMARK    7  A    between atoms: C_30  and  O_7 
REMARK    8  A    between atoms: C_31  and  O_8 
REMARK    9  A    between atoms: O_8  and  C_39 
REMARK   10  A    between atoms: C_41  and  O_12 
REMARK   11  A    between atoms: O_13  and  C_51 
REMARK   12  A    between atoms: O_13  and  C_55 
REMARK   13  A    between atoms: C_44  and  N_15 
REMARK       I    between atoms: N_15  and  C_51 
REMARK   14  A    between atoms: C_37  and  C_40 
REMARK   15  A    between atoms: C_39  and  C_41 
REMARK   16  A    between atoms: C_41  and  C_44 
REMARK   17  A    between atoms: C_44  and  C_48 
ROOT
HETATM    1  O   UNK N   1      19.707  11.527   5.485  0.00  0.00    -0.380 OA
HETATM    2  O   UNK N   1      19.549  14.759   0.300  0.00  0.00    -0.294 OA
HETATM    3  C   UNK N   1      21.459  13.743   3.816  0.00  0.00     0.076 C 
HETATM    4  C   UNK N   1      21.427  12.332   4.505  0.00  0.00     0.125 A 
HETATM    5  C   UNK N   1      20.458  13.865   2.416  0.00  0.00     0.055 C 
HETATM    6  C   UNK N   1      20.291  11.346   4.223  0.00  0.00     0.161 A 
HETATM    7  C   UNK N   1      21.805  14.816   5.078  0.00  0.00     0.176 C 
HETATM    8  C   UNK N   1      21.449  16.374   5.008  0.00  0.00     0.098 C 
HETATM    9  C   UNK N   1      19.116  13.201   2.875  0.00  0.00     0.137 C 
HETATM   10  C   UNK N   1      19.286  11.704   3.135  0.00  0.00     0.068 C 
HETATM   11  C   UNK N   1      20.990  16.394   3.624  0.00  0.00     0.013 C 
HETATM   12  C   UNK N   1      20.723  12.412   5.859  0.00  0.00     0.210 A 
HETATM   13  C   UNK N   1      20.062  15.135   1.346  0.00  0.00     0.171 C 
HETATM   14  C   UNK N   1      22.483  17.477   5.136  0.00  0.00     0.078 C 
HETATM   15  C   UNK N   1      20.775  17.398   2.713  0.00  0.00    -0.029 C 
HETATM   16  C   UNK N   1      21.133  12.892   1.424  0.00  0.00     0.027 C 
HETATM   17  C   UNK N   1      20.166  16.783   1.412  0.00  0.00     0.218 C 
HETATM   18  C   UNK N   1      22.223  18.775   4.256  0.00  0.00     0.164 C 
HETATM   19  C   UNK N   1      21.297  18.616   2.995  0.00  0.00    -0.048 C 
HETATM   20  C   UNK N   1      22.308  15.995   2.770  0.00  0.00     0.023 C 
HETATM   21  C   UNK N   1      19.495  15.903   3.847  0.00  0.00     0.023 C 
HETATM   22  C   UNK N   1      21.170  19.737   2.017  0.00  0.00     0.046 C 
ENDROOT
BRANCH  18  23
HETATM   23  O   UNK N   1      23.453  19.279   3.817  0.00  0.00    -0.309 OA
BRANCH  23  24
HETATM   24  C   UNK N   1      24.674  19.217   4.455  0.00  0.00     0.290 C 
HETATM   25  O   UNK N   1      24.885  19.794   5.510  0.00  0.00    -0.262 OA
BRANCH  24  26
HETATM   26  C   UNK N   1      25.745  18.325   3.945  0.00  0.00     0.244 C 
BRANCH  26  27
HETATM   27  O   UNK N   1      26.776  19.065   3.363  0.00  0.00    -0.383 OA
HETATM   28  H   UNK N   1      26.820  20.034   3.390  0.00  0.00     0.210 HD
ENDBRANCH  26  27
BRANCH  26  29
HETATM   29  C   UNK N   1      26.264  17.263   4.936  0.00  0.00     0.158 C 
BRANCH  29  30
HETATM   30  N   UNK N   1      26.852  17.773   6.172  0.00  0.00    -0.325 N 
HETATM   31  C   UNK N   1      28.016  18.474   6.292  0.00  0.00     0.361 C 
HETATM   32  O   UNK N   1      28.659  18.786   5.298  0.00  0.00    -0.238 OA
HETATM   33  H   UNK N   1      26.358  17.592   7.004  0.00  0.00     0.165 HD
BRANCH  31  34
HETATM   34  O   UNK N   1      28.518  18.790   7.518  0.00  0.00    -0.294 OA
BRANCH  34  35
HETATM   35  C   UNK N   1      29.207  17.929   8.362  0.00  0.00     0.061 C 
HETATM   36  C   UNK N   1      29.981  16.883   7.574  0.00  0.00     0.046 C 
HETATM   37  C   UNK N   1      28.255  17.247   9.330  0.00  0.00     0.046 C 
HETATM   38  C   UNK N   1      30.204  18.738   9.166  0.00  0.00     0.046 C 
ENDBRANCH  34  35
ENDBRANCH  31  34
ENDBRANCH  29  30
BRANCH  29  39
HETATM   39  C   UNK N   1      26.972  16.075   4.331  0.00  0.00    -0.032 A 
HETATM   40  C   UNK N   1      27.667  15.203   5.180  0.00  0.00     0.009 A 
HETATM   41  C   UNK N   1      28.373  14.118   4.657  0.00  0.00     0.001 A 
HETATM   42  C   UNK N   1      28.395  13.900   3.278  0.00  0.00     0.000 A 
HETATM   43  C   UNK N   1      27.714  14.769   2.423  0.00  0.00     0.001 A 
HETATM   44  C   UNK N   1      27.011  15.857   2.946  0.00  0.00     0.009 A 
ENDBRANCH  29  39
ENDBRANCH  26  29
ENDBRANCH  24  26
ENDBRANCH  23  24
ENDBRANCH  18  23
BRANCH   8  45
HETATM   45  O   UNK N   1      20.484  16.680   5.987  0.00  0.00    -0.386 OA
HETATM   46  H   UNK N   1      19.659  16.834   6.474  0.00  0.00     0.210 HD
ENDBRANCH   8  45
BRANCH   7  47
HETATM   47  O   UNK N   1      23.136  14.661   5.427  0.00  0.00    -0.308 OA
BRANCH  47  48
HETATM   48  C   UNK N   1      23.596  14.742   6.696  0.00  0.00     0.293 C 
HETATM   49  O   UNK N   1      24.609  15.382   6.944  0.00  0.00    -0.259 OA
BRANCH  48  50
HETATM   50  C   UNK N   1      22.853  14.078   7.789  0.00  0.00     0.039 A 
HETATM   51  C   UNK N   1      21.791  14.735   8.431  0.00  0.00     0.017 A 
HETATM   52  C   UNK N   1      21.113  14.115   9.487  0.00  0.00     0.001 A 
HETATM   53  C   UNK N   1      21.493  12.838   9.907  0.00  0.00     0.000 A 
HETATM   54  C   UNK N   1      22.547  12.178   9.272  0.00  0.00     0.001 A 
HETATM   55  C   UNK N   1      23.226  12.796   8.217  0.00  0.00     0.017 A 
ENDBRANCH  48  50
ENDBRANCH  47  48
ENDBRANCH   7  47
BRANCH  17  56
HETATM   56  O   UNK N   1      18.927  17.368   1.143  0.00  0.00    -0.384 OA
HETATM   57  H   UNK N   1      18.760  17.971   0.402  0.00  0.00     0.211 HD
ENDBRANCH  17  56
BRANCH   4  58
HETATM   58  O   UNK N   1      22.706  11.774   4.572  0.00  0.00    -0.305 OA
BRANCH  58  59
HETATM   59  C   UNK N   1      23.668  11.639   3.615  0.00  0.00     0.255 C 
HETATM   60  O   UNK N   1      23.540  10.766   2.773  0.00  0.00    -0.266 OA
HETATM   61  C   UNK N   1      24.868  12.525   3.543  0.00  0.00     0.126 C 
ENDBRANCH  58  59
ENDBRANCH   4  58
BRANCH   9  62
HETATM   62  O   UNK N   1      18.079  13.351   1.952  0.00  0.00    -0.394 OA
HETATM   63  H   UNK N   1      18.252  13.655   1.048  0.00  0.00     0.210 HD
ENDBRANCH   9  62
TORSDOF 17
ENDMDL
MODEL 2
REMARK VINA RESULT:      -7.8      1.992      3.020
REMARK  17 active torsions:
REMARK  status: ('A' for Active; 'I' for Inactive)
REMARK    1  A    between atoms: C_17  and  O_2 
REMARK    2  A    between atoms: O_2  and  C_36 
REMARK    3  A    between atoms: C_20  and  O_3 
REMARK    4  A    between atoms: O_3  and  C_37 
REMARK    5  A    between atoms: C_21  and  O_4 
REMARK    6  A    between atoms: C_22  and  O_5 
REMARK    7  A    between atoms: C_30  and  O_7 
REMARK    8  A    between atoms: C_31  and  O_8 
REMARK    9  A    between atoms: O_8  and  C_39 
REMARK   10  A    between atoms: C_41  and  O_12 
REMARK   11  A    between atoms: O_13  and  C_51 
REMARK   12  A    between atoms: O_13  and  C_55 
REMARK   13  A    between atoms: C_44  and  N_15 
REMARK       I    between atoms: N_15  and  C_51 
REMARK   14  A    between atoms: C_37  and  C_40 
REMARK   15  A    between atoms: C_39  and  C_41 
REMARK   16  A    between atoms: C_41  and  C_44 
REMARK   17  A    between atoms: C_44  and  C_48 
ROOT
HETATM    1  O   UNK N   1      20.838  10.830   4.614  0.00  0.00    -0.380 OA
HETATM    2  O   UNK N   1      19.408  15.478   0.911  0.00  0.00    -0.294 OA
HETATM    3  C   UNK N   1      22.209  13.422   3.141  0.00  0.00     0.076 C 
HETATM    4  C   UNK N   1      22.236  11.870   3.377  0.00  0.00     0.125 A 
HETATM    5  C   UNK N   1      20.835  13.975   2.256  0.00  0.00     0.055 C 
HETATM    6  C   UNK N   1      20.965  11.031   3.231  0.00  0.00     0.161 A 
HETATM    7  C   UNK N   1      23.059  14.059   4.458  0.00  0.00     0.176 C 
HETATM    8  C   UNK N   1      22.880  15.571   4.951  0.00  0.00     0.098 C 
HETATM    9  C   UNK N   1      19.642  13.222   2.936  0.00  0.00     0.137 C 
HETATM   10  C   UNK N   1      19.713  11.713   2.694  0.00  0.00     0.068 C 
HETATM   11  C   UNK N   1      22.009  16.013   3.868  0.00  0.00     0.013 C 
HETATM   12  C   UNK N   1      22.015  11.547   4.853  0.00  0.00     0.210 A 
HETATM   13  C   UNK N   1      20.267  15.513   1.783  0.00  0.00     0.171 C 
HETATM   14  C   UNK N   1      24.020  16.569   5.024  0.00  0.00     0.078 C 
HETATM   15  C   UNK N   1      21.632  17.248   3.403  0.00  0.00    -0.029 C 
HETATM   16  C   UNK N   1      21.043  13.337   0.864  0.00  0.00     0.027 C 
HETATM   17  C   UNK N   1      20.574  17.063   2.268  0.00  0.00     0.218 C 
HETATM   18  C   UNK N   1      23.643  18.075   4.684  0.00  0.00     0.164 C 
HETATM   19  C   UNK N   1      22.353  18.317   3.820  0.00  0.00    -0.048 C 
HETATM   20  C   UNK N   1      22.931  15.873   2.543  0.00  0.00     0.023 C 
HETATM   21  C   UNK N   1      20.618  15.499   4.437  0.00  0.00     0.023 C 
HETATM   22  C   UNK N   1      22.049  19.683   3.297  0.00  0.00     0.046 C 
ENDROOT
BRANCH  18  23
HETATM   23  O   UNK N   1      24.719  18.672   4.015  0.00  0.00    -0.309 OA
BRANCH  23  24
HETATM   24  C   UNK N   1      25.849  19.243   4.561  0.00  0.00     0.290 C 
HETATM   25  O   UNK N   1      25.815  19.884   5.600  0.00  0.00    -0.262 OA
BRANCH  24  26
HETATM   26  C   UNK N   1      27.185  18.982   3.970  0.00  0.00     0.244 C 
BRANCH  26  27
HETATM   27  O   UNK N   1      28.023  20.088   4.124  0.00  0.00    -0.383 OA
HETATM   28  H   UNK N   1      28.193  20.732   3.417  0.00  0.00     0.210 HD
ENDBRANCH  26  27
BRANCH  26  29
HETATM   29  C   UNK N   1      27.861  17.663   4.393  0.00  0.00     0.158 C 
BRANCH  29  30
HETATM   30  N   UNK N   1      29.063  17.793   5.213  0.00  0.00    -0.325 N 
HETATM   31  C   UNK N   1      29.234  17.337   6.487  0.00  0.00     0.361 C 
HETATM   32  O   UNK N   1      28.348  16.702   7.044  0.00  0.00    -0.238 OA
HETATM   33  H   UNK N   1      29.829  18.257   4.804  0.00  0.00     0.165 HD
BRANCH  31  34
HETATM   34  O   UNK N   1      30.365  17.628   7.187  0.00  0.00    -0.294 OA
BRANCH  34  35
HETATM   35  C   UNK N   1      31.501  16.832   7.266  0.00  0.00     0.061 C 
HETATM   36  C   UNK N   1      32.767  17.675   7.290  0.00  0.00     0.046 C 
HETATM   37  C   UNK N   1      31.554  15.853   6.107  0.00  0.00     0.046 C 
HETATM   38  C   UNK N   1      31.445  16.040   8.556  0.00  0.00     0.046 C 
ENDBRANCH  34  35
ENDBRANCH  31  34
ENDBRANCH  29  30
BRANCH  29  39
HETATM   39  C   UNK N   1      27.912  16.574   3.350  0.00  0.00    -0.032 A 
HETATM   40  C   UNK N   1      26.707  16.030   2.886  0.00  0.00     0.009 A 
HETATM   41  C   UNK N   1      26.709  14.991   1.954  0.00  0.00     0.001 A 
HETATM   42  C   UNK N   1      27.921  14.481   1.483  0.00  0.00     0.000 A 
HETATM   43  C   UNK N   1      29.128  15.010   1.945  0.00  0.00     0.001 A 
HETATM   44  C   UNK N   1      29.124  16.047   2.880  0.00  0.00     0.009 A 
ENDBRANCH  29  39
ENDBRANCH  26  29
ENDBRANCH  24  26
ENDBRANCH  23  24
ENDBRANCH  18  23
BRANCH   8  45
HETATM   45  O   UNK N   1      22.319  15.580   6.242  0.00  0.00    -0.386 OA
HETATM   46  H   UNK N   1      22.134  15.728   7.183  0.00  0.00     0.210 HD
ENDBRANCH   8  45
BRANCH   7  47
HETATM   47  O   UNK N   1      24.405  13.788   4.278  0.00  0.00    -0.308 OA
BRANCH  47  48
HETATM   48  C   UNK N   1      25.192  13.224   5.222  0.00  0.00     0.293 C 
HETATM   49  O   UNK N   1      24.768  13.055   6.357  0.00  0.00    -0.259 OA
BRANCH  48  50
HETATM   50  C   UNK N   1      26.561  12.787   4.870  0.00  0.00     0.039 A 
HETATM   51  C   UNK N   1      27.674  13.550   5.254  0.00  0.00     0.017 A 
HETATM   52  C   UNK N   1      28.965  13.149   4.889  0.00  0.00     0.001 A 
HETATM   53  C   UNK N   1      29.149  11.986   4.137  0.00  0.00     0.000 A 
HETATM   54  C   UNK N   1      28.045  11.220   3.753  0.00  0.00     0.001 A 
HETATM   55  C   UNK N   1      26.755  11.620   4.116  0.00  0.00     0.017 A 
ENDBRANCH  48  50
ENDBRANCH  47  48
ENDBRANCH   7  47
BRANCH  17  56
HETATM   56  O   UNK N   1      19.390  17.719   2.608  0.00  0.00    -0.384 OA
HETATM   57  H   UNK N   1      18.503  17.344   2.482  0.00  0.00     0.211 HD
ENDBRANCH  17  56
BRANCH   4  58
HETATM   58  O   UNK N   1      23.397  11.300   2.848  0.00  0.00    -0.305 OA
BRANCH  58  59
HETATM   59  C   UNK N   1      23.830  11.197   1.559  0.00  0.00     0.255 C 
HETATM   60  O   UNK N   1      23.289  10.390   0.821  0.00  0.00    -0.266 OA
HETATM   61  C   UNK N   1      24.929  12.042   1.003  0.00  0.00     0.126 C 
ENDBRANCH  58  59
ENDBRANCH   4  58
BRANCH   9  62
HETATM   62  O   UNK N   1      18.389  13.658   2.499  0.00  0.00    -0.394 OA
HETATM   63  H   UNK N   1      17.573  13.281   2.862  0.00  0.00     0.210 HD
ENDBRANCH   9  62
TORSDOF 17
ENDMDL
MODEL 3
REMARK VINA RESULT:      -7.8      2.153      4.211
REMARK  17 active torsions:
REMARK  status: ('A' for Active; 'I' for Inactive)
REMARK    1  A    between atoms: C_17  and  O_2 
REMARK    2  A    between atoms: O_2  and  C_36 
REMARK    3  A    between atoms: C_20  and  O_3 
REMARK    4  A    between atoms: O_3  and  C_37 
REMARK    5  A    between atoms: C_21  and  O_4 
REMARK    6  A    between atoms: C_22  and  O_5 
REMARK    7  A    between atoms: C_30  and  O_7 
REMARK    8  A    between atoms: C_31  and  O_8 
REMARK    9  A    between atoms: O_8  and  C_39 
REMARK   10  A    between atoms: C_41  and  O_12 
REMARK   11  A    between atoms: O_13  and  C_51 
REMARK   12  A    between atoms: O_13  and  C_55 
REMARK   13  A    between atoms: C_44  and  N_15 
REMARK       I    between atoms: N_15  and  C_51 
REMARK   14  A    between atoms: C_37  and  C_40 
REMARK   15  A    between atoms: C_39  and  C_41 
REMARK   16  A    between atoms: C_41  and  C_44 
REMARK   17  A    between atoms: C_44  and  C_48 
ROOT
HETATM    1  O   UNK N   1      18.580  14.213   4.834  0.00  0.00    -0.380 OA
HETATM    2  O   UNK N   1      22.303  12.396   0.341  0.00  0.00    -0.294 OA
HETATM    3  C   UNK N   1      21.649  13.161   4.344  0.00  0.00     0.076 C 
HETATM    4  C   UNK N   1      20.291  12.963   5.108  0.00  0.00     0.125 A 
HETATM    5  C   UNK N   1      21.552  12.859   2.648  0.00  0.00     0.055 C 
HETATM    6  C   UNK N   1      18.960  12.952   4.353  0.00  0.00     0.161 A 
HETATM    7  C   UNK N   1      22.477  14.317   5.260  0.00  0.00     0.176 C 
HETATM    8  C   UNK N   1      23.651  15.220   4.653  0.00  0.00     0.098 C 
HETATM    9  C   UNK N   1      20.248  13.614   2.222  0.00  0.00     0.137 C 
HETATM   10  C   UNK N   1      18.999  12.973   2.830  0.00  0.00     0.068 C 
HETATM   11  C   UNK N   1      23.724  14.569   3.349  0.00  0.00     0.013 C 
HETATM   12  C   UNK N   1      19.749  14.305   5.596  0.00  0.00     0.210 A 
HETATM   13  C   UNK N   1      22.661  12.980   1.356  0.00  0.00     0.171 C 
HETATM   14  C   UNK N   1      25.063  15.241   5.206  0.00  0.00     0.078 C 
HETATM   15  C   UNK N   1      24.660  14.566   2.346  0.00  0.00    -0.029 C 
HETATM   16  C   UNK N   1      21.246  11.346   2.585  0.00  0.00     0.027 C 
HETATM   17  C   UNK N   1      24.104  13.754   1.133  0.00  0.00     0.218 C 
HETATM   18  C   UNK N   1      26.222  15.425   4.133  0.00  0.00     0.164 C 
HETATM   19  C   UNK N   1      25.895  15.039   2.646  0.00  0.00    -0.048 C 
HETATM   20  C   UNK N   1      24.189  13.056   3.694  0.00  0.00     0.023 C 
HETATM   21  C   UNK N   1      22.542  15.338   2.617  0.00  0.00     0.023 C 
HETATM   22  C   UNK N   1      26.987  14.997   1.627  0.00  0.00     0.046 C 
ENDROOT
BRANCH  18  23
HETATM   23  O   UNK N   1      27.332  14.671   4.532  0.00  0.00    -0.309 OA
BRANCH  23  24
HETATM   24  C   UNK N   1      28.656  15.057   4.564  0.00  0.00     0.290 C 
HETATM   25  O   UNK N   1      29.292  15.280   3.545  0.00  0.00    -0.262 OA
BRANCH  24  26
HETATM   26  C   UNK N   1      29.324  15.351   5.856  0.00  0.00     0.244 C 
BRANCH  26  27
HETATM   27  O   UNK N   1      30.410  14.498   6.062  0.00  0.00    -0.383 OA
HETATM   28  H   UNK N   1      30.355  13.532   5.979  0.00  0.00     0.210 HD
ENDBRANCH  26  27
BRANCH  26  29
HETATM   29  C   UNK N   1      29.676  16.830   6.111  0.00  0.00     0.158 C 
BRANCH  29  30
HETATM   30  N   UNK N   1      29.100  17.795   5.177  0.00  0.00    -0.325 N 
HETATM   31  C   UNK N   1      28.385  18.911   5.498  0.00  0.00     0.361 C 
HETATM   32  O   UNK N   1      28.212  19.224   6.669  0.00  0.00    -0.238 OA
HETATM   33  H   UNK N   1      29.243  17.622   4.219  0.00  0.00     0.165 HD
BRANCH  31  34
HETATM   34  O   UNK N   1      27.799  19.668   4.528  0.00  0.00    -0.294 OA
BRANCH  34  35
HETATM   35  C   UNK N   1      26.485  20.119   4.531  0.00  0.00     0.061 C 
HETATM   36  C   UNK N   1      26.312  21.312   5.457  0.00  0.00     0.046 C 
HETATM   37  C   UNK N   1      25.535  19.007   4.937  0.00  0.00     0.046 C 
HETATM   38  C   UNK N   1      26.126  20.563   3.128  0.00  0.00     0.046 C 
ENDBRANCH  34  35
ENDBRANCH  31  34
ENDBRANCH  29  30
BRANCH  29  39
HETATM   39  C   UNK N   1      31.096  17.116   6.533  0.00  0.00    -0.032 A 
HETATM   40  C   UNK N   1      31.356  17.378   7.885  0.00  0.00     0.009 A 
HETATM   41  C   UNK N   1      32.648  17.691   8.311  0.00  0.00     0.001 A 
HETATM   42  C   UNK N   1      33.692  17.750   7.385  0.00  0.00     0.000 A 
HETATM   43  C   UNK N   1      33.442  17.499   6.034  0.00  0.00     0.001 A 
HETATM   44  C   UNK N   1      32.148  17.190   5.608  0.00  0.00     0.009 A 
ENDBRANCH  29  39
ENDBRANCH  26  29
ENDBRANCH  24  26
ENDBRANCH  23  24
ENDBRANCH  18  23
BRANCH   8  45
HETATM   45  O   UNK N   1      23.250  16.570   4.652  0.00  0.00    -0.386 OA
HETATM   46  H   UNK N   1      23.180  17.527   4.795  0.00  0.00     0.210 HD
ENDBRANCH   8  45
BRANCH   7  47
HETATM   47  O   UNK N   1      22.915  13.714   6.427  0.00  0.00    -0.308 OA
BRANCH  47  48
HETATM   48  C   UNK N   1      22.655  14.193   7.666  0.00  0.00     0.293 C 
HETATM   49  O   UNK N   1      22.188  15.314   7.806  0.00  0.00    -0.259 OA
BRANCH  48  50
HETATM   50  C   UNK N   1      22.913  13.343   8.849  0.00  0.00     0.039 A 
HETATM   51  C   UNK N   1      21.846  12.814   9.592  0.00  0.00     0.017 A 
HETATM   52  C   UNK N   1      22.096  12.038  10.730  0.00  0.00     0.001 A 
HETATM   53  C   UNK N   1      23.411  11.790  11.132  0.00  0.00     0.000 A 
HETATM   54  C   UNK N   1      24.477  12.312  10.396  0.00  0.00     0.001 A 
HETATM   55  C   UNK N   1      24.230  13.088   9.259  0.00  0.00     0.017 A 
ENDBRANCH  48  50
ENDBRANCH  47  48
ENDBRANCH   7  47
BRANCH  17  56
HETATM   56  O   UNK N   1      24.062  14.563  -0.004  0.00  0.00    -0.384 OA
HETATM   57  H   UNK N   1      23.642  15.437  -0.035  0.00  0.00     0.211 HD
ENDBRANCH  17  56
BRANCH   4  58
HETATM   58  O   UNK N   1      20.416  12.008   6.121  0.00  0.00    -0.305 OA
BRANCH  58  59
HETATM   59  C   UNK N   1      20.970  10.762   6.105  0.00  0.00     0.255 C 
HETATM   60  O   UNK N   1      20.303   9.829   5.687  0.00  0.00    -0.266 OA
HETATM   61  C   UNK N   1      22.365  10.490   6.563  0.00  0.00     0.126 C 
ENDBRANCH  58  59
ENDBRANCH   4  58
BRANCH   9  62
HETATM   62  O   UNK N   1      20.063  13.664   0.839  0.00  0.00    -0.394 OA
HETATM   63  H   UNK N   1      19.367  14.213   0.446  0.00  0.00     0.210 HD
ENDBRANCH   9  62
TORSDOF 17
ENDMDL
MODEL 4
REMARK VINA RESULT:      -7.6      8.676     13.020
REMARK  17 active torsions:
REMARK  status: ('A' for Active; 'I' for Inactive)
REMARK    1  A    between atoms: C_17  and  O_2 
REMARK    2  A    between atoms: O_2  and  C_36 
REMARK    3  A    between atoms: C_20  and  O_3 
REMARK    4  A    between atoms: O_3  and  C_37 
REMARK    5  A    between atoms: C_21  and  O_4 
REMARK    6  A    between atoms: C_22  and  O_5 
REMARK    7  A    between atoms: C_30  and  O_7 
REMARK    8  A    between atoms: C_31  and  O_8 
REMARK    9  A    between atoms: O_8  and  C_39 
REMARK   10  A    between atoms: C_41  and  O_12 
REMARK   11  A    between atoms: O_13  and  C_51 
REMARK   12  A    between atoms: O_13  and  C_55 
REMARK   13  A    between atoms: C_44  and  N_15 
REMARK       I    between atoms: N_15  and  C_51 
REMARK   14  A    between atoms: C_37  and  C_40 
REMARK   15  A    between atoms: C_39  and  C_41 
REMARK   16  A    between atoms: C_41  and  C_44 
REMARK   17  A    between atoms: C_44  and  C_48 
ROOT
HETATM    1  O   UNK N   1      30.104  13.466   4.196  0.00  0.00    -0.380 OA
HETATM    2  O   UNK N   1      33.902  18.053   5.571  0.00  0.00    -0.294 OA
HETATM    3  C   UNK N   1      33.077  14.009   5.473  0.00  0.00     0.076 C 
HETATM    4  C   UNK N   1      32.224  13.272   4.380  0.00  0.00     0.125 A 
HETATM    5  C   UNK N   1      33.132  15.724   5.284  0.00  0.00     0.055 C 
HETATM    6  C   UNK N   1      31.202  14.035   3.534  0.00  0.00     0.161 A 
HETATM    7  C   UNK N   1      32.972  13.007   6.831  0.00  0.00     0.176 C 
HETATM    8  C   UNK N   1      33.228  13.539   8.318  0.00  0.00     0.098 C 
HETATM    9  C   UNK N   1      31.638  16.103   5.008  0.00  0.00     0.137 C 
HETATM   10  C   UNK N   1      31.153  15.552   3.666  0.00  0.00     0.068 C 
HETATM   11  C   UNK N   1      33.657  14.885   7.958  0.00  0.00     0.013 C 
HETATM   12  C   UNK N   1      30.952  12.691   4.994  0.00  0.00     0.210 A 
HETATM   13  C   UNK N   1      33.827  16.996   6.184  0.00  0.00     0.171 C 
HETATM   14  C   UNK N   1      34.295  12.976   9.238  0.00  0.00     0.078 C 
HETATM   15  C   UNK N   1      34.317  15.879   8.636  0.00  0.00    -0.029 C 
HETATM   16  C   UNK N   1      33.901  15.898   3.954  0.00  0.00     0.027 C 
HETATM   17  C   UNK N   1      34.386  17.152   7.731  0.00  0.00     0.218 C 
HETATM   18  C   UNK N   1      34.995  14.024  10.207  0.00  0.00     0.164 C 
HETATM   19  C   UNK N   1      34.941  15.538   9.789  0.00  0.00    -0.048 C 
HETATM   20  C   UNK N   1      35.021  14.648   7.116  0.00  0.00     0.023 C 
HETATM   21  C   UNK N   1      32.232  15.568   7.791  0.00  0.00     0.023 C 
HETATM   22  C   UNK N   1      35.743  16.549  10.541  0.00  0.00     0.046 C 
ENDROOT
BRANCH  18  23
HETATM   23  O   UNK N   1      36.342  13.673  10.356  0.00  0.00    -0.309 OA
BRANCH  23  24
HETATM   24  C   UNK N   1      36.888  12.409  10.434  0.00  0.00     0.290 C 
HETATM   25  O   UNK N   1      37.597  11.953   9.550  0.00  0.00    -0.262 OA
BRANCH  24  26
HETATM   26  C   UNK N   1      36.743  11.601  11.669  0.00  0.00     0.244 C 
BRANCH  26  27
HETATM   27  O   UNK N   1      37.484  12.151  12.717  0.00  0.00    -0.383 OA
HETATM   28  H   UNK N   1      38.154  11.656  13.215  0.00  0.00     0.210 HD
ENDBRANCH  26  27
BRANCH  26  29
HETATM   29  C   UNK N   1      35.298  11.258  12.083  0.00  0.00     0.158 C 
BRANCH  29  30
HETATM   30  N   UNK N   1      34.936  11.565  13.464  0.00  0.00    -0.325 N 
HETATM   31  C   UNK N   1      34.767  12.805  14.005  0.00  0.00     0.361 C 
HETATM   32  O   UNK N   1      34.864  13.807  13.307  0.00  0.00    -0.238 OA
HETATM   33  H   UNK N   1      34.800  10.798  14.067  0.00  0.00     0.165 HD
BRANCH  31  34
HETATM   34  O   UNK N   1      34.547  12.961  15.340  0.00  0.00    -0.294 OA
BRANCH  34  35
HETATM   35  C   UNK N   1      35.518  12.946  16.333  0.00  0.00     0.061 C 
HETATM   36  C   UNK N   1      35.960  11.526  16.653  0.00  0.00     0.046 C 
HETATM   37  C   UNK N   1      35.010  13.625  17.593  0.00  0.00     0.046 C 
HETATM   38  C   UNK N   1      36.728  13.709  15.836  0.00  0.00     0.046 C 
ENDBRANCH  34  35
ENDBRANCH  31  34
ENDBRANCH  29  30
BRANCH  29  39
HETATM   39  C   UNK N   1      34.740   9.961  11.548  0.00  0.00    -0.032 A 
HETATM   40  C   UNK N   1      35.548   8.817  11.582  0.00  0.00     0.009 A 
HETATM   41  C   UNK N   1      35.088   7.608  11.056  0.00  0.00     0.001 A 
HETATM   42  C   UNK N   1      33.816   7.536  10.486  0.00  0.00     0.000 A 
HETATM   43  C   UNK N   1      33.006   8.673  10.439  0.00  0.00     0.001 A 
HETATM   44  C   UNK N   1      33.469   9.883  10.961  0.00  0.00     0.009 A 
ENDBRANCH  29  39
ENDBRANCH  26  29
ENDBRANCH  24  26
ENDBRANCH  23  24
ENDBRANCH  18  23
BRANCH   8  45
HETATM   45  O   UNK N   1      32.035  13.445   9.061  0.00  0.00    -0.386 OA
HETATM   46  H   UNK N   1      31.158  13.204   9.401  0.00  0.00     0.210 HD
ENDBRANCH   8  45
BRANCH   7  47
HETATM   47  O   UNK N   1      33.749  11.883   6.602  0.00  0.00    -0.308 OA
BRANCH  47  48
HETATM   48  C   UNK N   1      33.386  10.631   6.963  0.00  0.00     0.293 C 
HETATM   49  O   UNK N   1      32.205  10.350   7.108  0.00  0.00    -0.259 OA
BRANCH  48  50
HETATM   50  C   UNK N   1      34.423   9.593   7.153  0.00  0.00     0.039 A 
HETATM   51  C   UNK N   1      34.178   8.263   6.776  0.00  0.00     0.017 A 
HETATM   52  C   UNK N   1      35.151   7.279   6.989  0.00  0.00     0.001 A 
HETATM   53  C   UNK N   1      36.370   7.618   7.580  0.00  0.00     0.000 A 
HETATM   54  C   UNK N   1      36.621   8.941   7.955  0.00  0.00     0.001 A 
HETATM   55  C   UNK N   1      35.651   9.925   7.744  0.00  0.00     0.017 A 
ENDBRANCH  48  50
ENDBRANCH  47  48
ENDBRANCH   7  47
BRANCH  17  56
HETATM   56  O   UNK N   1      33.771  18.228   8.374  0.00  0.00    -0.384 OA
HETATM   57  H   UNK N   1      33.135  18.826   7.949  0.00  0.00     0.211 HD
ENDBRANCH  17  56
BRANCH   4  58
HETATM   58  O   UNK N   1      32.993  12.330   3.691  0.00  0.00    -0.305 OA
BRANCH  58  59
HETATM   59  C   UNK N   1      34.188  12.457   3.047  0.00  0.00     0.255 C 
HETATM   60  O   UNK N   1      35.201  12.075   3.609  0.00  0.00    -0.266 OA
HETATM   61  C   UNK N   1      34.310  13.031   1.673  0.00  0.00     0.126 C 
ENDBRANCH  58  59
ENDBRANCH   4  58
BRANCH   9  62
HETATM   62  O   UNK N   1      31.407  17.480   5.003  0.00  0.00    -0.394 OA
HETATM   63  H   UNK N   1      30.514  17.839   5.117  0.00  0.00     0.210 HD
ENDBRANCH   9  62
TORSDOF 17
ENDMDL
MODEL 5
REMARK VINA RESULT:      -7.5      2.341      4.031
REMARK  17 active torsions:
REMARK  status: ('A' for Active; 'I' for Inactive)
REMARK    1  A    between atoms: C_17  and  O_2 
REMARK    2  A    between atoms: O_2  and  C_36 
REMARK    3  A    between atoms: C_20  and  O_3 
REMARK    4  A    between atoms: O_3  and  C_37 
REMARK    5  A    between atoms: C_21  and  O_4 
REMARK    6  A    between atoms: C_22  and  O_5 
REMARK    7  A    between atoms: C_30  and  O_7 
REMARK    8  A    between atoms: C_31  and  O_8 
REMARK    9  A    between atoms: O_8  and  C_39 
REMARK   10  A    between atoms: C_41  and  O_12 
REMARK   11  A    between atoms: O_13  and  C_51 
REMARK   12  A    between atoms: O_13  and  C_55 
REMARK   13  A    between atoms: C_44  and  N_15 
REMARK       I    between atoms: N_15  and  C_51 
REMARK   14  A    between atoms: C_37  and  C_40 
REMARK   15  A    between atoms: C_39  and  C_41 
REMARK   16  A    between atoms: C_41  and  C_44 
REMARK   17  A    between atoms: C_44  and  C_48 
ROOT
HETATM    1  O   UNK N   1      18.166  13.682   4.286  0.00  0.00    -0.380 OA
HETATM    2  O   UNK N   1      22.385  12.107   0.153  0.00  0.00    -0.294 OA
HETATM    3  C   UNK N   1      21.324  12.816   4.079  0.00  0.00     0.076 C 
HETATM    4  C   UNK N   1      19.916  12.535   4.716  0.00  0.00     0.125 A 
HETATM    5  C   UNK N   1      21.401  12.516   2.382  0.00  0.00     0.055 C 
HETATM    6  C   UNK N   1      18.662  12.447   3.843  0.00  0.00     0.161 A 
HETATM    7  C   UNK N   1      21.995  14.016   5.065  0.00  0.00     0.176 C 
HETATM    8  C   UNK N   1      23.163  14.989   4.566  0.00  0.00     0.098 C 
HETATM    9  C   UNK N   1      20.098  13.193   1.838  0.00  0.00     0.137 C 
HETATM   10  C   UNK N   1      18.839  12.477   2.330  0.00  0.00     0.068 C 
HETATM   11  C   UNK N   1      23.393  14.350   3.275  0.00  0.00     0.013 C 
HETATM   12  C   UNK N   1      19.253  13.840   5.151  0.00  0.00     0.210 A 
HETATM   13  C   UNK N   1      22.613  12.708   1.196  0.00  0.00     0.171 C 
HETATM   14  C   UNK N   1      24.516  15.093   5.245  0.00  0.00     0.078 C 
HETATM   15  C   UNK N   1      24.416  14.407   2.362  0.00  0.00    -0.029 C 
HETATM   16  C   UNK N   1      21.192  10.987   2.294  0.00  0.00     0.027 C 
HETATM   17  C   UNK N   1      24.021  13.567   1.105  0.00  0.00     0.218 C 
HETATM   18  C   UNK N   1      25.754  15.350   4.283  0.00  0.00     0.164 C 
HETATM   19  C   UNK N   1      25.587  14.950   2.772  0.00  0.00    -0.048 C 
HETATM   20  C   UNK N   1      23.914  12.866   3.663  0.00  0.00     0.023 C 
HETATM   21  C   UNK N   1      22.239  15.049   2.437  0.00  0.00     0.023 C 
HETATM   22  C   UNK N   1      26.768  14.977   1.857  0.00  0.00     0.046 C 
ENDROOT
BRANCH  18  23
HETATM   23  O   UNK N   1      26.867  14.662   4.782  0.00  0.00    -0.309 OA
BRANCH  23  24
HETATM   24  C   UNK N   1      27.936  15.172   5.487  0.00  0.00     0.290 C 
HETATM   25  O   UNK N   1      29.027  14.622   5.500  0.00  0.00    -0.262 OA
BRANCH  24  26
HETATM   26  C   UNK N   1      27.837  16.494   6.153  0.00  0.00     0.244 C 
BRANCH  26  27
HETATM   27  O   UNK N   1      28.140  16.393   7.512  0.00  0.00    -0.383 OA
HETATM   28  H   UNK N   1      27.850  17.041   8.174  0.00  0.00     0.210 HD
ENDBRANCH  26  27
BRANCH  26  29
HETATM   29  C   UNK N   1      28.586  17.652   5.464  0.00  0.00     0.158 C 
BRANCH  29  30
HETATM   30  N   UNK N   1      29.994  17.808   5.821  0.00  0.00    -0.325 N 
HETATM   31  C   UNK N   1      31.070  17.387   5.097  0.00  0.00     0.361 C 
HETATM   32  O   UNK N   1      30.914  16.862   4.001  0.00  0.00    -0.238 OA
HETATM   33  H   UNK N   1      30.186  18.263   6.673  0.00  0.00     0.165 HD
BRANCH  31  34
HETATM   34  O   UNK N   1      32.332  17.486   5.598  0.00  0.00    -0.294 OA
BRANCH  34  35
HETATM   35  C   UNK N   1      32.827  16.798   6.699  0.00  0.00     0.061 C 
HETATM   36  C   UNK N   1      32.123  15.462   6.879  0.00  0.00     0.046 C 
HETATM   37  C   UNK N   1      32.687  17.631   7.961  0.00  0.00     0.046 C 
HETATM   38  C   UNK N   1      34.299  16.522   6.472  0.00  0.00     0.046 C 
ENDBRANCH  34  35
ENDBRANCH  31  34
ENDBRANCH  29  30
BRANCH  29  39
HETATM   39  C   UNK N   1      27.819  18.943   5.305  0.00  0.00    -0.032 A 
HETATM   40  C   UNK N   1      27.208  19.214   4.073  0.00  0.00     0.009 A 
HETATM   41  C   UNK N   1      26.527  20.416   3.869  0.00  0.00     0.001 A 
HETATM   42  C   UNK N   1      26.458  21.360   4.895  0.00  0.00     0.000 A 
HETATM   43  C   UNK N   1      27.071  21.103   6.124  0.00  0.00     0.001 A 
HETATM   44  C   UNK N   1      27.755  19.902   6.326  0.00  0.00     0.009 A 
ENDBRANCH  29  39
ENDBRANCH  26  29
ENDBRANCH  24  26
ENDBRANCH  23  24
ENDBRANCH  18  23
BRANCH   8  45
HETATM   45  O   UNK N   1      22.685  16.314   4.526  0.00  0.00    -0.386 OA
HETATM   46  H   UNK N   1      22.153  17.115   4.395  0.00  0.00     0.210 HD
ENDBRANCH   8  45
BRANCH   7  47
HETATM   47  O   UNK N   1      22.360  13.436   6.268  0.00  0.00    -0.308 OA
BRANCH  47  48
HETATM   48  C   UNK N   1      22.097  13.982   7.478  0.00  0.00     0.293 C 
HETATM   49  O   UNK N   1      21.419  14.996   7.561  0.00  0.00    -0.259 OA
BRANCH  48  50
HETATM   50  C   UNK N   1      22.611  13.330   8.703  0.00  0.00     0.039 A 
HETATM   51  C   UNK N   1      23.958  12.945   8.794  0.00  0.00     0.017 A 
HETATM   52  C   UNK N   1      24.431  12.299   9.942  0.00  0.00     0.001 A 
HETATM   53  C   UNK N   1      23.562  12.034  11.003  0.00  0.00     0.000 A 
HETATM   54  C   UNK N   1      22.220  12.416  10.919  0.00  0.00     0.001 A 
HETATM   55  C   UNK N   1      21.746  13.061   9.773  0.00  0.00     0.017 A 
ENDBRANCH  48  50
ENDBRANCH  47  48
ENDBRANCH   7  47
BRANCH  17  56
HETATM   56  O   UNK N   1      24.035  14.376  -0.033  0.00  0.00    -0.384 OA
HETATM   57  H   UNK N   1      23.246  14.795  -0.413  0.00  0.00     0.211 HD
ENDBRANCH  17  56
BRANCH   4  58
HETATM   58  O   UNK N   1      20.005  11.586   5.738  0.00  0.00    -0.305 OA
BRANCH  58  59
HETATM   59  C   UNK N   1      20.581  10.350   5.756  0.00  0.00     0.255 C 
HETATM   60  O   UNK N   1      21.733  10.244   6.145  0.00  0.00    -0.266 OA
HETATM   61  C   UNK N   1      19.859   9.113   5.332  0.00  0.00     0.126 C 
ENDBRANCH  58  59
ENDBRANCH   4  58
BRANCH   9  62
HETATM   62  O   UNK N   1      20.037  13.237   0.443  0.00  0.00    -0.394 OA
HETATM   63  H   UNK N   1      19.976  14.081  -0.030  0.00  0.00     0.210 HD
ENDBRANCH   9  62
TORSDOF 17
ENDMDL
MODEL 6
REMARK VINA RESULT:      -7.5      6.354     12.748
REMARK  17 active torsions:
REMARK  status: ('A' for Active; 'I' for Inactive)
REMARK    1  A    between atoms: C_17  and  O_2 
REMARK    2  A    between atoms: O_2  and  C_36 
REMARK    3  A    between atoms: C_20  and  O_3 
REMARK    4  A    between atoms: O_3  and  C_37 
REMARK    5  A    between atoms: C_21  and  O_4 
REMARK    6  A    between atoms: C_22  and  O_5 
REMARK    7  A    between atoms: C_30  and  O_7 
REMARK    8  A    between atoms: C_31  and  O_8 
REMARK    9  A    between atoms: O_8  and  C_39 
REMARK   10  A    between atoms: C_41  and  O_12 
REMARK   11  A    between atoms: O_13  and  C_51 
REMARK   12  A    between atoms: O_13  and  C_55 
REMARK   13  A    between atoms: C_44  and  N_15 
REMARK       I    between atoms: N_15  and  C_51 
REMARK   14  A    between atoms: C_37  and  C_40 
REMARK   15  A    between atoms: C_39  and  C_41 
REMARK   16  A    between atoms: C_41  and  C_44 
REMARK   17  A    between atoms: C_44  and  C_48 
ROOT
HETATM    1  O   UNK N   1      37.667  10.142   9.270  0.00  0.00    -0.380 OA
HETATM    2  O   UNK N   1      35.346  14.968  12.216  0.00  0.00    -0.294 OA
HETATM    3  C   UNK N   1      35.173  12.267   9.099  0.00  0.00     0.076 C 
HETATM    4  C   UNK N   1      35.626  10.764   9.159  0.00  0.00     0.125 A 
HETATM    5  C   UNK N   1      35.487  13.154  10.545  0.00  0.00     0.055 C 
HETATM    6  C   UNK N   1      36.633  10.289  10.207  0.00  0.00     0.161 A 
HETATM    7  C   UNK N   1      35.276  12.669   7.459  0.00  0.00     0.176 C 
HETATM    8  C   UNK N   1      35.415  14.179   6.948  0.00  0.00     0.098 C 
HETATM    9  C   UNK N   1      36.957  12.749  10.903  0.00  0.00     0.137 C 
HETATM   10  C   UNK N   1      37.058  11.273  11.290  0.00  0.00     0.068 C 
HETATM   11  C   UNK N   1      35.257  14.825   8.245  0.00  0.00     0.013 C 
HETATM   12  C   UNK N   1      36.814  10.525   8.230  0.00  0.00     0.210 A 
HETATM   13  C   UNK N   1      35.278  14.784  11.007  0.00  0.00     0.171 C 
HETATM   14  C   UNK N   1      34.424  14.841   6.010  0.00  0.00     0.078 C 
HETATM   15  C   UNK N   1      34.975  16.112   8.632  0.00  0.00    -0.029 C 
HETATM   16  C   UNK N   1      34.561  12.471  11.576  0.00  0.00     0.027 C 
HETATM   17  C   UNK N   1      35.049  16.202  10.190  0.00  0.00     0.218 C 
HETATM   18  C   UNK N   1      34.168  16.391   6.257  0.00  0.00     0.164 C 
HETATM   19  C   UNK N   1      34.500  16.956   7.685  0.00  0.00    -0.048 C 
HETATM   20  C   UNK N   1      33.750  14.434   8.694  0.00  0.00     0.023 C 
HETATM   21  C   UNK N   1      36.750  14.701   8.773  0.00  0.00     0.023 C 
HETATM   22  C   UNK N   1      34.100  18.349   8.048  0.00  0.00     0.046 C 
ENDROOT
BRANCH  18  23
HETATM   23  O   UNK N   1      32.823  16.676   5.991  0.00  0.00    -0.309 OA
BRANCH  23  24
HETATM   24  C   UNK N   1      32.287  17.276   4.870  0.00  0.00     0.290 C 
HETATM   25  O   UNK N   1      32.979  17.618   3.923  0.00  0.00    -0.262 OA
BRANCH  24  26
HETATM   26  C   UNK N   1      30.817  17.405   4.716  0.00  0.00     0.244 C 
BRANCH  26  27
HETATM   27  O   UNK N   1      30.435  17.212   3.388  0.00  0.00    -0.383 OA
HETATM   28  H   UNK N   1      31.042  17.311   2.637  0.00  0.00     0.210 HD
ENDBRANCH  26  27
BRANCH  26  29
HETATM   29  C   UNK N   1      29.962  16.586   5.704  0.00  0.00     0.158 C 
BRANCH  29  30
HETATM   30  N   UNK N   1      28.919  15.753   5.111  0.00  0.00    -0.325 N 
HETATM   31  C   UNK N   1      28.967  14.405   4.914  0.00  0.00     0.361 C 
HETATM   32  O   UNK N   1      29.932  13.755   5.295  0.00  0.00    -0.238 OA
HETATM   33  H   UNK N   1      28.097  16.212   4.824  0.00  0.00     0.165 HD
BRANCH  31  34
HETATM   34  O   UNK N   1      27.974  13.761   4.240  0.00  0.00    -0.294 OA
BRANCH  34  35
HETATM   35  C   UNK N   1      27.743  13.828   2.872  0.00  0.00     0.061 C 
HETATM   36  C   UNK N   1      29.005  14.214   2.115  0.00  0.00     0.046 C 
HETATM   37  C   UNK N   1      26.632  14.816   2.561  0.00  0.00     0.046 C 
HETATM   38  C   UNK N   1      27.311  12.459   2.388  0.00  0.00     0.046 C 
ENDBRANCH  34  35
ENDBRANCH  31  34
ENDBRANCH  29  30
BRANCH  29  39
HETATM   39  C   UNK N   1      29.576  17.280   6.988  0.00  0.00    -0.032 A 
HETATM   40  C   UNK N   1      30.354  17.059   8.132  0.00  0.00     0.009 A 
HETATM   41  C   UNK N   1      30.006  17.645   9.350  0.00  0.00     0.001 A 
HETATM   42  C   UNK N   1      28.871  18.453   9.435  0.00  0.00     0.000 A 
HETATM   43  C   UNK N   1      28.083  18.673   8.303  0.00  0.00     0.001 A 
HETATM   44  C   UNK N   1      28.430  18.083   7.085  0.00  0.00     0.009 A 
ENDBRANCH  29  39
ENDBRANCH  26  29
ENDBRANCH  24  26
ENDBRANCH  23  24
ENDBRANCH  18  23
BRANCH   8  45
HETATM   45  O   UNK N   1      36.664  14.347   6.319  0.00  0.00    -0.386 OA
HETATM   46  H   UNK N   1      37.580  14.252   6.011  0.00  0.00     0.210 HD
ENDBRANCH   8  45
BRANCH   7  47
HETATM   47  O   UNK N   1      34.231  12.050   6.794  0.00  0.00    -0.308 OA
BRANCH  47  48
HETATM   48  C   UNK N   1      34.337  11.517   5.555  0.00  0.00     0.293 C 
HETATM   49  O   UNK N   1      35.427  11.162   5.129  0.00  0.00    -0.259 OA
BRANCH  48  50
HETATM   50  C   UNK N   1      33.124  11.338   4.727  0.00  0.00     0.039 A 
HETATM   51  C   UNK N   1      33.025  11.947   3.466  0.00  0.00     0.017 A 
HETATM   52  C   UNK N   1      31.861  11.802   2.703  0.00  0.00     0.001 A 
HETATM   53  C   UNK N   1      30.791  11.050   3.194  0.00  0.00     0.000 A 
HETATM   54  C   UNK N   1      30.884  10.440   4.448  0.00  0.00     0.001 A 
HETATM   55  C   UNK N   1      32.045  10.585   5.213  0.00  0.00     0.017 A 
ENDBRANCH  48  50
ENDBRANCH  47  48
ENDBRANCH   7  47
BRANCH  17  56
HETATM   56  O   UNK N   1      36.001  17.150  10.569  0.00  0.00    -0.384 OA
HETATM   57  H   UNK N   1      36.959  17.023  10.487  0.00  0.00     0.211 HD
ENDBRANCH  17  56
BRANCH   4  58
HETATM   58  O   UNK N   1      34.550   9.904   8.924  0.00  0.00    -0.305 OA
BRANCH  58  59
HETATM   59  C   UNK N   1      33.301   9.872   9.469  0.00  0.00     0.255 C 
HETATM   60  O   UNK N   1      32.373  10.350   8.838  0.00  0.00    -0.266 OA
HETATM   61  C   UNK N   1      33.014   9.264  10.803  0.00  0.00     0.126 C 
ENDBRANCH  58  59
ENDBRANCH   4  58
BRANCH   9  62
HETATM   62  O   UNK N   1      37.499  13.496  11.951  0.00  0.00    -0.394 OA
HETATM   63  H   UNK N   1      37.211  14.406  12.119  0.00  0.00     0.210 HD
ENDBRANCH   9  62
TORSDOF 17
ENDMDL
MODEL 7
REMARK VINA RESULT:      -7.5      1.880      2.936
REMARK  17 active torsions:
REMARK  status: ('A' for Active; 'I' for Inactive)
REMARK    1  A    between atoms: C_17  and  O_2 
REMARK    2  A    between atoms: O_2  and  C_36 
REMARK    3  A    between atoms: C_20  and  O_3 
REMARK    4  A    between atoms: O_3  and  C_37 
REMARK    5  A    between atoms: C_21  and  O_4 
REMARK    6  A    between atoms: C_22  and  O_5 
REMARK    7  A    between atoms: C_30  and  O_7 
REMARK    8  A    between atoms: C_31  and  O_8 
REMARK    9  A    between atoms: O_8  and  C_39 
REMARK   10  A    between atoms: C_41  and  O_12 
REMARK   11  A    between atoms: O_13  and  C_51 
REMARK   12  A    between atoms: O_13  and  C_55 
REMARK   13  A    between atoms: C_44  and  N_15 
REMARK       I    between atoms: N_15  and  C_51 
REMARK   14  A    between atoms: C_37  and  C_40 
REMARK   15  A    between atoms: C_39  and  C_41 
REMARK   16  A    between atoms: C_41  and  C_44 
REMARK   17  A    between atoms: C_44  and  C_48 
ROOT
HETATM    1  O   UNK N   1      19.484  10.376   3.804  0.00  0.00    -0.380 OA
HETATM    2  O   UNK N   1      19.692  15.492   0.467  0.00  0.00    -0.294 OA
HETATM    3  C   UNK N   1      21.536  12.808   3.004  0.00  0.00     0.076 C 
HETATM    4  C   UNK N   1      21.278  11.260   3.050  0.00  0.00     0.125 A 
HETATM    5  C   UNK N   1      20.514  13.660   1.906  0.00  0.00     0.055 C 
HETATM    6  C   UNK N   1      19.971  10.666   2.520  0.00  0.00     0.161 A 
HETATM    7  C   UNK N   1      22.126  13.178   4.546  0.00  0.00     0.176 C 
HETATM    8  C   UNK N   1      22.057  14.651   5.166  0.00  0.00     0.098 C 
HETATM    9  C   UNK N   1      19.095  13.069   2.203  0.00  0.00     0.137 C 
HETATM   10  C   UNK N   1      19.001  11.595   1.802  0.00  0.00     0.068 C 
HETATM   11  C   UNK N   1      21.549  15.325   3.977  0.00  0.00     0.013 C 
HETATM   12  C   UNK N   1      20.660  10.857   4.388  0.00  0.00     0.210 A 
HETATM   13  C   UNK N   1      20.310  15.307   1.508  0.00  0.00     0.171 C 
HETATM   14  C   UNK N   1      23.279  15.430   5.616  0.00  0.00     0.078 C 
HETATM   15  C   UNK N   1      21.482  16.641   3.593  0.00  0.00    -0.029 C 
HETATM   16  C   UNK N   1      20.958  13.114   0.530  0.00  0.00     0.027 C 
HETATM   17  C   UNK N   1      20.715  16.735   2.234  0.00  0.00     0.218 C 
HETATM   18  C   UNK N   1      23.221  17.001   5.385  0.00  0.00     0.164 C 
HETATM   19  C   UNK N   1      22.228  17.532   4.289  0.00  0.00    -0.048 C 
HETATM   20  C   UNK N   1      22.734  15.140   2.887  0.00  0.00     0.023 C 
HETATM   21  C   UNK N   1      20.002  15.011   4.150  0.00  0.00     0.023 C 
HETATM   22  C   UNK N   1      22.264  18.968   3.881  0.00  0.00     0.046 C 
ENDROOT
BRANCH  18  23
HETATM   23  O   UNK N   1      24.502  17.459   5.053  0.00  0.00    -0.309 OA
BRANCH  23  24
HETATM   24  C   UNK N   1      25.592  16.715   4.651  0.00  0.00     0.290 C 
HETATM   25  O   UNK N   1      25.777  16.415   3.481  0.00  0.00    -0.262 OA
BRANCH  24  26
HETATM   26  C   UNK N   1      26.664  16.366   5.617  0.00  0.00     0.244 C 
BRANCH  26  27
HETATM   27  O   UNK N   1      27.002  15.015   5.520  0.00  0.00    -0.383 OA
HETATM   28  H   UNK N   1      27.439  14.521   6.233  0.00  0.00     0.210 HD
ENDBRANCH  26  27
BRANCH  26  29
HETATM   29  C   UNK N   1      27.899  17.288   5.613  0.00  0.00     0.158 C 
BRANCH  29  30
HETATM   30  N   UNK N   1      29.052  16.818   6.377  0.00  0.00    -0.325 N 
HETATM   31  C   UNK N   1      30.365  16.946   6.032  0.00  0.00     0.361 C 
HETATM   32  O   UNK N   1      30.685  17.550   5.017  0.00  0.00    -0.238 OA
HETATM   33  H   UNK N   1      28.861  16.362   7.229  0.00  0.00     0.165 HD
BRANCH  31  34
HETATM   34  O   UNK N   1      31.343  16.357   6.775  0.00  0.00    -0.294 OA
BRANCH  34  35
HETATM   35  C   UNK N   1      32.003  16.931   7.855  0.00  0.00     0.061 C 
HETATM   36  C   UNK N   1      32.412  15.880   8.875  0.00  0.00     0.046 C 
HETATM   37  C   UNK N   1      31.134  17.985   8.518  0.00  0.00     0.046 C 
HETATM   38  C   UNK N   1      33.262  17.603   7.348  0.00  0.00     0.046 C 
ENDBRANCH  34  35
ENDBRANCH  31  34
ENDBRANCH  29  30
BRANCH  29  39
HETATM   39  C   UNK N   1      27.627  18.770   5.710  0.00  0.00    -0.032 A 
HETATM   40  C   UNK N   1      27.607  19.368   6.978  0.00  0.00     0.009 A 
HETATM   41  C   UNK N   1      27.315  20.726   7.116  0.00  0.00     0.001 A 
HETATM   42  C   UNK N   1      27.034  21.496   5.986  0.00  0.00     0.000 A 
HETATM   43  C   UNK N   1      27.042  20.908   4.720  0.00  0.00     0.001 A 
HETATM   44  C   UNK N   1      27.331  19.548   4.582  0.00  0.00     0.009 A 
ENDBRANCH  29  39
ENDBRANCH  26  29
ENDBRANCH  24  26
ENDBRANCH  23  24
ENDBRANCH  18  23
BRANCH   8  45
HETATM   45  O   UNK N   1      21.207  14.648   6.289  0.00  0.00    -0.386 OA
HETATM   46  H   UNK N   1      20.455  14.738   6.896  0.00  0.00     0.210 HD
ENDBRANCH   8  45
BRANCH   7  47
HETATM   47  O   UNK N   1      23.421  12.696   4.643  0.00  0.00    -0.308 OA
BRANCH  47  48
HETATM   48  C   UNK N   1      23.820  11.788   5.563  0.00  0.00     0.293 C 
HETATM   49  O   UNK N   1      24.249  10.699   5.208  0.00  0.00    -0.259 OA
BRANCH  48  50
HETATM   50  C   UNK N   1      23.760  12.128   7.002  0.00  0.00     0.039 A 
HETATM   51  C   UNK N   1      22.650  11.758   7.776  0.00  0.00     0.017 A 
HETATM   52  C   UNK N   1      22.584  12.112   9.129  0.00  0.00     0.001 A 
HETATM   53  C   UNK N   1      23.625  12.838   9.713  0.00  0.00     0.000 A 
HETATM   54  C   UNK N   1      24.734  13.208   8.948  0.00  0.00     0.001 A 
HETATM   55  C   UNK N   1      24.801  12.856   7.597  0.00  0.00     0.017 A 
ENDBRANCH  48  50
ENDBRANCH  47  48
ENDBRANCH   7  47
BRANCH  17  56
HETATM   56  O   UNK N   1      19.593  17.554   2.376  0.00  0.00    -0.384 OA
HETATM   57  H   UNK N   1      19.028  17.574   3.165  0.00  0.00     0.211 HD
ENDBRANCH  17  56
BRANCH   4  58
HETATM   58  O   UNK N   1      22.436  10.546   2.731  0.00  0.00    -0.305 OA
BRANCH  58  59
HETATM   59  C   UNK N   1      23.254  10.618   1.643  0.00  0.00     0.255 C 
HETATM   60  O   UNK N   1      22.881  10.121   0.593  0.00  0.00    -0.266 OA
HETATM   61  C   UNK N   1      24.585  11.295   1.674  0.00  0.00     0.126 C 
ENDBRANCH  58  59
ENDBRANCH   4  58
BRANCH   9  62
HETATM   62  O   UNK N   1      18.063  13.747   1.551  0.00  0.00    -0.394 OA
HETATM   63  H   UNK N   1      17.368  14.202   2.051  0.00  0.00     0.210 HD
ENDBRANCH   9  62
TORSDOF 17
ENDMDL
MODEL 8
REMARK VINA RESULT:      -7.5      2.405      5.940
REMARK  17 active torsions:
REMARK  status: ('A' for Active; 'I' for Inactive)
REMARK    1  A    between atoms: C_17  and  O_2 
REMARK    2  A    between atoms: O_2  and  C_36 
REMARK    3  A    between atoms: C_20  and  O_3 
REMARK    4  A    between atoms: O_3  and  C_37 
REMARK    5  A    between atoms: C_21  and  O_4 
REMARK    6  A    between atoms: C_22  and  O_5 
REMARK    7  A    between atoms: C_30  and  O_7 
REMARK    8  A    between atoms: C_31  and  O_8 
REMARK    9  A    between atoms: O_8  and  C_39 
REMARK   10  A    between atoms: C_41  and  O_12 
REMARK   11  A    between atoms: O_13  and  C_51 
REMARK   12  A    between atoms: O_13  and  C_55 
REMARK   13  A    between atoms: C_44  and  N_15 
REMARK       I    between atoms: N_15  and  C_51 
REMARK   14  A    between atoms: C_37  and  C_40 
REMARK   15  A    between atoms: C_39  and  C_41 
REMARK   16  A    between atoms: C_41  and  C_44 
REMARK   17  A    between atoms: C_44  and  C_48 
ROOT
HETATM    1  O   UNK N   1      18.390  12.219   0.023  0.00  0.00    -0.380 OA
HETATM    2  O   UNK N   1      22.337   8.838   3.239  0.00  0.00    -0.294 OA
HETATM    3  C   UNK N   1      20.823  12.536   2.203  0.00  0.00     0.076 C 
HETATM    4  C   UNK N   1      19.327  12.847   1.838  0.00  0.00     0.125 A 
HETATM    5  C   UNK N   1      21.147  10.863   2.475  0.00  0.00     0.055 C 
HETATM    6  C   UNK N   1      18.393  11.741   1.342  0.00  0.00     0.161 A 
HETATM    7  C   UNK N   1      21.701  13.767   1.446  0.00  0.00     0.176 C 
HETATM    8  C   UNK N   1      23.254  13.624   1.086  0.00  0.00     0.098 C 
HETATM    9  C   UNK N   1      20.424  10.157   1.279  0.00  0.00     0.137 C 
HETATM   10  C   UNK N   1      18.905  10.306   1.367  0.00  0.00     0.068 C 
HETATM   11  C   UNK N   1      23.473  12.338   1.738  0.00  0.00     0.013 C 
HETATM   12  C   UNK N   1      19.211  13.293   0.382  0.00  0.00     0.210 A 
HETATM   13  C   UNK N   1      22.558   9.968   2.823  0.00  0.00     0.171 C 
HETATM   14  C   UNK N   1      24.326  14.562   1.609  0.00  0.00     0.078 C 
HETATM   15  C   UNK N   1      24.599  11.656   2.127  0.00  0.00    -0.029 C 
HETATM   16  C   UNK N   1      20.326  10.557   3.748  0.00  0.00     0.027 C 
HETATM   17  C   UNK N   1      24.179  10.256   2.680  0.00  0.00     0.218 C 
HETATM   18  C   UNK N   1      25.737  13.898   1.914  0.00  0.00     0.164 C 
HETATM   19  C   UNK N   1      25.763  12.348   2.170  0.00  0.00    -0.048 C 
HETATM   20  C   UNK N   1      23.201  12.644   3.306  0.00  0.00     0.023 C 
HETATM   21  C   UNK N   1      22.957  11.378   0.583  0.00  0.00     0.023 C 
HETATM   22  C   UNK N   1      27.014  11.692   2.656  0.00  0.00     0.046 C 
ENDROOT
BRANCH  18  23
HETATM   23  O   UNK N   1      26.298  14.521   3.035  0.00  0.00    -0.309 OA
BRANCH  23  24
HETATM   24  C   UNK N   1      27.528  15.137   3.139  0.00  0.00     0.290 C 
HETATM   25  O   UNK N   1      28.302  15.204   2.196  0.00  0.00    -0.262 OA
BRANCH  24  26
HETATM   26  C   UNK N   1      27.903  15.866   4.376  0.00  0.00     0.244 C 
BRANCH  26  27
HETATM   27  O   UNK N   1      29.074  16.602   4.186  0.00  0.00    -0.383 OA
HETATM   28  H   UNK N   1      29.703  16.800   4.899  0.00  0.00     0.210 HD
ENDBRANCH  26  27
BRANCH  26  29
HETATM   29  C   UNK N   1      26.782  16.696   5.033  0.00  0.00     0.158 C 
BRANCH  29  30
HETATM   30  N   UNK N   1      25.608  15.949   5.475  0.00  0.00    -0.325 N 
HETATM   31  C   UNK N   1      25.422  15.371   6.697  0.00  0.00     0.361 C 
HETATM   32  O   UNK N   1      26.263  15.494   7.577  0.00  0.00    -0.238 OA
HETATM   33  H   UNK N   1      24.874  15.853   4.825  0.00  0.00     0.165 HD
BRANCH  31  34
HETATM   34  O   UNK N   1      24.328  14.598   6.945  0.00  0.00    -0.294 OA
BRANCH  34  35
HETATM   35  C   UNK N   1      24.337  13.231   7.191  0.00  0.00     0.061 C 
HETATM   36  C   UNK N   1      24.705  12.932   8.636  0.00  0.00     0.046 C 
HETATM   37  C   UNK N   1      25.299  12.521   6.255  0.00  0.00     0.046 C 
HETATM   38  C   UNK N   1      22.944  12.688   6.944  0.00  0.00     0.046 C 
ENDBRANCH  34  35
ENDBRANCH  31  34
ENDBRANCH  29  30
BRANCH  29  39
HETATM   39  C   UNK N   1      26.490  18.038   4.407  0.00  0.00    -0.032 A 
HETATM   40  C   UNK N   1      27.232  19.151   4.826  0.00  0.00     0.009 A 
HETATM   41  C   UNK N   1      26.964  20.418   4.306  0.00  0.00     0.001 A 
HETATM   42  C   UNK N   1      25.945  20.584   3.366  0.00  0.00     0.000 A 
HETATM   43  C   UNK N   1      25.193  19.483   2.949  0.00  0.00     0.001 A 
HETATM   44  C   UNK N   1      25.460  18.216   3.473  0.00  0.00     0.009 A 
ENDBRANCH  29  39
ENDBRANCH  26  29
ENDBRANCH  24  26
ENDBRANCH  23  24
ENDBRANCH  18  23
BRANCH   8  45
HETATM   45  O   UNK N   1      23.416  13.646  -0.313  0.00  0.00    -0.386 OA
HETATM   46  H   UNK N   1      23.374  13.461  -1.264  0.00  0.00     0.210 HD
ENDBRANCH   8  45
BRANCH   7  47
HETATM   47  O   UNK N   1      21.496  14.942   2.149  0.00  0.00    -0.308 OA
BRANCH  47  48
HETATM   48  C   UNK N   1      21.057  16.091   1.585  0.00  0.00     0.293 C 
HETATM   49  O   UNK N   1      20.701  16.105   0.416  0.00  0.00    -0.259 OA
BRANCH  48  50
HETATM   50  C   UNK N   1      20.982  17.324   2.399  0.00  0.00     0.039 A 
HETATM   51  C   UNK N   1      20.213  18.417   1.967  0.00  0.00     0.017 A 
HETATM   52  C   UNK N   1      20.172  19.593   2.724  0.00  0.00     0.001 A 
HETATM   53  C   UNK N   1      20.899  19.685   3.913  0.00  0.00     0.000 A 
HETATM   54  C   UNK N   1      21.665  18.601   4.349  0.00  0.00     0.001 A 
HETATM   55  C   UNK N   1      21.707  17.425   3.594  0.00  0.00     0.017 A 
ENDBRANCH  48  50
ENDBRANCH  47  48
ENDBRANCH   7  47
BRANCH  17  56
HETATM   56  O   UNK N   1      24.798   9.245   1.942  0.00  0.00    -0.384 OA
HETATM   57  H   UNK N   1      25.369   8.561   2.326  0.00  0.00     0.211 HD
ENDBRANCH  17  56
BRANCH   4  58
HETATM   58  O   UNK N   1      18.764  13.748   2.746  0.00  0.00    -0.305 OA
BRANCH  58  59
HETATM   59  C   UNK N   1      18.716  13.724   4.108  0.00  0.00     0.255 C 
HETATM   60  O   UNK N   1      17.898  13.003   4.654  0.00  0.00    -0.266 OA
HETATM   61  C   UNK N   1      19.632  14.534   4.965  0.00  0.00     0.126 C 
ENDBRANCH  58  59
ENDBRANCH   4  58
BRANCH   9  62
HETATM   62  O   UNK N   1      20.707   8.793   1.187  0.00  0.00    -0.394 OA
HETATM   63  H   UNK N   1      21.222   8.436   0.447  0.00  0.00     0.210 HD
ENDBRANCH   9  62
TORSDOF 17
ENDMDL
MODEL 9
REMARK VINA RESULT:      -7.4      2.733      6.307
REMARK  17 active torsions:
REMARK  status: ('A' for Active; 'I' for Inactive)
REMARK    1  A    between atoms: C_17  and  O_2 
REMARK    2  A    between atoms: O_2  and  C_36 
REMARK    3  A    between atoms: C_20  and  O_3 
REMARK    4  A    between atoms: O_3  and  C_37 
REMARK    5  A    between atoms: C_21  and  O_4 
REMARK    6  A    between atoms: C_22  and  O_5 
REMARK    7  A    between atoms: C_30  and  O_7 
REMARK    8  A    between atoms: C_31  and  O_8 
REMARK    9  A    between atoms: O_8  and  C_39 
REMARK   10  A    between atoms: C_41  and  O_12 
REMARK   11  A    between atoms: O_13  and  C_51 
REMARK   12  A    between atoms: O_13  and  C_55 
REMARK   13  A    between atoms: C_44  and  N_15 
REMARK       I    between atoms: N_15  and  C_51 
REMARK   14  A    between atoms: C_37  and  C_40 
REMARK   15  A    between atoms: C_39  and  C_41 
REMARK   16  A    between atoms: C_41  and  C_44 
REMARK   17  A    between atoms: C_44  and  C_48 
ROOT
HETATM    1  O   UNK N   1      20.623  15.399   2.795  0.00  0.00    -0.380 OA
HETATM    2  O   UNK N   1      24.015  10.351   3.400  0.00  0.00    -0.294 OA
HETATM    3  C   UNK N   1      23.579  14.432   3.841  0.00  0.00     0.076 C 
HETATM    4  C   UNK N   1      22.240  15.183   4.175  0.00  0.00     0.125 A 
HETATM    5  C   UNK N   1      23.393  12.733   3.610  0.00  0.00     0.055 C 
HETATM    6  C   UNK N   1      20.884  14.541   3.874  0.00  0.00     0.161 A 
HETATM    7  C   UNK N   1      24.530  15.600   3.070  0.00  0.00     0.176 C 
HETATM    8  C   UNK N   1      25.746  15.220   2.102  0.00  0.00     0.098 C 
HETATM    9  C   UNK N   1      22.137  12.631   2.681  0.00  0.00     0.137 C 
HETATM   10  C   UNK N   1      20.866  13.095   3.396  0.00  0.00     0.068 C 
HETATM   11  C   UNK N   1      25.717  13.779   2.331  0.00  0.00     0.013 C 
HETATM   12  C   UNK N   1      21.824  16.082   3.012  0.00  0.00     0.210 A 
HETATM   13  C   UNK N   1      24.456  11.471   3.174  0.00  0.00     0.171 C 
HETATM   14  C   UNK N   1      27.176  15.667   2.337  0.00  0.00     0.078 C 
HETATM   15  C   UNK N   1      26.611  12.767   2.090  0.00  0.00    -0.029 C 
HETATM   16  C   UNK N   1      22.967  12.239   5.011  0.00  0.00     0.027 C 
HETATM   17  C   UNK N   1      25.946  11.402   2.461  0.00  0.00     0.218 C 
HETATM   18  C   UNK N   1      28.304  14.630   1.911  0.00  0.00     0.164 C 
HETATM   19  C   UNK N   1      27.889  13.118   1.808  0.00  0.00    -0.048 C 
HETATM   20  C   UNK N   1      26.075  13.627   3.904  0.00  0.00     0.023 C 
HETATM   21  C   UNK N   1      24.571  13.383   1.305  0.00  0.00     0.023 C 
HETATM   22  C   UNK N   1      28.934  12.069   1.609  0.00  0.00     0.046 C 
ENDROOT
BRANCH  18  23
HETATM   23  O   UNK N   1      29.366  14.717   2.819  0.00  0.00    -0.309 OA
BRANCH  23  24
HETATM   24  C   UNK N   1      29.740  15.798   3.589  0.00  0.00     0.290 C 
HETATM   25  O   UNK N   1      30.206  16.815   3.098  0.00  0.00    -0.262 OA
BRANCH  24  26
HETATM   26  C   UNK N   1      29.459  15.818   5.046  0.00  0.00     0.244 C 
BRANCH  26  27
HETATM   27  O   UNK N   1      29.084  14.552   5.500  0.00  0.00    -0.383 OA
HETATM   28  H   UNK N   1      28.277  14.097   5.208  0.00  0.00     0.210 HD
ENDBRANCH  26  27
BRANCH  26  29
HETATM   29  C   UNK N   1      30.542  16.467   5.931  0.00  0.00     0.158 C 
BRANCH  29  30
HETATM   30  N   UNK N   1      31.759  15.685   6.132  0.00  0.00    -0.325 N 
HETATM   31  C   UNK N   1      32.985  15.931   5.587  0.00  0.00     0.361 C 
HETATM   32  O   UNK N   1      33.167  16.920   4.888  0.00  0.00    -0.238 OA
HETATM   33  H   UNK N   1      31.687  14.900   6.721  0.00  0.00     0.165 HD
BRANCH  31  34
HETATM   34  O   UNK N   1      34.014  15.056   5.758  0.00  0.00    -0.294 OA
BRANCH  34  35
HETATM   35  C   UNK N   1      34.744  14.875   6.925  0.00  0.00     0.061 C 
HETATM   36  C   UNK N   1      34.664  16.101   7.823  0.00  0.00     0.046 C 
HETATM   37  C   UNK N   1      36.196  14.561   6.609  0.00  0.00     0.046 C 
HETATM   38  C   UNK N   1      34.158  13.703   7.685  0.00  0.00     0.046 C 
ENDBRANCH  34  35
ENDBRANCH  31  34
ENDBRANCH  29  30
BRANCH  29  39
HETATM   39  C   UNK N   1      30.051  17.213   7.148  0.00  0.00    -0.032 A 
HETATM   40  C   UNK N   1      28.670  17.343   7.345  0.00  0.00     0.009 A 
HETATM   41  C   UNK N   1      28.173  18.064   8.433  0.00  0.00     0.001 A 
HETATM   42  C   UNK N   1      29.057  18.665   9.331  0.00  0.00     0.000 A 
HETATM   43  C   UNK N   1      30.435  18.549   9.140  0.00  0.00     0.001 A 
HETATM   44  C   UNK N   1      30.931  17.831   8.048  0.00  0.00     0.009 A 
ENDBRANCH  29  39
ENDBRANCH  26  29
ENDBRANCH  24  26
ENDBRANCH  23  24
ENDBRANCH  18  23
BRANCH   8  45
HETATM   45  O   UNK N   1      25.453  15.646   0.792  0.00  0.00    -0.386 OA
HETATM   46  H   UNK N   1      25.188  15.697  -0.140  0.00  0.00     0.210 HD
ENDBRANCH   8  45
BRANCH   7  47
HETATM   47  O   UNK N   1      24.965  16.505   4.024  0.00  0.00    -0.308 OA
BRANCH  47  48
HETATM   48  C   UNK N   1      24.800  17.844   3.922  0.00  0.00     0.293 C 
HETATM   49  O   UNK N   1      23.777  18.302   3.434  0.00  0.00    -0.259 OA
BRANCH  48  50
HETATM   50  C   UNK N   1      25.852  18.752   4.429  0.00  0.00     0.039 A 
HETATM   51  C   UNK N   1      27.192  18.571   4.053  0.00  0.00     0.017 A 
HETATM   52  C   UNK N   1      28.187  19.412   4.562  0.00  0.00     0.001 A 
HETATM   53  C   UNK N   1      27.850  20.437   5.450  0.00  0.00     0.000 A 
HETATM   54  C   UNK N   1      26.517  20.624   5.827  0.00  0.00     0.001 A 
HETATM   55  C   UNK N   1      25.521  19.784   5.320  0.00  0.00     0.017 A 
ENDBRANCH  48  50
ENDBRANCH  47  48
ENDBRANCH   7  47
BRANCH  17  56
HETATM   56  O   UNK N   1      25.923  10.563   1.346  0.00  0.00    -0.384 OA
HETATM   57  H   UNK N   1      26.626  10.526   0.678  0.00  0.00     0.211 HD
ENDBRANCH  17  56
BRANCH   4  58
HETATM   58  O   UNK N   1      22.330  15.855   5.397  0.00  0.00    -0.305 OA
BRANCH  58  59
HETATM   59  C   UNK N   1      22.695  15.409   6.632  0.00  0.00     0.255 C 
HETATM   60  O   UNK N   1      23.883  15.307   6.892  0.00  0.00    -0.266 OA
HETATM   61  C   UNK N   1      21.704  15.052   7.691  0.00  0.00     0.126 C 
ENDBRANCH  58  59
ENDBRANCH   4  58
BRANCH   9  62
HETATM   62  O   UNK N   1      21.902  11.340   2.204  0.00  0.00    -0.394 OA
HETATM   63  H   UNK N   1      21.008  10.964   2.193  0.00  0.00     0.210 HD
ENDBRANCH   9  62
TORSDOF 17
ENDMDL
