MODEL 1
REMARK VINA RESULT:      -8.1      0.000      0.000
REMARK  8 active torsions:
REMARK  status: ('A' for Active; 'I' for Inactive)
REMARK    1  A    between atoms: O_3  and  C_21 
REMARK    2  A    between atoms: N_5  and  C_19 
REMARK    3  A    between atoms: N_6  and  C_20 
REMARK    4  A    between atoms: N_11  and  C_23 
REMARK    5  A    between atoms: N_11  and  C_26 
REMARK    6  A    between atoms: N_14  and  C_28 
REMARK       I    between atoms: N_14  and  C_31 
REMARK    7  A    between atoms: C_19  and  C_21 
REMARK    8  A    between atoms: C_27  and  C_31 
ROOT
HETATM    1  N   UNK N   1      36.571  14.158   9.793  0.00  0.00    -0.323 N 
HETATM    2  H   UNK N   1      37.497  13.825   9.794  0.00  0.00     0.169 HD
ENDROOT
BRANCH   1   3
HETATM    3  C   UNK N   1      35.862  14.399   8.582  0.00  0.00     0.111 A 
HETATM    4  N   UNK N   1      36.363  13.985   7.384  0.00  0.00    -0.332 N 
HETATM    5  C   UNK N   1      35.827  14.391   6.206  0.00  0.00     0.080 A 
ATOM      6  HN  UNK N   1      37.163  13.352   7.373  1.00  0.00     0.168 HD
HETATM    7  N   UNK N   1      34.792  15.267   6.211  0.00  0.00    -0.332 N 
HETATM    8  C   UNK N   1      36.433  13.948   4.923  0.00  0.00     0.089 C 
HETATM    9  C   UNK N   1      34.278  15.726   7.383  0.00  0.00     0.108 A 
ATOM     10  HN  UNK N   1      34.394  15.584   5.327  1.00  0.00     0.168 HD
HETATM   11  C   UNK N   1      34.813  15.290   8.600  0.00  0.00     0.097 A 
BRANCH   9  12
HETATM   12  N   UNK N   1      33.265  16.713   7.390  0.00  0.00    -0.364 N 
HETATM   13  C   UNK N   1      32.891  17.372   8.617  0.00  0.00     0.154 C 
HETATM   14  C   UNK N   1      31.411  17.150   8.839  0.00  0.00     0.292 C 
HETATM   15  N   UNK N   1      30.671  17.610   7.660  0.00  0.00     0.093 N 
HETATM   16  C   UNK N   1      31.062  16.862   6.456  0.00  0.00     0.292 C 
HETATM   17  C   UNK N   1      32.551  17.054   6.183  0.00  0.00     0.154 C 
BRANCH  15  18
HETATM   18  C   UNK N   1      29.235  17.469   7.897  0.00  0.00     0.298 C 
BRANCH  18  19
HETATM   19  C   UNK N   1      28.819  17.883   9.306  0.00  0.00     0.194 C 
BRANCH  19  20
HETATM   20  O   UNK N   1      27.456  18.169   9.319  0.00  0.00    -0.399 OA
HETATM   21  H   UNK N   1      27.120  19.042   9.576  0.00  0.00     0.209 HD
ENDBRANCH  19  20
ENDBRANCH  18  19
ENDBRANCH  15  18
ENDBRANCH   9  12
ENDBRANCH   1   3
BRANCH   1  22
HETATM   22  C   UNK N   1      35.877  14.420  10.990  0.00  0.00     0.150 A 
HETATM   23  S   UNK N   1      35.149  13.195  11.797  0.00  0.00    -0.047 SA
HETATM   24  C   UNK N   1      35.508  13.682  13.314  0.00  0.00     0.091 A 
HETATM   25  C   UNK N   1      36.178  14.904  13.206  0.00  0.00     0.115 A 
HETATM   26  N   UNK N   1      36.406  15.288  11.899  0.00  0.00    -0.345 N 
ATOM     27  HN  UNK N   1      36.918  16.131  11.640  1.00  0.00     0.167 HD
BRANCH  24  28
HETATM   28  C   UNK N   1      35.294  12.822  14.463  0.00  0.00     0.264 C 
HETATM   29  O   UNK N   1      34.206  12.268  14.569  0.00  0.00    -0.267 OA
HETATM   30  N   UNK N   1      36.249  12.607  15.397  0.00  0.00    -0.320 N 
HETATM   31  H   UNK N   1      37.157  12.977  15.299  0.00  0.00     0.169 HD
BRANCH  30  32
HETATM   32  C   UNK N   1      35.888  11.829  16.523  0.00  0.00     0.062 A 
HETATM   33  C   UNK N   1      35.438  12.444  17.708  0.00  0.00    -0.034 A 
HETATM   34  C   UNK N   1      35.251  11.674  18.858  0.00  0.00     0.009 A 
HETATM   35  C   UNK N   1      35.200  13.916  17.772  0.00  0.00     0.050 C 
HETATM   36  C   UNK N   1      35.512  10.303  18.835  0.00  0.00     0.002 A 
HETATM   37  C   UNK N   1      35.950   9.690  17.659  0.00  0.00     0.026 A 
HETATM   38  C   UNK N   1      36.138  10.449  16.502  0.00  0.00     0.061 A 
HETATM   39 Cl   UNK N   1      36.755   9.673  15.052  0.00  0.00    -0.082 Cl
ENDBRANCH  30  32
ENDBRANCH  24  28
ENDBRANCH   1  22
TORSDOF 8
ENDMDL
MODEL 2
REMARK VINA RESULT:      -7.7      1.558      2.011
REMARK  8 active torsions:
REMARK  status: ('A' for Active; 'I' for Inactive)
REMARK    1  A    between atoms: O_3  and  C_21 
REMARK    2  A    between atoms: N_5  and  C_19 
REMARK    3  A    between atoms: N_6  and  C_20 
REMARK    4  A    between atoms: N_11  and  C_23 
REMARK    5  A    between atoms: N_11  and  C_26 
REMARK    6  A    between atoms: N_14  and  C_28 
REMARK       I    between atoms: N_14  and  C_31 
REMARK    7  A    between atoms: C_19  and  C_21 
REMARK    8  A    between atoms: C_27  and  C_31 
ROOT
HETATM    1  N   UNK N   1      37.196  13.957   9.961  0.00  0.00    -0.323 N 
HETATM    2  H   UNK N   1      38.157  13.779  10.083  0.00  0.00     0.169 HD
ENDROOT
BRANCH   1   3
HETATM    3  C   UNK N   1      36.613  14.073   8.667  0.00  0.00     0.111 A 
HETATM    4  N   UNK N   1      37.349  13.836   7.544  0.00  0.00    -0.332 N 
HETATM    5  C   UNK N   1      36.888  14.152   6.308  0.00  0.00     0.080 A 
ATOM      6  HN  UNK N   1      38.271  13.411   7.637  1.00  0.00     0.168 HD
HETATM    7  N   UNK N   1      35.681  14.758   6.181  0.00  0.00    -0.332 N 
HETATM    8  C   UNK N   1      37.742  13.916   5.115  0.00  0.00     0.089 C 
HETATM    9  C   UNK N   1      34.926  15.035   7.276  0.00  0.00     0.108 A 
ATOM     10  HN  UNK N   1      35.337  15.008   5.253  1.00  0.00     0.168 HD
HETATM   11  C   UNK N   1      35.387  14.689   8.550  0.00  0.00     0.097 A 
BRANCH   9  12
HETATM   12  N   UNK N   1      33.714  15.754   7.154  0.00  0.00    -0.364 N 
HETATM   13  C   UNK N   1      33.721  17.142   6.763  0.00  0.00     0.154 C 
HETATM   14  C   UNK N   1      33.028  17.940   7.846  0.00  0.00     0.292 C 
HETATM   15  N   UNK N   1      31.689  17.386   8.072  0.00  0.00     0.093 N 
HETATM   16  C   UNK N   1      31.756  15.987   8.519  0.00  0.00     0.292 C 
HETATM   17  C   UNK N   1      32.447  15.134   7.458  0.00  0.00     0.154 C 
BRANCH  15  18
HETATM   18  C   UNK N   1      30.984  18.199   9.063  0.00  0.00     0.298 C 
BRANCH  18  19
HETATM   19  C   UNK N   1      29.566  18.566   8.634  0.00  0.00     0.194 C 
BRANCH  19  20
HETATM   20  O   UNK N   1      28.761  18.687   9.764  0.00  0.00    -0.399 OA
HETATM   21  H   UNK N   1      29.031  19.218  10.529  0.00  0.00     0.209 HD
ENDBRANCH  19  20
ENDBRANCH  18  19
ENDBRANCH  15  18
ENDBRANCH   9  12
ENDBRANCH   1   3
BRANCH   1  22
HETATM   22  C   UNK N   1      36.327  14.110  11.058  0.00  0.00     0.150 A 
HETATM   23  S   UNK N   1      36.104  12.868  12.103  0.00  0.00    -0.047 SA
HETATM   24  C   UNK N   1      36.048  13.743  13.481  0.00  0.00     0.091 A 
HETATM   25  C   UNK N   1      36.141  15.090  13.117  0.00  0.00     0.115 A 
HETATM   26  N   UNK N   1      36.330  15.277  11.762  0.00  0.00    -0.345 N 
ATOM     27  HN  UNK N   1      36.459  16.193  11.333  1.00  0.00     0.167 HD
BRANCH  24  28
HETATM   28  C   UNK N   1      36.093  13.113  14.788  0.00  0.00     0.264 C 
HETATM   29  O   UNK N   1      37.180  12.723  15.198  0.00  0.00    -0.267 OA
HETATM   30  N   UNK N   1      34.992  12.959  15.558  0.00  0.00    -0.320 N 
HETATM   31  H   UNK N   1      34.120  13.331  15.289  0.00  0.00     0.169 HD
BRANCH  30  32
HETATM   32  C   UNK N   1      35.145  12.240  16.767  0.00  0.00     0.062 A 
HETATM   33  C   UNK N   1      34.950  10.845  16.804  0.00  0.00    -0.034 A 
HETATM   34  C   UNK N   1      34.938  10.182  18.033  0.00  0.00     0.009 A 
HETATM   35  C   UNK N   1      34.710  10.066  15.555  0.00  0.00     0.050 C 
HETATM   36  C   UNK N   1      35.114  10.897  19.220  0.00  0.00     0.002 A 
HETATM   37  C   UNK N   1      35.315  12.279  19.184  0.00  0.00     0.026 A 
HETATM   38  C   UNK N   1      35.332  12.952  17.961  0.00  0.00     0.061 A 
HETATM   39 Cl   UNK N   1      35.518  14.700  17.941  0.00  0.00    -0.082 Cl
ENDBRANCH  30  32
ENDBRANCH  24  28
ENDBRANCH   1  22
TORSDOF 8
ENDMDL
MODEL 3
REMARK VINA RESULT:      -7.6      2.763      3.942
REMARK  8 active torsions:
REMARK  status: ('A' for Active; 'I' for Inactive)
REMARK    1  A    between atoms: O_3  and  C_21 
REMARK    2  A    between atoms: N_5  and  C_19 
REMARK    3  A    between atoms: N_6  and  C_20 
REMARK    4  A    between atoms: N_11  and  C_23 
REMARK    5  A    between atoms: N_11  and  C_26 
REMARK    6  A    between atoms: N_14  and  C_28 
REMARK       I    between atoms: N_14  and  C_31 
REMARK    7  A    between atoms: C_19  and  C_21 
REMARK    8  A    between atoms: C_27  and  C_31 
ROOT
HETATM    1  N   UNK N   1      34.571  17.167   7.607  0.00  0.00    -0.323 N 
HETATM    2  H   UNK N   1      35.368  17.672   7.324  0.00  0.00     0.169 HD
ENDROOT
BRANCH   1   3
HETATM    3  C   UNK N   1      33.592  16.726   6.673  0.00  0.00     0.111 A 
HETATM    4  N   UNK N   1      33.950  16.327   5.419  0.00  0.00    -0.332 N 
HETATM    5  C   UNK N   1      33.029  16.117   4.445  0.00  0.00     0.080 A 
ATOM      6  HN  UNK N   1      34.937  16.182   5.209  1.00  0.00     0.168 HD
HETATM    7  N   UNK N   1      31.718  16.350   4.706  0.00  0.00    -0.332 N 
HETATM    8  C   UNK N   1      33.468  15.724   3.081  0.00  0.00     0.089 C 
HETATM    9  C   UNK N   1      31.321  16.773   5.934  0.00  0.00     0.108 A 
ATOM     10  HN  UNK N   1      31.024  16.204   3.972  1.00  0.00     0.168 HD
HETATM   11  C   UNK N   1      32.265  16.967   6.948  0.00  0.00     0.097 A 
BRANCH   9  12
HETATM   12  N   UNK N   1      29.968  17.110   6.178  0.00  0.00    -0.364 N 
HETATM   13  C   UNK N   1      29.068  17.370   5.082  0.00  0.00     0.154 C 
HETATM   14  C   UNK N   1      28.498  18.761   5.260  0.00  0.00     0.292 C 
HETATM   15  N   UNK N   1      27.878  18.863   6.584  0.00  0.00     0.093 N 
HETATM   16  C   UNK N   1      28.861  18.640   7.655  0.00  0.00     0.292 C 
HETATM   17  C   UNK N   1      29.467  17.245   7.525  0.00  0.00     0.154 C 
BRANCH  15  18
HETATM   18  C   UNK N   1      27.259  20.179   6.734  0.00  0.00     0.298 C 
BRANCH  18  19
HETATM   19  C   UNK N   1      26.251  20.494   5.631  0.00  0.00     0.194 C 
BRANCH  19  20
HETATM   20  O   UNK N   1      25.238  19.538   5.648  0.00  0.00    -0.399 OA
HETATM   21  H   UNK N   1      24.578  19.506   6.357  0.00  0.00     0.209 HD
ENDBRANCH  19  20
ENDBRANCH  18  19
ENDBRANCH  15  18
ENDBRANCH   9  12
ENDBRANCH   1   3
BRANCH   1  22
HETATM   22  C   UNK N   1      34.342  16.842   8.958  0.00  0.00     0.150 A 
HETATM   23  S   UNK N   1      34.193  15.274   9.406  0.00  0.00    -0.047 SA
HETATM   24  C   UNK N   1      35.003  15.368  10.822  0.00  0.00     0.091 A 
HETATM   25  C   UNK N   1      35.362  16.707  11.002  0.00  0.00     0.115 A 
HETATM   26  N   UNK N   1      35.014  17.513   9.935  0.00  0.00    -0.345 N 
ATOM     27  HN  UNK N   1      35.237  18.507   9.884  1.00  0.00     0.167 HD
BRANCH  24  28
HETATM   28  C   UNK N   1      35.387  14.181  11.563  0.00  0.00     0.264 C 
HETATM   29  O   UNK N   1      34.515  13.360  11.821  0.00  0.00    -0.267 OA
HETATM   30  N   UNK N   1      36.661  13.952  11.958  0.00  0.00    -0.320 N 
HETATM   31  H   UNK N   1      37.395  14.555  11.700  0.00  0.00     0.169 HD
BRANCH  30  32
HETATM   32  C   UNK N   1      36.892  12.810  12.760  0.00  0.00     0.062 A 
HETATM   33  C   UNK N   1      36.923  12.911  14.166  0.00  0.00    -0.034 A 
HETATM   34  C   UNK N   1      37.321  11.812  14.929  0.00  0.00     0.009 A 
HETATM   35  C   UNK N   1      36.582  14.190  14.855  0.00  0.00     0.050 C 
HETATM   36  C   UNK N   1      37.690  10.619  14.304  0.00  0.00     0.002 A 
HETATM   37  C   UNK N   1      37.652  10.514  12.912  0.00  0.00     0.026 A 
HETATM   38  C   UNK N   1      37.253  11.606  12.138  0.00  0.00     0.061 A 
HETATM   39 Cl   UNK N   1      37.279  11.476  10.386  0.00  0.00    -0.082 Cl
ENDBRANCH  30  32
ENDBRANCH  24  28
ENDBRANCH   1  22
TORSDOF 8
ENDMDL
MODEL 4
REMARK VINA RESULT:      -7.6      3.714     10.745
REMARK  8 active torsions:
REMARK  status: ('A' for Active; 'I' for Inactive)
REMARK    1  A    between atoms: O_3  and  C_21 
REMARK    2  A    between atoms: N_5  and  C_19 
REMARK    3  A    between atoms: N_6  and  C_20 
REMARK    4  A    between atoms: N_11  and  C_23 
REMARK    5  A    between atoms: N_11  and  C_26 
REMARK    6  A    between atoms: N_14  and  C_28 
REMARK       I    between atoms: N_14  and  C_31 
REMARK    7  A    between atoms: C_19  and  C_21 
REMARK    8  A    between atoms: C_27  and  C_31 
ROOT
HETATM    1  N   UNK N   1      33.435  14.925  10.432  0.00  0.00    -0.323 N 
HETATM    2  H   UNK N   1      32.622  14.584  10.871  0.00  0.00     0.169 HD
ENDROOT
BRANCH   1   3
HETATM    3  C   UNK N   1      34.732  14.694  10.970  0.00  0.00     0.111 A 
HETATM    4  N   UNK N   1      35.826  14.638  10.158  0.00  0.00    -0.332 N 
HETATM    5  C   UNK N   1      37.029  14.203  10.609  0.00  0.00     0.080 A 
ATOM      6  HN  UNK N   1      35.737  14.931   9.185  1.00  0.00     0.168 HD
HETATM    7  N   UNK N   1      37.144  13.770  11.890  0.00  0.00    -0.332 N 
HETATM    8  C   UNK N   1      38.184  14.117   9.678  0.00  0.00     0.089 C 
HETATM    9  C   UNK N   1      36.073  13.785  12.725  0.00  0.00     0.108 A 
ATOM     10  HN  UNK N   1      38.045  13.431  12.229  1.00  0.00     0.168 HD
HETATM   11  C   UNK N   1      34.837  14.256  12.270  0.00  0.00     0.097 A 
BRANCH   9  12
HETATM   12  N   UNK N   1      36.167  13.244  14.029  0.00  0.00    -0.364 N 
HETATM   13  C   UNK N   1      35.214  12.262  14.486  0.00  0.00     0.154 C 
HETATM   14  C   UNK N   1      34.552  12.795  15.738  0.00  0.00     0.292 C 
HETATM   15  N   UNK N   1      35.584  13.135  16.723  0.00  0.00     0.093 N 
HETATM   16  C   UNK N   1      36.488  14.177  16.214  0.00  0.00     0.292 C 
HETATM   17  C   UNK N   1      37.187  13.689  14.947  0.00  0.00     0.154 C 
BRANCH  15  18
HETATM   18  C   UNK N   1      34.950  13.578  17.963  0.00  0.00     0.298 C 
BRANCH  18  19
HETATM   19  C   UNK N   1      35.315  12.710  19.164  0.00  0.00     0.194 C 
BRANCH  19  20
HETATM   20  O   UNK N   1      34.803  13.289  20.323  0.00  0.00    -0.399 OA
HETATM   21  H   UNK N   1      34.766  12.804  21.162  0.00  0.00     0.209 HD
ENDBRANCH  19  20
ENDBRANCH  18  19
ENDBRANCH  15  18
ENDBRANCH   9  12
ENDBRANCH   1   3
BRANCH   1  22
HETATM   22  C   UNK N   1      33.373  15.669   9.238  0.00  0.00     0.150 A 
HETATM   23  S   UNK N   1      32.337  15.222   8.051  0.00  0.00    -0.047 SA
HETATM   24  C   UNK N   1      31.871  16.718   7.586  0.00  0.00     0.091 A 
HETATM   25  C   UNK N   1      32.606  17.632   8.346  0.00  0.00     0.115 A 
HETATM   26  N   UNK N   1      33.417  17.030   9.289  0.00  0.00    -0.345 N 
ATOM     27  HN  UNK N   1      33.989  17.551   9.954  1.00  0.00     0.167 HD
BRANCH  24  28
HETATM   28  C   UNK N   1      30.752  16.924   6.684  0.00  0.00     0.264 C 
HETATM   29  O   UNK N   1      30.985  17.409   5.584  0.00  0.00    -0.267 OA
HETATM   30  N   UNK N   1      29.483  16.589   7.014  0.00  0.00    -0.320 N 
HETATM   31  H   UNK N   1      29.277  16.128   7.860  0.00  0.00     0.169 HD
BRANCH  30  32
HETATM   32  C   UNK N   1      28.466  16.931   6.093  0.00  0.00     0.062 A 
HETATM   33  C   UNK N   1      28.165  16.086   5.006  0.00  0.00    -0.034 A 
HETATM   34  C   UNK N   1      27.281  16.522   4.016  0.00  0.00     0.009 A 
HETATM   35  C   UNK N   1      28.812  14.749   4.866  0.00  0.00     0.050 C 
HETATM   36  C   UNK N   1      26.700  17.788   4.101  0.00  0.00     0.002 A 
HETATM   37  C   UNK N   1      26.990  18.624   5.183  0.00  0.00     0.026 A 
HETATM   38  C   UNK N   1      27.870  18.198   6.179  0.00  0.00     0.061 A 
HETATM   39 Cl   UNK N   1      28.276  19.290   7.495  0.00  0.00    -0.082 Cl
ENDBRANCH  30  32
ENDBRANCH  24  28
ENDBRANCH   1  22
TORSDOF 8
ENDMDL
MODEL 5
REMARK VINA RESULT:      -7.6      3.624      5.383
REMARK  8 active torsions:
REMARK  status: ('A' for Active; 'I' for Inactive)
REMARK    1  A    between atoms: O_3  and  C_21 
REMARK    2  A    between atoms: N_5  and  C_19 
REMARK    3  A    between atoms: N_6  and  C_20 
REMARK    4  A    between atoms: N_11  and  C_23 
REMARK    5  A    between atoms: N_11  and  C_26 
REMARK    6  A    between atoms: N_14  and  C_28 
REMARK       I    between atoms: N_14  and  C_31 
REMARK    7  A    between atoms: C_19  and  C_21 
REMARK    8  A    between atoms: C_27  and  C_31 
ROOT
HETATM    1  N   UNK N   1      31.592  15.981   8.264  0.00  0.00    -0.323 N 
HETATM    2  H   UNK N   1      31.158  16.271   9.099  0.00  0.00     0.169 HD
ENDROOT
BRANCH   1   3
HETATM    3  C   UNK N   1      31.133  16.418   6.990  0.00  0.00     0.111 A 
HETATM    4  N   UNK N   1      32.010  16.656   5.974  0.00  0.00    -0.332 N 
HETATM    5  C   UNK N   1      31.629  17.280   4.831  0.00  0.00     0.080 A 
ATOM      6  HN  UNK N   1      32.980  16.357   6.077  1.00  0.00     0.168 HD
HETATM    7  N   UNK N   1      30.352  17.718   4.705  0.00  0.00    -0.332 N 
HETATM    8  C   UNK N   1      32.630  17.557   3.767  0.00  0.00     0.089 C 
HETATM    9  C   UNK N   1      29.451  17.525   5.704  0.00  0.00     0.108 A 
ATOM     10  HN  UNK N   1      30.065  18.199   3.852  1.00  0.00     0.168 HD
HETATM   11  C   UNK N   1      29.835  16.861   6.874  0.00  0.00     0.097 A 
BRANCH   9  12
HETATM   12  N   UNK N   1      28.147  18.068   5.615  0.00  0.00    -0.364 N 
HETATM   13  C   UNK N   1      27.074  17.305   5.027  0.00  0.00     0.154 C 
HETATM   14  C   UNK N   1      26.502  18.107   3.877  0.00  0.00     0.292 C 
HETATM   15  N   UNK N   1      26.103  19.432   4.363  0.00  0.00     0.093 N 
HETATM   16  C   UNK N   1      27.253  20.174   4.900  0.00  0.00     0.292 C 
HETATM   17  C   UNK N   1      27.869  19.409   6.069  0.00  0.00     0.154 C 
BRANCH  15  18
HETATM   18  C   UNK N   1      25.480  20.184   3.275  0.00  0.00     0.298 C 
BRANCH  18  19
HETATM   19  C   UNK N   1      23.956  20.090   3.280  0.00  0.00     0.194 C 
BRANCH  19  20
HETATM   20  O   UNK N   1      23.418  21.329   2.945  0.00  0.00    -0.399 OA
HETATM   21  H   UNK N   1      23.956  22.027   2.540  0.00  0.00     0.209 HD
ENDBRANCH  19  20
ENDBRANCH  18  19
ENDBRANCH  15  18
ENDBRANCH   9  12
ENDBRANCH   1   3
BRANCH   1  22
HETATM   22  C   UNK N   1      32.699  15.111   8.269  0.00  0.00     0.150 A 
HETATM   23  S   UNK N   1      33.821  15.226   9.456  0.00  0.00    -0.047 SA
HETATM   24  C   UNK N   1      34.098  13.628   9.658  0.00  0.00     0.091 A 
HETATM   25  C   UNK N   1      33.326  12.955   8.706  0.00  0.00     0.115 A 
HETATM   26  N   UNK N   1      32.524  13.796   7.959  0.00  0.00    -0.345 N 
ATOM     27  HN  UNK N   1      31.869  13.466   7.250  1.00  0.00     0.167 HD
BRANCH  24  28
HETATM   28  C   UNK N   1      34.867  13.121  10.779  0.00  0.00     0.264 C 
HETATM   29  O   UNK N   1      35.988  12.682  10.553  0.00  0.00    -0.267 OA
HETATM   30  N   UNK N   1      34.395  13.132  12.047  0.00  0.00    -0.320 N 
HETATM   31  H   UNK N   1      33.530  13.548  12.270  0.00  0.00     0.169 HD
BRANCH  30  32
HETATM   32  C   UNK N   1      35.196  12.519  13.039  0.00  0.00     0.062 A 
HETATM   33  C   UNK N   1      34.969  11.182  13.422  0.00  0.00    -0.034 A 
HETATM   34  C   UNK N   1      35.654  10.651  14.518  0.00  0.00     0.009 A 
HETATM   35  C   UNK N   1      33.973  10.332  12.706  0.00  0.00     0.050 C 
HETATM   36  C   UNK N   1      36.556  11.442  15.232  0.00  0.00     0.002 A 
HETATM   37  C   UNK N   1      36.788  12.765  14.848  0.00  0.00     0.026 A 
HETATM   38  C   UNK N   1      36.112  13.305  13.754  0.00  0.00     0.061 A 
HETATM   39 Cl   UNK N   1      36.366  14.991  13.329  0.00  0.00    -0.082 Cl
ENDBRANCH  30  32
ENDBRANCH  24  28
ENDBRANCH   1  22
TORSDOF 8
ENDMDL
MODEL 6
REMARK VINA RESULT:      -7.4      3.139      4.752
REMARK  8 active torsions:
REMARK  status: ('A' for Active; 'I' for Inactive)
REMARK    1  A    between atoms: O_3  and  C_21 
REMARK    2  A    between atoms: N_5  and  C_19 
REMARK    3  A    between atoms: N_6  and  C_20 
REMARK    4  A    between atoms: N_11  and  C_23 
REMARK    5  A    between atoms: N_11  and  C_26 
REMARK    6  A    between atoms: N_14  and  C_28 
REMARK       I    between atoms: N_14  and  C_31 
REMARK    7  A    between atoms: C_19  and  C_21 
REMARK    8  A    between atoms: C_27  and  C_31 
ROOT
HETATM    1  N   UNK N   1      34.030  16.846   8.430  0.00  0.00    -0.323 N 
HETATM    2  H   UNK N   1      34.753  16.774   7.765  0.00  0.00     0.169 HD
ENDROOT
BRANCH   1   3
HETATM    3  C   UNK N   1      32.710  17.232   8.063  0.00  0.00     0.111 A 
HETATM    4  N   UNK N   1      31.878  17.825   8.967  0.00  0.00    -0.332 N 
HETATM    5  C   UNK N   1      30.557  17.999   8.714  0.00  0.00     0.080 A 
ATOM      6  HN  UNK N   1      32.261  18.145   9.856  1.00  0.00     0.168 HD
HETATM    7  N   UNK N   1      30.033  17.535   7.552  0.00  0.00    -0.332 N 
HETATM    8  C   UNK N   1      29.679  18.611   9.746  0.00  0.00     0.089 C 
HETATM    9  C   UNK N   1      30.822  16.916   6.635  0.00  0.00     0.108 A 
ATOM     10  HN  UNK N   1      29.037  17.654   7.365  1.00  0.00     0.168 HD
HETATM   11  C   UNK N   1      32.189  16.757   6.881  0.00  0.00     0.097 A 
BRANCH   9  12
HETATM   12  N   UNK N   1      30.260  16.346   5.468  0.00  0.00    -0.364 N 
HETATM   13  C   UNK N   1      29.963  17.167   4.321  0.00  0.00     0.154 C 
HETATM   14  C   UNK N   1      28.491  17.017   4.003  0.00  0.00     0.292 C 
HETATM   15  N   UNK N   1      28.177  15.597   3.823  0.00  0.00     0.093 N 
HETATM   16  C   UNK N   1      28.453  14.828   5.046  0.00  0.00     0.292 C 
HETATM   17  C   UNK N   1      29.931  14.942   5.412  0.00  0.00     0.154 C 
BRANCH  15  18
HETATM   18  C   UNK N   1      26.773  15.450   3.441  0.00  0.00     0.298 C 
BRANCH  18  19
HETATM   19  C   UNK N   1      26.592  15.003   1.993  0.00  0.00     0.194 C 
BRANCH  19  20
HETATM   20  O   UNK N   1      26.165  13.678   1.971  0.00  0.00    -0.399 OA
HETATM   21  H   UNK N   1      26.740  12.951   2.257  0.00  0.00     0.209 HD
ENDBRANCH  19  20
ENDBRANCH  18  19
ENDBRANCH  15  18
ENDBRANCH   9  12
ENDBRANCH   1   3
BRANCH   1  22
HETATM   22  C   UNK N   1      34.249  16.572   9.793  0.00  0.00     0.150 A 
HETATM   23  S   UNK N   1      33.966  15.068  10.379  0.00  0.00    -0.047 SA
HETATM   24  C   UNK N   1      35.238  14.985  11.402  0.00  0.00     0.091 A 
HETATM   25  C   UNK N   1      35.894  16.218  11.344  0.00  0.00     0.115 A 
HETATM   26  N   UNK N   1      35.348  17.083  10.416  0.00  0.00    -0.345 N 
ATOM     27  HN  UNK N   1      35.729  18.007  10.216  1.00  0.00     0.167 HD
BRANCH  24  28
HETATM   28  C   UNK N   1      35.622  13.740  12.042  0.00  0.00     0.264 C 
HETATM   29  O   UNK N   1      34.826  12.809  12.008  0.00  0.00    -0.267 OA
HETATM   30  N   UNK N   1      36.819  13.577  12.653  0.00  0.00    -0.320 N 
HETATM   31  H   UNK N   1      37.507  14.281  12.630  0.00  0.00     0.169 HD
BRANCH  30  32
HETATM   32  C   UNK N   1      37.037  12.353  13.327  0.00  0.00     0.062 A 
HETATM   33  C   UNK N   1      36.844  12.254  14.720  0.00  0.00    -0.034 A 
HETATM   34  C   UNK N   1      37.228  11.090  15.390  0.00  0.00     0.009 A 
HETATM   35  C   UNK N   1      36.277  13.391  15.503  0.00  0.00     0.050 C 
HETATM   36  C   UNK N   1      37.804  10.031  14.685  0.00  0.00     0.002 A 
HETATM   37  C   UNK N   1      37.989  10.125  13.303  0.00  0.00     0.026 A 
HETATM   38  C   UNK N   1      37.606  11.282  12.623  0.00  0.00     0.061 A 
HETATM   39 Cl   UNK N   1      37.910  11.408  10.896  0.00  0.00    -0.082 Cl
ENDBRANCH  30  32
ENDBRANCH  24  28
ENDBRANCH   1  22
TORSDOF 8
ENDMDL
MODEL 7
REMARK VINA RESULT:      -7.4      7.877     12.135
REMARK  8 active torsions:
REMARK  status: ('A' for Active; 'I' for Inactive)
REMARK    1  A    between atoms: O_3  and  C_21 
REMARK    2  A    between atoms: N_5  and  C_19 
REMARK    3  A    between atoms: N_6  and  C_20 
REMARK    4  A    between atoms: N_11  and  C_23 
REMARK    5  A    between atoms: N_11  and  C_26 
REMARK    6  A    between atoms: N_14  and  C_28 
REMARK       I    between atoms: N_14  and  C_31 
REMARK    7  A    between atoms: C_19  and  C_21 
REMARK    8  A    between atoms: C_27  and  C_31 
ROOT
HETATM    1  N   UNK N   1      25.661  17.281   3.747  0.00  0.00    -0.323 N 
HETATM    2  H   UNK N   1      26.087  17.341   2.861  0.00  0.00     0.169 HD
ENDROOT
BRANCH   1   3
HETATM    3  C   UNK N   1      26.218  17.918   4.892  0.00  0.00     0.111 A 
HETATM    4  N   UNK N   1      26.020  19.248   5.118  0.00  0.00    -0.332 N 
HETATM    5  C   UNK N   1      26.714  19.922   6.069  0.00  0.00     0.080 A 
ATOM      6  HN  UNK N   1      25.330  19.748   4.558  1.00  0.00     0.168 HD
HETATM    7  N   UNK N   1      27.664  19.273   6.787  0.00  0.00    -0.332 N 
HETATM    8  C   UNK N   1      26.496  21.381   6.252  0.00  0.00     0.089 C 
HETATM    9  C   UNK N   1      27.912  17.954   6.576  0.00  0.00     0.108 A 
ATOM     10  HN  UNK N   1      28.197  19.781   7.494  1.00  0.00     0.168 HD
HETATM   11  C   UNK N   1      27.181  17.250   5.614  0.00  0.00     0.097 A 
BRANCH   9  12
HETATM   12  N   UNK N   1      28.968  17.301   7.254  0.00  0.00    -0.364 N 
HETATM   13  C   UNK N   1      29.173  17.511   8.666  0.00  0.00     0.154 C 
HETATM   14  C   UNK N   1      30.581  18.030   8.866  0.00  0.00     0.292 C 
HETATM   15  N   UNK N   1      31.531  17.097   8.252  0.00  0.00     0.093 N 
HETATM   16  C   UNK N   1      31.300  16.970   6.806  0.00  0.00     0.292 C 
HETATM   17  C   UNK N   1      29.890  16.446   6.546  0.00  0.00     0.154 C 
BRANCH  15  18
HETATM   18  C   UNK N   1      32.897  17.552   8.507  0.00  0.00     0.298 C 
BRANCH  18  19
HETATM   19  C   UNK N   1      33.885  17.108   7.432  0.00  0.00     0.194 C 
BRANCH  19  20
HETATM   20  O   UNK N   1      34.576  18.219   6.955  0.00  0.00    -0.399 OA
HETATM   21  H   UNK N   1      35.296  18.135   6.311  0.00  0.00     0.209 HD
ENDBRANCH  19  20
ENDBRANCH  18  19
ENDBRANCH  15  18
ENDBRANCH   9  12
ENDBRANCH   1   3
BRANCH   1  22
HETATM   22  C   UNK N   1      24.469  16.559   3.948  0.00  0.00     0.150 A 
HETATM   23  S   UNK N   1      24.486  15.188   4.843  0.00  0.00    -0.047 SA
HETATM   24  C   UNK N   1      23.061  15.405   5.613  0.00  0.00     0.091 A 
HETATM   25  C   UNK N   1      22.495  16.579   5.106  0.00  0.00     0.115 A 
HETATM   26  N   UNK N   1      23.310  17.230   4.200  0.00  0.00    -0.345 N 
ATOM     27  HN  UNK N   1      23.069  18.121   3.765  1.00  0.00     0.167 HD
BRANCH  24  28
HETATM   28  C   UNK N   1      22.665  14.574   6.734  0.00  0.00     0.264 C 
HETATM   29  O   UNK N   1      22.076  13.527   6.491  0.00  0.00    -0.267 OA
HETATM   30  N   UNK N   1      22.933  14.910   8.017  0.00  0.00    -0.320 N 
HETATM   31  H   UNK N   1      23.470  15.705   8.239  0.00  0.00     0.169 HD
BRANCH  30  32
HETATM   32  C   UNK N   1      22.407  14.070   9.027  0.00  0.00     0.062 A 
HETATM   33  C   UNK N   1      23.146  12.970   9.506  0.00  0.00    -0.034 A 
HETATM   34  C   UNK N   1      22.543  12.058  10.375  0.00  0.00     0.009 A 
HETATM   35  C   UNK N   1      24.552  12.734   9.065  0.00  0.00     0.050 C 
HETATM   36  C   UNK N   1      21.214  12.232  10.765  0.00  0.00     0.002 A 
HETATM   37  C   UNK N   1      20.482  13.326  10.297  0.00  0.00     0.026 A 
HETATM   38  C   UNK N   1      21.075  14.246   9.431  0.00  0.00     0.061 A 
HETATM   39 Cl   UNK N   1      20.117  15.578   8.799  0.00  0.00    -0.082 Cl
ENDBRANCH  30  32
ENDBRANCH  24  28
ENDBRANCH   1  22
TORSDOF 8
ENDMDL
MODEL 8
REMARK VINA RESULT:      -7.3      3.345     10.899
REMARK  8 active torsions:
REMARK  status: ('A' for Active; 'I' for Inactive)
REMARK    1  A    between atoms: O_3  and  C_21 
REMARK    2  A    between atoms: N_5  and  C_19 
REMARK    3  A    between atoms: N_6  and  C_20 
REMARK    4  A    between atoms: N_11  and  C_23 
REMARK    5  A    between atoms: N_11  and  C_26 
REMARK    6  A    between atoms: N_14  and  C_28 
REMARK       I    between atoms: N_14  and  C_31 
REMARK    7  A    between atoms: C_19  and  C_21 
REMARK    8  A    between atoms: C_27  and  C_31 
ROOT
HETATM    1  N   UNK N   1      36.356  14.821  11.816  0.00  0.00    -0.323 N 
HETATM    2  H   UNK N   1      37.180  14.724  11.285  0.00  0.00     0.169 HD
ENDROOT
BRANCH   1   3
HETATM    3  C   UNK N   1      36.285  14.403  13.174  0.00  0.00     0.111 A 
HETATM    4  N   UNK N   1      36.764  15.194  14.176  0.00  0.00    -0.332 N 
HETATM    5  C   UNK N   1      36.912  14.732  15.443  0.00  0.00     0.080 A 
ATOM      6  HN  UNK N   1      37.019  16.159  13.966  1.00  0.00     0.168 HD
HETATM    7  N   UNK N   1      36.617  13.437  15.719  0.00  0.00    -0.332 N 
HETATM    8  C   UNK N   1      37.479  15.617  16.494  0.00  0.00     0.089 C 
HETATM    9  C   UNK N   1      36.161  12.608  14.745  0.00  0.00     0.108 A 
ATOM     10  HN  UNK N   1      36.739  13.084  16.669  1.00  0.00     0.168 HD
HETATM   11  C   UNK N   1      35.984  13.087  13.443  0.00  0.00     0.097 A 
BRANCH   9  12
HETATM   12  N   UNK N   1      35.947  11.234  15.009  0.00  0.00    -0.364 N 
HETATM   13  C   UNK N   1      34.629  10.747  15.334  0.00  0.00     0.154 C 
HETATM   14  C   UNK N   1      34.699  10.061  16.681  0.00  0.00     0.292 C 
HETATM   15  N   UNK N   1      35.732   9.021  16.641  0.00  0.00     0.093 N 
HETATM   16  C   UNK N   1      37.057   9.592  16.359  0.00  0.00     0.292 C 
HETATM   17  C   UNK N   1      37.043  10.296  15.004  0.00  0.00     0.154 C 
BRANCH  15  18
HETATM   18  C   UNK N   1      35.753   8.303  17.915  0.00  0.00     0.298 C 
BRANCH  18  19
HETATM   19  C   UNK N   1      34.452   8.443  18.701  0.00  0.00     0.194 C 
BRANCH  19  20
HETATM   20  O   UNK N   1      34.745   8.797  20.016  0.00  0.00    -0.399 OA
HETATM   21  H   UNK N   1      35.552   9.284  20.246  0.00  0.00     0.209 HD
ENDBRANCH  19  20
ENDBRANCH  18  19
ENDBRANCH  15  18
ENDBRANCH   9  12
ENDBRANCH   1   3
BRANCH   1  22
HETATM   22  C   UNK N   1      35.185  15.381  11.269  0.00  0.00     0.150 A 
HETATM   23  S   UNK N   1      35.290  16.416  10.004  0.00  0.00    -0.047 SA
HETATM   24  C   UNK N   1      33.977  15.897   9.181  0.00  0.00     0.091 A 
HETATM   25  C   UNK N   1      33.373  14.903   9.956  0.00  0.00     0.115 A 
HETATM   26  N   UNK N   1      34.079  14.602  11.105  0.00  0.00    -0.345 N 
ATOM     27  HN  UNK N   1      33.801  13.873  11.761  1.00  0.00     0.167 HD
BRANCH  24  28
HETATM   28  C   UNK N   1      33.709  16.326   7.820  0.00  0.00     0.264 C 
HETATM   29  O   UNK N   1      34.226  17.369   7.437  0.00  0.00    -0.267 OA
HETATM   30  N   UNK N   1      32.931  15.614   6.974  0.00  0.00    -0.320 N 
HETATM   31  H   UNK N   1      32.565  14.735   7.229  0.00  0.00     0.169 HD
BRANCH  30  32
HETATM   32  C   UNK N   1      32.662  16.185   5.708  0.00  0.00     0.062 A 
HETATM   33  C   UNK N   1      31.476  16.913   5.484  0.00  0.00    -0.034 A 
HETATM   34  C   UNK N   1      31.151  17.320   4.189  0.00  0.00     0.009 A 
HETATM   35  C   UNK N   1      30.534  17.217   6.601  0.00  0.00     0.050 C 
HETATM   36  C   UNK N   1      31.993  17.007   3.120  0.00  0.00     0.002 A 
HETATM   37  C   UNK N   1      33.173  16.293   3.342  0.00  0.00     0.026 A 
HETATM   38  C   UNK N   1      33.511  15.882   4.633  0.00  0.00     0.061 A 
HETATM   39 Cl   UNK N   1      34.964  14.926   4.882  0.00  0.00    -0.082 Cl
ENDBRANCH  30  32
ENDBRANCH  24  28
ENDBRANCH   1  22
TORSDOF 8
ENDMDL
MODEL 9
REMARK VINA RESULT:      -7.3      8.031     12.502
REMARK  8 active torsions:
REMARK  status: ('A' for Active; 'I' for Inactive)
REMARK    1  A    between atoms: O_3  and  C_21 
REMARK    2  A    between atoms: N_5  and  C_19 
REMARK    3  A    between atoms: N_6  and  C_20 
REMARK    4  A    between atoms: N_11  and  C_23 
REMARK    5  A    between atoms: N_11  and  C_26 
REMARK    6  A    between atoms: N_14  and  C_28 
REMARK       I    between atoms: N_14  and  C_31 
REMARK    7  A    between atoms: C_19  and  C_21 
REMARK    8  A    between atoms: C_27  and  C_31 
ROOT
HETATM    1  N   UNK N   1      24.536  14.547   7.040  0.00  0.00    -0.323 N 
HETATM    2  H   UNK N   1      24.814  14.196   7.917  0.00  0.00     0.169 HD
ENDROOT
BRANCH   1   3
HETATM    3  C   UNK N   1      23.165  14.628   6.665  0.00  0.00     0.111 A 
HETATM    4  N   UNK N   1      22.415  13.500   6.507  0.00  0.00    -0.332 N 
HETATM    5  C   UNK N   1      21.183  13.534   5.940  0.00  0.00     0.080 A 
ATOM      6  HN  UNK N   1      22.791  12.607   6.824  1.00  0.00     0.168 HD
HETATM    7  N   UNK N   1      20.695  14.712   5.476  0.00  0.00    -0.332 N 
HETATM    8  C   UNK N   1      20.419  12.274   5.748  0.00  0.00     0.089 C 
HETATM    9  C   UNK N   1      21.420  15.855   5.590  0.00  0.00     0.108 A 
ATOM     10  HN  UNK N   1      19.774  14.739   5.038  1.00  0.00     0.168 HD
HETATM   11  C   UNK N   1      22.680  15.828   6.197  0.00  0.00     0.097 A 
BRANCH   9  12
HETATM   12  N   UNK N   1      20.956  17.065   5.020  0.00  0.00    -0.364 N 
HETATM   13  C   UNK N   1      20.090  17.046   3.867  0.00  0.00     0.154 C 
HETATM   14  C   UNK N   1      20.755  17.843   2.766  0.00  0.00     0.292 C 
HETATM   15  N   UNK N   1      21.067  19.187   3.262  0.00  0.00     0.093 N 
HETATM   16  C   UNK N   1      21.994  19.135   4.402  0.00  0.00     0.292 C 
HETATM   17  C   UNK N   1      21.370  18.342   5.548  0.00  0.00     0.154 C 
BRANCH  15  18
HETATM   18  C   UNK N   1      21.640  19.987   2.181  0.00  0.00     0.298 C 
BRANCH  18  19
HETATM   19  C   UNK N   1      20.584  20.713   1.351  0.00  0.00     0.194 C 
BRANCH  19  20
HETATM   20  O   UNK N   1      20.686  20.309   0.023  0.00  0.00    -0.399 OA
HETATM   21  H   UNK N   1      20.185  19.553  -0.322  0.00  0.00     0.209 HD
ENDBRANCH  19  20
ENDBRANCH  18  19
ENDBRANCH  15  18
ENDBRANCH   9  12
ENDBRANCH   1   3
BRANCH   1  22
HETATM   22  C   UNK N   1      25.475  14.994   6.091  0.00  0.00     0.150 A 
HETATM   23  S   UNK N   1      26.730  15.934   6.565  0.00  0.00    -0.047 SA
HETATM   24  C   UNK N   1      27.876  15.278   5.602  0.00  0.00     0.091 A 
HETATM   25  C   UNK N   1      27.246  14.313   4.812  0.00  0.00     0.115 A 
HETATM   26  N   UNK N   1      25.910  14.142   5.120  0.00  0.00    -0.345 N 
ATOM     27  HN  UNK N   1      25.312  13.450   4.669  1.00  0.00     0.167 HD
BRANCH  24  28
HETATM   28  C   UNK N   1      29.284  15.586   5.773  0.00  0.00     0.264 C 
HETATM   29  O   UNK N   1      30.078  14.653   5.778  0.00  0.00    -0.267 OA
HETATM   30  N   UNK N   1      29.739  16.853   5.911  0.00  0.00    -0.320 N 
HETATM   31  H   UNK N   1      29.134  17.627   5.835  0.00  0.00     0.169 HD
BRANCH  30  32
HETATM   32  C   UNK N   1      31.119  17.018   6.172  0.00  0.00     0.062 A 
HETATM   33  C   UNK N   1      31.585  17.214   7.488  0.00  0.00    -0.034 A 
HETATM   34  C   UNK N   1      32.924  17.545   7.704  0.00  0.00     0.009 A 
HETATM   35  C   UNK N   1      30.661  17.120   8.656  0.00  0.00     0.050 C 
HETATM   36  C   UNK N   1      33.798  17.684   6.624  0.00  0.00     0.002 A 
HETATM   37  C   UNK N   1      33.339  17.482   5.319  0.00  0.00     0.026 A 
HETATM   38  C   UNK N   1      32.003  17.148   5.091  0.00  0.00     0.061 A 
HETATM   39 Cl   UNK N   1      31.430  16.966   3.439  0.00  0.00    -0.082 Cl
ENDBRANCH  30  32
ENDBRANCH  24  28
ENDBRANCH   1  22
TORSDOF 8
ENDMDL
