MODEL 1
REMARK VINA RESULT:      -5.9      0.000      0.000
REMARK  10 active torsions:
REMARK  status: ('A' for Active; 'I' for Inactive)
REMARK    1  A    between atoms: C_6  and  C_7 
REMARK    2  A    between atoms: C_7  and  C_8 
REMARK    3  A    between atoms: C_8  and  N_9 
REMARK       I    between atoms: N_9  and  C_10 
REMARK    4  A    between atoms: C_10  and  C_11 
REMARK    5  A    between atoms: C_11  and  C_12 
REMARK    6  A    between atoms: C_11  and  N_18 
REMARK    7  A    between atoms: C_12  and  C_13 
REMARK    8  A    between atoms: C_13  and  C_14 
REMARK    9  A    between atoms: C_14  and  C_15 
REMARK   10  A    between atoms: C_15  and  N_19 
ROOT
HETATM    1  N   UNK N   1      36.854  13.550  13.967  0.00  0.00    -0.355 N 
HETATM    2  C   UNK N   1      37.183  12.406  13.299  0.00  0.00     0.240 C 
HETATM    3  O   UNK N   1      37.588  11.427  13.902  0.00  0.00    -0.271 OA
HETATM    4  H   UNK N   1      36.568  14.320  13.425  0.00  0.00     0.162 HD
ENDROOT
BRANCH   2   5
HETATM    5  C   UNK N   1      37.106  12.360  11.796  0.00  0.00     0.167 C 
BRANCH   5   6
HETATM    6  C   UNK N   1      35.687  12.635  11.324  0.00  0.00     0.034 C 
BRANCH   6   7
HETATM    7  C   UNK N   1      35.634  13.908  10.499  0.00  0.00     0.004 C 
BRANCH   7   8
HETATM    8  C   UNK N   1      34.763  14.930  11.206  0.00  0.00     0.019 C 
BRANCH   8   9
HETATM    9  C   UNK N   1      35.418  16.294  11.139  0.00  0.00     0.111 C 
BRANCH   9  10
HETATM   10  N   UNK N   1      34.696  17.129  10.196  0.00  0.00    -0.430 N 
HETATM   11  H   UNK N   1      33.765  16.859   9.876  0.00  0.00     0.149 HD
HETATM   12  H   UNK N   1      35.121  17.990   9.851  0.00  0.00     0.149 HD
ENDBRANCH   9  10
ENDBRANCH   8   9
ENDBRANCH   7   8
ENDBRANCH   6   7
ENDBRANCH   5   6
BRANCH   5  13
HETATM   13  N   UNK N   1      38.015  13.317  11.184  0.00  0.00    -0.418 N 
HETATM   14  H   UNK N   1      39.021  13.258  11.337  0.00  0.00     0.150 HD
HETATM   15  H   UNK N   1      37.639  14.059  10.593  0.00  0.00     0.150 HD
ENDBRANCH   5  13
ENDBRANCH   2   5
BRANCH   1  16
HETATM   16  C   UNK N   1      36.891  13.732  15.408  0.00  0.00     0.084 C 
HETATM   17  C   UNK N   1      37.236  15.171  15.781  0.00  0.00     0.032 C 
BRANCH  16  18
HETATM   18  C   UNK N   1      35.485  13.431  15.927  0.00  0.00     0.063 C 
BRANCH  18  19
HETATM   19  C   UNK N   1      35.400  12.671  17.218  0.00  0.00    -0.056 A 
HETATM   20  C   UNK N   1      35.635  11.290  17.270  0.00  0.00     0.007 A 
HETATM   21  C   UNK N   1      35.621  10.618  18.496  0.00  0.00     0.001 A 
HETATM   22  C   UNK N   1      35.394  11.328  19.679  0.00  0.00     0.000 A 
HETATM   23  C   UNK N   1      35.172  12.707  19.633  0.00  0.00     0.001 A 
HETATM   24  C   UNK N   1      35.174  13.377  18.405  0.00  0.00     0.007 A 
ENDBRANCH  18  19
ENDBRANCH  16  18
ENDBRANCH   1  16
TORSDOF 10
ENDMDL
MODEL 2
REMARK VINA RESULT:      -5.8      1.857      2.565
REMARK  10 active torsions:
REMARK  status: ('A' for Active; 'I' for Inactive)
REMARK    1  A    between atoms: C_6  and  C_7 
REMARK    2  A    between atoms: C_7  and  C_8 
REMARK    3  A    between atoms: C_8  and  N_9 
REMARK       I    between atoms: N_9  and  C_10 
REMARK    4  A    between atoms: C_10  and  C_11 
REMARK    5  A    between atoms: C_11  and  C_12 
REMARK    6  A    between atoms: C_11  and  N_18 
REMARK    7  A    between atoms: C_12  and  C_13 
REMARK    8  A    between atoms: C_13  and  C_14 
REMARK    9  A    between atoms: C_14  and  C_15 
REMARK   10  A    between atoms: C_15  and  N_19 
ROOT
HETATM    1  N   UNK N   1      35.670  11.987  13.445  0.00  0.00    -0.355 N 
HETATM    2  C   UNK N   1      35.570  13.063  12.610  0.00  0.00     0.240 C 
HETATM    3  O   UNK N   1      34.661  13.865  12.733  0.00  0.00    -0.271 OA
HETATM    4  H   UNK N   1      36.404  11.353  13.274  0.00  0.00     0.162 HD
ENDROOT
BRANCH   2   5
HETATM    5  C   UNK N   1      36.553  13.238  11.482  0.00  0.00     0.167 C 
BRANCH   5   6
HETATM    6  C   UNK N   1      36.491  14.654  10.934  0.00  0.00     0.034 C 
BRANCH   6   7
HETATM    7  C   UNK N   1      35.762  14.682   9.602  0.00  0.00     0.004 C 
BRANCH   7   8
HETATM    8  C   UNK N   1      34.945  15.957   9.502  0.00  0.00     0.019 C 
BRANCH   8   9
HETATM    9  C   UNK N   1      33.487  15.613   9.275  0.00  0.00     0.111 C 
BRANCH   9  10
HETATM   10  N   UNK N   1      32.944  15.004  10.474  0.00  0.00    -0.430 N 
HETATM   11  H   UNK N   1      32.049  15.316  10.851  0.00  0.00     0.149 HD
HETATM   12  H   UNK N   1      33.459  14.258  10.943  0.00  0.00     0.149 HD
ENDBRANCH   9  10
ENDBRANCH   8   9
ENDBRANCH   7   8
ENDBRANCH   6   7
ENDBRANCH   5   6
BRANCH   5  13
HETATM   13  N   UNK N   1      37.913  12.941  11.906  0.00  0.00    -0.418 N 
HETATM   14  H   UNK N   1      38.536  13.681  12.230  0.00  0.00     0.150 HD
HETATM   15  H   UNK N   1      38.249  11.979  11.878  0.00  0.00     0.150 HD
ENDBRANCH   5  13
ENDBRANCH   2   5
BRANCH   1  16
HETATM   16  C   UNK N   1      34.788  11.696  14.562  0.00  0.00     0.084 C 
HETATM   17  C   UNK N   1      33.709  10.689  14.173  0.00  0.00     0.032 C 
BRANCH  16  18
HETATM   18  C   UNK N   1      35.652  11.067  15.655  0.00  0.00     0.063 C 
BRANCH  18  19
HETATM   19  C   UNK N   1      35.558  11.688  17.018  0.00  0.00    -0.056 A 
HETATM   20  C   UNK N   1      35.254  13.047  17.182  0.00  0.00     0.007 A 
HETATM   21  C   UNK N   1      35.101  13.585  18.464  0.00  0.00     0.001 A 
HETATM   22  C   UNK N   1      35.229  12.761  19.586  0.00  0.00     0.000 A 
HETATM   23  C   UNK N   1      35.520  11.404  19.427  0.00  0.00     0.001 A 
HETATM   24  C   UNK N   1      35.685  10.868  18.144  0.00  0.00     0.007 A 
ENDBRANCH  18  19
ENDBRANCH  16  18
ENDBRANCH   1  16
TORSDOF 10
ENDMDL
MODEL 3
REMARK VINA RESULT:      -5.5      4.635      9.005
REMARK  10 active torsions:
REMARK  status: ('A' for Active; 'I' for Inactive)
REMARK    1  A    between atoms: C_6  and  C_7 
REMARK    2  A    between atoms: C_7  and  C_8 
REMARK    3  A    between atoms: C_8  and  N_9 
REMARK       I    between atoms: N_9  and  C_10 
REMARK    4  A    between atoms: C_10  and  C_11 
REMARK    5  A    between atoms: C_11  and  C_12 
REMARK    6  A    between atoms: C_11  and  N_18 
REMARK    7  A    between atoms: C_12  and  C_13 
REMARK    8  A    between atoms: C_13  and  C_14 
REMARK    9  A    between atoms: C_14  and  C_15 
REMARK   10  A    between atoms: C_15  and  N_19 
ROOT
HETATM    1  N   UNK N   1      34.027  16.241   9.678  0.00  0.00    -0.355 N 
HETATM    2  C   UNK N   1      35.135  16.670  10.351  0.00  0.00     0.240 C 
HETATM    3  O   UNK N   1      35.582  17.789  10.168  0.00  0.00    -0.271 OA
HETATM    4  H   UNK N   1      33.734  15.315   9.839  0.00  0.00     0.162 HD
ENDROOT
BRANCH   2   5
HETATM    5  C   UNK N   1      35.859  15.737  11.285  0.00  0.00     0.167 C 
BRANCH   5   6
HETATM    6  C   UNK N   1      34.950  14.595  11.712  0.00  0.00     0.034 C 
BRANCH   6   7
HETATM    7  C   UNK N   1      35.748  13.506  12.407  0.00  0.00     0.004 C 
BRANCH   7   8
HETATM    8  C   UNK N   1      35.582  13.641  13.909  0.00  0.00     0.019 C 
BRANCH   8   9
HETATM    9  C   UNK N   1      36.777  13.033  14.613  0.00  0.00     0.111 C 
BRANCH   9  10
HETATM   10  N   UNK N   1      37.627  12.375  13.637  0.00  0.00    -0.430 N 
HETATM   11  H   UNK N   1      37.340  12.317  12.660  0.00  0.00     0.149 HD
HETATM   12  H   UNK N   1      38.516  11.970  13.930  0.00  0.00     0.149 HD
ENDBRANCH   9  10
ENDBRANCH   8   9
ENDBRANCH   7   8
ENDBRANCH   6   7
ENDBRANCH   5   6
BRANCH   5  13
HETATM   13  N   UNK N   1      37.064  15.195  10.675  0.00  0.00    -0.418 N 
HETATM   14  H   UNK N   1      37.865  14.923  11.245  0.00  0.00     0.150 HD
HETATM   15  H   UNK N   1      37.107  15.085   9.662  0.00  0.00     0.150 HD
ENDBRANCH   5  13
ENDBRANCH   2   5
BRANCH   1  16
HETATM   16  C   UNK N   1      33.242  17.032   8.746  0.00  0.00     0.084 C 
HETATM   17  C   UNK N   1      33.932  17.142   7.389  0.00  0.00     0.032 C 
BRANCH  16  18
HETATM   18  C   UNK N   1      31.918  16.295   8.546  0.00  0.00     0.063 C 
BRANCH  18  19
HETATM   19  C   UNK N   1      30.718  17.148   8.255  0.00  0.00    -0.056 A 
HETATM   20  C   UNK N   1      30.129  17.171   6.983  0.00  0.00     0.007 A 
HETATM   21  C   UNK N   1      28.969  17.918   6.758  0.00  0.00     0.001 A 
HETATM   22  C   UNK N   1      28.379  18.627   7.809  0.00  0.00     0.000 A 
HETATM   23  C   UNK N   1      28.955  18.596   9.081  0.00  0.00     0.001 A 
HETATM   24  C   UNK N   1      30.123  17.858   9.304  0.00  0.00     0.007 A 
ENDBRANCH  18  19
ENDBRANCH  16  18
ENDBRANCH   1  16
TORSDOF 10
ENDMDL
MODEL 4
REMARK VINA RESULT:      -5.4      1.545      2.195
REMARK  10 active torsions:
REMARK  status: ('A' for Active; 'I' for Inactive)
REMARK    1  A    between atoms: C_6  and  C_7 
REMARK    2  A    between atoms: C_7  and  C_8 
REMARK    3  A    between atoms: C_8  and  N_9 
REMARK       I    between atoms: N_9  and  C_10 
REMARK    4  A    between atoms: C_10  and  C_11 
REMARK    5  A    between atoms: C_11  and  C_12 
REMARK    6  A    between atoms: C_11  and  N_18 
REMARK    7  A    between atoms: C_12  and  C_13 
REMARK    8  A    between atoms: C_13  and  C_14 
REMARK    9  A    between atoms: C_14  and  C_15 
REMARK   10  A    between atoms: C_15  and  N_19 
ROOT
HETATM    1  N   UNK N   1      35.572  13.879  13.623  0.00  0.00    -0.355 N 
HETATM    2  C   UNK N   1      36.122  13.686  12.389  0.00  0.00     0.240 C 
HETATM    3  O   UNK N   1      37.198  13.126  12.266  0.00  0.00    -0.271 OA
HETATM    4  H   UNK N   1      34.719  14.370  13.663  0.00  0.00     0.162 HD
ENDROOT
BRANCH   2   5
HETATM    5  C   UNK N   1      35.431  14.221  11.162  0.00  0.00     0.167 C 
BRANCH   5   6
HETATM    6  C   UNK N   1      36.159  15.446  10.630  0.00  0.00     0.034 C 
BRANCH   6   7
HETATM    7  C   UNK N   1      35.182  16.577  10.364  0.00  0.00     0.004 C 
BRANCH   7   8
HETATM    8  C   UNK N   1      34.597  16.420   8.972  0.00  0.00     0.019 C 
BRANCH   8   9
HETATM    9  C   UNK N   1      33.931  17.713   8.548  0.00  0.00     0.111 C 
BRANCH   9  10
HETATM   10  N   UNK N   1      34.918  18.777   8.526  0.00  0.00    -0.430 N 
HETATM   11  H   UNK N   1      34.832  19.545   7.860  0.00  0.00     0.149 HD
HETATM   12  H   UNK N   1      35.700  18.759   9.181  0.00  0.00     0.149 HD
ENDBRANCH   9  10
ENDBRANCH   8   9
ENDBRANCH   7   8
ENDBRANCH   6   7
ENDBRANCH   5   6
BRANCH   5  13
HETATM   13  N   UNK N   1      35.345  13.216  10.114  0.00  0.00    -0.418 N 
HETATM   14  H   UNK N   1      36.092  13.105   9.429  0.00  0.00     0.150 HD
HETATM   15  H   UNK N   1      34.524  12.612  10.064  0.00  0.00     0.150 HD
ENDBRANCH   5  13
ENDBRANCH   2   5
BRANCH   1  16
HETATM   16  C   UNK N   1      36.134  13.424  14.883  0.00  0.00     0.084 C 
HETATM   17  C   UNK N   1      37.024  14.491  15.515  0.00  0.00     0.032 C 
BRANCH  16  18
HETATM   18  C   UNK N   1      34.958  13.168  15.826  0.00  0.00     0.063 C 
BRANCH  18  19
HETATM   19  C   UNK N   1      35.286  12.517  17.137  0.00  0.00    -0.056 A 
HETATM   20  C   UNK N   1      35.083  13.181  18.355  0.00  0.00     0.007 A 
HETATM   21  C   UNK N   1      35.328  12.526  19.565  0.00  0.00     0.001 A 
HETATM   22  C   UNK N   1      35.753  11.194  19.564  0.00  0.00     0.000 A 
HETATM   23  C   UNK N   1      35.944  10.523  18.353  0.00  0.00     0.001 A 
HETATM   24  C   UNK N   1      35.711  11.183  17.142  0.00  0.00     0.007 A 
ENDBRANCH  18  19
ENDBRANCH  16  18
ENDBRANCH   1  16
TORSDOF 10
ENDMDL
MODEL 5
REMARK VINA RESULT:      -5.4     20.450     23.398
REMARK  10 active torsions:
REMARK  status: ('A' for Active; 'I' for Inactive)
REMARK    1  A    between atoms: C_6  and  C_7 
REMARK    2  A    between atoms: C_7  and  C_8 
REMARK    3  A    between atoms: C_8  and  N_9 
REMARK       I    between atoms: N_9  and  C_10 
REMARK    4  A    between atoms: C_10  and  C_11 
REMARK    5  A    between atoms: C_11  and  C_12 
REMARK    6  A    between atoms: C_11  and  N_18 
REMARK    7  A    between atoms: C_12  and  C_13 
REMARK    8  A    between atoms: C_13  and  C_14 
REMARK    9  A    between atoms: C_14  and  C_15 
REMARK   10  A    between atoms: C_15  and  N_19 
ROOT
HETATM    1  N   UNK N   1      29.340  23.234  -3.629  0.00  0.00    -0.355 N 
HETATM    2  C   UNK N   1      30.199  22.533  -2.833  0.00  0.00     0.240 C 
HETATM    3  O   UNK N   1      30.595  23.001  -1.779  0.00  0.00    -0.271 OA
HETATM    4  H   UNK N   1      29.084  22.821  -4.486  0.00  0.00     0.162 HD
ENDROOT
BRANCH   2   5
HETATM    5  C   UNK N   1      30.720  21.192  -3.280  0.00  0.00     0.167 C 
BRANCH   5   6
HETATM    6  C   UNK N   1      30.462  20.986  -4.764  0.00  0.00     0.034 C 
BRANCH   6   7
HETATM    7  C   UNK N   1      31.647  20.304  -5.424  0.00  0.00     0.004 C 
BRANCH   7   8
HETATM    8  C   UNK N   1      31.270  19.894  -6.836  0.00  0.00     0.019 C 
BRANCH   8   9
HETATM    9  C   UNK N   1      29.784  20.098  -7.048  0.00  0.00     0.111 C 
BRANCH   9  10
HETATM   10  N   UNK N   1      29.214  18.903  -7.642  0.00  0.00    -0.430 N 
HETATM   11  H   UNK N   1      29.572  17.981  -7.390  0.00  0.00     0.149 HD
HETATM   12  H   UNK N   1      28.450  18.985  -8.314  0.00  0.00     0.149 HD
ENDBRANCH   9  10
ENDBRANCH   8   9
ENDBRANCH   7   8
ENDBRANCH   6   7
ENDBRANCH   5   6
BRANCH   5  13
HETATM   13  N   UNK N   1      32.143  21.053  -3.011  0.00  0.00    -0.418 N 
HETATM   14  H   UNK N   1      32.540  21.346  -2.119  0.00  0.00     0.150 HD
HETATM   15  H   UNK N   1      32.753  20.656  -3.726  0.00  0.00     0.150 HD
ENDBRANCH   5  13
ENDBRANCH   2   5
BRANCH   1  16
HETATM   16  C   UNK N   1      28.771  24.535  -3.324  0.00  0.00     0.084 C 
HETATM   17  C   UNK N   1      29.190  25.583  -4.351  0.00  0.00     0.032 C 
BRANCH  16  18
HETATM   18  C   UNK N   1      27.252  24.381  -3.397  0.00  0.00     0.063 C 
BRANCH  18  19
HETATM   19  C   UNK N   1      26.497  25.517  -4.024  0.00  0.00    -0.056 A 
HETATM   20  C   UNK N   1      25.842  25.368  -5.255  0.00  0.00     0.007 A 
HETATM   21  C   UNK N   1      25.085  26.419  -5.782  0.00  0.00     0.001 A 
HETATM   22  C   UNK N   1      24.961  27.615  -5.070  0.00  0.00     0.000 A 
HETATM   23  C   UNK N   1      25.601  27.764  -3.837  0.00  0.00     0.001 A 
HETATM   24  C   UNK N   1      26.368  26.716  -3.315  0.00  0.00     0.007 A 
ENDBRANCH  18  19
ENDBRANCH  16  18
ENDBRANCH   1  16
TORSDOF 10
ENDMDL
MODEL 6
REMARK VINA RESULT:      -5.2     21.458     24.655
REMARK  10 active torsions:
REMARK  status: ('A' for Active; 'I' for Inactive)
REMARK    1  A    between atoms: C_6  and  C_7 
REMARK    2  A    between atoms: C_7  and  C_8 
REMARK    3  A    between atoms: C_8  and  N_9 
REMARK       I    between atoms: N_9  and  C_10 
REMARK    4  A    between atoms: C_10  and  C_11 
REMARK    5  A    between atoms: C_11  and  C_12 
REMARK    6  A    between atoms: C_11  and  N_18 
REMARK    7  A    between atoms: C_12  and  C_13 
REMARK    8  A    between atoms: C_13  and  C_14 
REMARK    9  A    between atoms: C_14  and  C_15 
REMARK   10  A    between atoms: C_15  and  N_19 
ROOT
HETATM    1  N   UNK N   1      27.034  24.171  -7.003  0.00  0.00    -0.355 N 
HETATM    2  C   UNK N   1      25.968  24.858  -6.497  0.00  0.00     0.240 C 
HETATM    3  O   UNK N   1      25.188  24.321  -5.729  0.00  0.00    -0.271 OA
HETATM    4  H   UNK N   1      27.609  24.645  -7.647  0.00  0.00     0.162 HD
ENDROOT
BRANCH   2   5
HETATM    5  C   UNK N   1      25.708  26.276  -6.932  0.00  0.00     0.167 C 
BRANCH   5   6
HETATM    6  C   UNK N   1      24.915  27.024  -5.872  0.00  0.00     0.034 C 
BRANCH   6   7
HETATM    7  C   UNK N   1      25.800  28.020  -5.143  0.00  0.00     0.004 C 
BRANCH   7   8
HETATM    8  C   UNK N   1      25.668  27.809  -3.646  0.00  0.00     0.019 C 
BRANCH   8   9
HETATM    9  C   UNK N   1      26.452  26.581  -3.232  0.00  0.00     0.111 C 
BRANCH   9  10
HETATM   10  N   UNK N   1      27.793  26.658  -3.782  0.00  0.00    -0.430 N 
HETATM   11  H   UNK N   1      28.584  26.889  -3.182  0.00  0.00     0.149 HD
HETATM   12  H   UNK N   1      27.945  26.479  -4.776  0.00  0.00     0.149 HD
ENDBRANCH   9  10
ENDBRANCH   8   9
ENDBRANCH   7   8
ENDBRANCH   6   7
ENDBRANCH   5   6
BRANCH   5  13
HETATM   13  N   UNK N   1      26.947  26.989  -7.203  0.00  0.00    -0.418 N 
HETATM   14  H   UNK N   1      27.847  26.609  -6.911  0.00  0.00     0.150 HD
HETATM   15  H   UNK N   1      26.914  27.883  -7.694  0.00  0.00     0.150 HD
ENDBRANCH   5  13
ENDBRANCH   2   5
BRANCH   1  16
HETATM   16  C   UNK N   1      27.393  22.802  -6.675  0.00  0.00     0.084 C 
HETATM   17  C   UNK N   1      26.918  21.828  -7.750  0.00  0.00     0.032 C 
BRANCH  16  18
HETATM   18  C   UNK N   1      28.920  22.746  -6.627  0.00  0.00     0.063 C 
BRANCH  18  19
HETATM   19  C   UNK N   1      29.535  22.500  -5.279  0.00  0.00    -0.056 A 
HETATM   20  C   UNK N   1      30.165  21.286  -4.974  0.00  0.00     0.007 A 
HETATM   21  C   UNK N   1      30.793  21.110  -3.737  0.00  0.00     0.001 A 
HETATM   22  C   UNK N   1      30.813  22.155  -2.809  0.00  0.00     0.000 A 
HETATM   23  C   UNK N   1      30.197  23.372  -3.114  0.00  0.00     0.001 A 
HETATM   24  C   UNK N   1      29.559  23.544  -4.347  0.00  0.00     0.007 A 
ENDBRANCH  18  19
ENDBRANCH  16  18
ENDBRANCH   1  16
TORSDOF 10
ENDMDL
MODEL 7
REMARK VINA RESULT:      -5.1      2.392      4.152
REMARK  10 active torsions:
REMARK  status: ('A' for Active; 'I' for Inactive)
REMARK    1  A    between atoms: C_6  and  C_7 
REMARK    2  A    between atoms: C_7  and  C_8 
REMARK    3  A    between atoms: C_8  and  N_9 
REMARK       I    between atoms: N_9  and  C_10 
REMARK    4  A    between atoms: C_10  and  C_11 
REMARK    5  A    between atoms: C_11  and  C_12 
REMARK    6  A    between atoms: C_11  and  N_18 
REMARK    7  A    between atoms: C_12  and  C_13 
REMARK    8  A    between atoms: C_13  and  C_14 
REMARK    9  A    between atoms: C_14  and  C_15 
REMARK   10  A    between atoms: C_15  and  N_19 
ROOT
HETATM    1  N   UNK N   1      36.133  13.569  10.786  0.00  0.00    -0.355 N 
HETATM    2  C   UNK N   1      35.293  14.644  10.854  0.00  0.00     0.240 C 
HETATM    3  O   UNK N   1      34.333  14.639  11.606  0.00  0.00    -0.271 OA
HETATM    4  H   UNK N   1      36.869  13.615  10.134  0.00  0.00     0.162 HD
ENDROOT
BRANCH   2   5
HETATM    5  C   UNK N   1      35.508  15.828   9.949  0.00  0.00     0.167 C 
BRANCH   5   6
HETATM    6  C   UNK N   1      35.037  15.515   8.538  0.00  0.00     0.034 C 
BRANCH   6   7
HETATM    7  C   UNK N   1      33.865  16.403   8.155  0.00  0.00     0.004 C 
BRANCH   7   8
HETATM    8  C   UNK N   1      32.623  15.549   7.981  0.00  0.00     0.019 C 
BRANCH   8   9
HETATM    9  C   UNK N   1      31.559  15.987   8.965  0.00  0.00     0.111 C 
BRANCH   9  10
HETATM   10  N   UNK N   1      31.728  15.263  10.211  0.00  0.00    -0.430 N 
HETATM   11  H   UNK N   1      32.236  14.379  10.228  0.00  0.00     0.149 HD
HETATM   12  H   UNK N   1      31.336  15.640  11.075  0.00  0.00     0.149 HD
ENDBRANCH   9  10
ENDBRANCH   8   9
ENDBRANCH   7   8
ENDBRANCH   6   7
ENDBRANCH   5   6
BRANCH   5  13
HETATM   13  N   UNK N   1      34.816  17.010  10.440  0.00  0.00    -0.418 N 
HETATM   14  H   UNK N   1      33.881  16.943  10.843  0.00  0.00     0.150 HD
HETATM   15  H   UNK N   1      35.273  17.920  10.381  0.00  0.00     0.150 HD
ENDBRANCH   5  13
ENDBRANCH   2   5
BRANCH   1  16
HETATM   16  C   UNK N   1      36.034  12.364  11.593  0.00  0.00     0.084 C 
HETATM   17  C   UNK N   1      36.555  11.144  10.839  0.00  0.00     0.032 C 
BRANCH  16  18
HETATM   18  C   UNK N   1      36.923  12.579  12.818  0.00  0.00     0.063 C 
BRANCH  18  19
HETATM   19  C   UNK N   1      36.220  12.705  14.137  0.00  0.00    -0.056 A 
HETATM   20  C   UNK N   1      36.772  13.442  15.194  0.00  0.00     0.007 A 
HETATM   21  C   UNK N   1      36.063  13.604  16.388  0.00  0.00     0.001 A 
HETATM   22  C   UNK N   1      34.787  13.049  16.522  0.00  0.00     0.000 A 
HETATM   23  C   UNK N   1      34.226  12.324  15.467  0.00  0.00     0.001 A 
HETATM   24  C   UNK N   1      34.942  12.152  14.277  0.00  0.00     0.007 A 
ENDBRANCH  18  19
ENDBRANCH  16  18
ENDBRANCH   1  16
TORSDOF 10
ENDMDL
MODEL 8
REMARK VINA RESULT:      -5.1     21.063     23.513
REMARK  10 active torsions:
REMARK  status: ('A' for Active; 'I' for Inactive)
REMARK    1  A    between atoms: C_6  and  C_7 
REMARK    2  A    between atoms: C_7  and  C_8 
REMARK    3  A    between atoms: C_8  and  N_9 
REMARK       I    between atoms: N_9  and  C_10 
REMARK    4  A    between atoms: C_10  and  C_11 
REMARK    5  A    between atoms: C_11  and  C_12 
REMARK    6  A    between atoms: C_11  and  N_18 
REMARK    7  A    between atoms: C_12  and  C_13 
REMARK    8  A    between atoms: C_13  and  C_14 
REMARK    9  A    between atoms: C_14  and  C_15 
REMARK   10  A    between atoms: C_15  and  N_19 
ROOT
HETATM    1  N   UNK N   1      28.100  24.088  -4.156  0.00  0.00    -0.355 N 
HETATM    2  C   UNK N   1      26.848  24.619  -4.039  0.00  0.00     0.240 C 
HETATM    3  O   UNK N   1      26.489  25.145  -2.999  0.00  0.00    -0.271 OA
HETATM    4  H   UNK N   1      28.321  23.643  -5.006  0.00  0.00     0.162 HD
ENDROOT
BRANCH   2   5
HETATM    5  C   UNK N   1      25.869  24.505  -5.178  0.00  0.00     0.167 C 
BRANCH   5   6
HETATM    6  C   UNK N   1      25.204  25.845  -5.447  0.00  0.00     0.034 C 
BRANCH   6   7
HETATM    7  C   UNK N   1      26.125  26.750  -6.247  0.00  0.00     0.004 C 
BRANCH   7   8
HETATM    8  C   UNK N   1      26.471  27.974  -5.419  0.00  0.00     0.019 C 
BRANCH   8   9
HETATM    9  C   UNK N   1      25.454  28.145  -4.309  0.00  0.00     0.111 C 
BRANCH   9  10
HETATM   10  N   UNK N   1      26.143  28.239  -3.035  0.00  0.00    -0.430 N 
HETATM   11  H   UNK N   1      26.572  27.412  -2.619  0.00  0.00     0.149 HD
HETATM   12  H   UNK N   1      26.200  29.137  -2.554  0.00  0.00     0.149 HD
ENDBRANCH   9  10
ENDBRANCH   8   9
ENDBRANCH   7   8
ENDBRANCH   6   7
ENDBRANCH   5   6
BRANCH   5  13
HETATM   13  N   UNK N   1      26.514  24.031  -6.393  0.00  0.00    -0.418 N 
HETATM   14  H   UNK N   1      27.522  24.118  -6.521  0.00  0.00     0.150 HD
HETATM   15  H   UNK N   1      25.948  23.605  -7.127  0.00  0.00     0.150 HD
ENDBRANCH   5  13
ENDBRANCH   2   5
BRANCH   1  16
HETATM   16  C   UNK N   1      29.134  24.121  -3.136  0.00  0.00     0.084 C 
HETATM   17  C   UNK N   1      29.010  22.941  -2.177  0.00  0.00     0.032 C 
BRANCH  16  18
HETATM   18  C   UNK N   1      30.475  24.002  -3.862  0.00  0.00     0.063 C 
BRANCH  18  19
HETATM   19  C   UNK N   1      30.976  22.609  -4.111  0.00  0.00    -0.056 A 
HETATM   20  C   UNK N   1      30.405  21.792  -5.097  0.00  0.00     0.007 A 
HETATM   21  C   UNK N   1      30.937  20.526  -5.357  0.00  0.00     0.001 A 
HETATM   22  C   UNK N   1      32.058  20.080  -4.650  0.00  0.00     0.000 A 
HETATM   23  C   UNK N   1      32.638  20.897  -3.676  0.00  0.00     0.001 A 
HETATM   24  C   UNK N   1      32.098  22.159  -3.406  0.00  0.00     0.007 A 
ENDBRANCH  18  19
ENDBRANCH  16  18
ENDBRANCH   1  16
TORSDOF 10
ENDMDL
MODEL 9
REMARK VINA RESULT:      -5.0      5.910      8.912
REMARK  10 active torsions:
REMARK  status: ('A' for Active; 'I' for Inactive)
REMARK    1  A    between atoms: C_6  and  C_7 
REMARK    2  A    between atoms: C_7  and  C_8 
REMARK    3  A    between atoms: C_8  and  N_9 
REMARK       I    between atoms: N_9  and  C_10 
REMARK    4  A    between atoms: C_10  and  C_11 
REMARK    5  A    between atoms: C_11  and  C_12 
REMARK    6  A    between atoms: C_11  and  N_18 
REMARK    7  A    between atoms: C_12  and  C_13 
REMARK    8  A    between atoms: C_13  and  C_14 
REMARK    9  A    between atoms: C_14  and  C_15 
REMARK   10  A    between atoms: C_15  and  N_19 
ROOT
HETATM    1  N   UNK N   1      34.437  16.284   8.922  0.00  0.00    -0.355 N 
HETATM    2  C   UNK N   1      35.162  16.083  10.062  0.00  0.00     0.240 C 
HETATM    3  O   UNK N   1      35.213  16.940  10.928  0.00  0.00    -0.271 OA
HETATM    4  H   UNK N   1      34.463  15.572   8.242  0.00  0.00     0.162 HD
ENDROOT
BRANCH   2   5
HETATM    5  C   UNK N   1      35.961  14.819  10.236  0.00  0.00     0.167 C 
BRANCH   5   6
HETATM    6  C   UNK N   1      36.006  14.032   8.936  0.00  0.00     0.034 C 
BRANCH   6   7
HETATM    7  C   UNK N   1      35.076  12.834   9.001  0.00  0.00     0.004 C 
BRANCH   7   8
HETATM    8  C   UNK N   1      34.392  12.653   7.658  0.00  0.00     0.019 C 
BRANCH   8   9
HETATM    9  C   UNK N   1      33.017  13.286   7.695  0.00  0.00     0.111 C 
BRANCH   9  10
HETATM   10  N   UNK N   1      32.504  13.244   9.052  0.00  0.00    -0.430 N 
HETATM   11  H   UNK N   1      31.674  12.693   9.272  0.00  0.00     0.149 HD
HETATM   12  H   UNK N   1      32.977  13.766   9.790  0.00  0.00     0.149 HD
ENDBRANCH   9  10
ENDBRANCH   8   9
ENDBRANCH   7   8
ENDBRANCH   6   7
ENDBRANCH   5   6
BRANCH   5  13
HETATM   13  N   UNK N   1      37.318  15.099  10.680  0.00  0.00    -0.418 N 
HETATM   14  H   UNK N   1      37.687  16.050  10.672  0.00  0.00     0.150 HD
HETATM   15  H   UNK N   1      37.908  14.333  11.004  0.00  0.00     0.150 HD
ENDBRANCH   5  13
ENDBRANCH   2   5
BRANCH   1  16
HETATM   16  C   UNK N   1      33.632  17.456   8.625  0.00  0.00     0.084 C 
HETATM   17  C   UNK N   1      34.481  18.585   8.048  0.00  0.00     0.032 C 
BRANCH  16  18
HETATM   18  C   UNK N   1      32.616  17.037   7.562  0.00  0.00     0.063 C 
BRANCH  18  19
HETATM   19  C   UNK N   1      31.180  17.365   7.848  0.00  0.00    -0.056 A 
HETATM   20  C   UNK N   1      30.820  18.215   8.903  0.00  0.00     0.007 A 
HETATM   21  C   UNK N   1      29.480  18.562   9.103  0.00  0.00     0.001 A 
HETATM   22  C   UNK N   1      28.497  18.080   8.234  0.00  0.00     0.000 A 
HETATM   23  C   UNK N   1      28.853  17.244   7.172  0.00  0.00     0.001 A 
HETATM   24  C   UNK N   1      30.192  16.886   6.980  0.00  0.00     0.007 A 
ENDBRANCH  18  19
ENDBRANCH  16  18
ENDBRANCH   1  16
TORSDOF 10
ENDMDL
