MODEL 1
REMARK VINA RESULT:      -6.4      0.000      0.000
REMARK  21 active torsions:
REMARK  status: ('A' for Active; 'I' for Inactive)
REMARK    1  A    between atoms: C_13  and  O_1 
REMARK    2  A    between atoms: O_3  and  C_29 
REMARK    3  A    between atoms: O_3  and  C_35 
REMARK    4  A    between atoms: O_4  and  C_33 
REMARK    5  A    between atoms: O_6  and  C_38 
REMARK    6  A    between atoms: C_12  and  N_7 
REMARK       I    between atoms: N_8  and  C_21 
REMARK    7  A    between atoms: N_8  and  C_25 
REMARK       I    between atoms: N_9  and  C_34 
REMARK    8  A    between atoms: C_10  and  C_11 
REMARK    9  A    between atoms: C_10  and  C_14 
REMARK   10  A    between atoms: C_10  and  C_17 
REMARK   11  A    between atoms: C_11  and  C_12 
REMARK   12  A    between atoms: C_12  and  C_13 
REMARK   13  A    between atoms: C_13  and  C_15 
REMARK   14  A    between atoms: C_16  and  C_15 
REMARK   15  A    between atoms: C_16  and  C_18 
REMARK   16  A    between atoms: C_16  and  C_21 
REMARK   17  A    between atoms: C_17  and  C_22 
REMARK   18  A    between atoms: C_25  and  C_26 
REMARK   19  A    between atoms: C_26  and  C_34 
REMARK   20  A    between atoms: C_35  and  C_36 
REMARK   21  A    between atoms: C_36  and  C_38 
ROOT
HETATM    1  C   UNK N   1      29.027  17.309   4.466  0.00  0.00     0.103 C 
ENDROOT
BRANCH   1   2
HETATM    2  N   UNK N   1      29.435  16.950   3.113  0.00  0.00    -0.424 N 
HETATM    3  H   UNK N   1      30.343  16.531   2.908  0.00  0.00     0.150 HD
HETATM    4  H   UNK N   1      28.789  17.124   2.343  0.00  0.00     0.150 HD
ENDBRANCH   1   2
BRANCH   1   5
HETATM    5  C   UNK N   1      28.171  18.555   4.461  0.00  0.00     0.032 C 
BRANCH   5   6
HETATM    6  C   UNK N   1      26.966  18.378   5.366  0.00  0.00    -0.005 C 
BRANCH   6   7
HETATM    7  C   UNK N   1      26.314  19.753   5.588  0.00  0.00    -0.018 C 
HETATM    8  C   UNK N   1      27.273  20.725   6.241  0.00  0.00     0.010 C 
HETATM    9  C   UNK N   1      25.855  20.374   4.276  0.00  0.00     0.010 C 
ENDBRANCH   6   7
BRANCH   6  10
HETATM   10  C   UNK N   1      26.027  17.437   4.622  0.00  0.00     0.043 C 
BRANCH  10  11
HETATM   11  C   UNK N   1      25.440  16.308   5.406  0.00  0.00    -0.055 A 
HETATM   12  C   UNK N   1      24.053  16.245   5.574  0.00  0.00     0.046 A 
HETATM   13  C   UNK N   1      23.482  15.339   6.489  0.00  0.00     0.102 A 
HETATM   14  C   UNK N   1      24.318  14.510   7.249  0.00  0.00     0.101 A 
HETATM   15  C   UNK N   1      25.708  14.542   7.035  0.00  0.00     0.040 A 
HETATM   16  C   UNK N   1      26.262  15.441   6.124  0.00  0.00     0.010 A 
BRANCH  13  17
HETATM   17  O   UNK N   1      22.140  15.281   6.676  0.00  0.00    -0.348 OA
BRANCH  17  18
HETATM   18  C   UNK N   1      21.408  16.378   7.068  0.00  0.00     0.178 C 
BRANCH  18  19
HETATM   19  C   UNK N   1      20.566  16.085   8.289  0.00  0.00     0.053 C 
BRANCH  19  20
HETATM   20  C   UNK N   1      20.516  14.576   8.428  0.00  0.00     0.169 C 
BRANCH  20  21
HETATM   21  O   UNK N   1      19.688  14.208   9.484  0.00  0.00    -0.396 OA
HETATM   22  C   UNK N   1      20.463  13.328  10.240  0.00  0.00     0.201 C 
ENDBRANCH  20  21
ENDBRANCH  19  20
ENDBRANCH  18  19
ENDBRANCH  17  18
ENDBRANCH  13  17
BRANCH  14  23
HETATM   23  O   UNK N   1      23.774  13.708   8.195  0.00  0.00    -0.353 OA
HETATM   24  C   UNK N   1      24.376  12.547   8.624  0.00  0.00     0.210 C 
ENDBRANCH  14  23
ENDBRANCH  10  11
ENDBRANCH   6  10
ENDBRANCH   5   6
ENDBRANCH   1   5
BRANCH   1  25
HETATM   25  C   UNK N   1      30.235  17.559   5.336  0.00  0.00     0.141 C 
BRANCH  25  26
HETATM   26  O   UNK N   1      31.389  17.645   4.544  0.00  0.00    -0.394 OA
HETATM   27  H   UNK N   1      31.913  17.335   3.790  0.00  0.00     0.210 HD
ENDBRANCH  25  26
BRANCH  25  28
HETATM   28  C   UNK N   1      30.320  16.484   6.422  0.00  0.00     0.048 C 
BRANCH  28  29
HETATM   29  C   UNK N   1      30.597  16.991   7.842  0.00  0.00     0.083 C 
BRANCH  29  30
HETATM   30  C   UNK N   1      29.572  18.040   8.371  0.00  0.00    -0.010 C 
HETATM   31  C   UNK N   1      30.001  18.889   9.554  0.00  0.00     0.010 C 
HETATM   32  C   UNK N   1      28.202  17.460   8.654  0.00  0.00     0.010 C 
ENDBRANCH  29  30
BRANCH  29  33
HETATM   33  C   UNK N   1      32.074  17.227   8.079  0.00  0.00     0.222 C 
HETATM   34  O   UNK N   1      32.718  17.938   7.315  0.00  0.00    -0.273 OA
HETATM   35  N   UNK N   1      32.706  16.581   9.084  0.00  0.00    -0.360 N 
HETATM   36  H   UNK N   1      32.186  15.999   9.684  0.00  0.00     0.162 HD
BRANCH  35  37
HETATM   37  C   UNK N   1      34.127  16.727   9.295  0.00  0.00     0.141 C 
BRANCH  37  38
HETATM   38  C   UNK N   1      34.829  15.371   9.334  0.00  0.00     0.049 C 
HETATM   39  C   UNK N   1      35.340  15.011   7.945  0.00  0.00     0.027 C 
HETATM   40  C   UNK N   1      33.784  14.335   9.717  0.00  0.00     0.027 C 
BRANCH  38  41
HETATM   41  C   UNK N   1      35.984  15.388  10.317  0.00  0.00     0.225 C 
HETATM   42  O   UNK N   1      36.441  16.451  10.704  0.00  0.00    -0.273 OA
HETATM   43  N   UNK N   1      36.523  14.237  10.771  0.00  0.00    -0.369 N 
HETATM   44  H   UNK N   1      37.482  14.175  10.987  0.00  0.00     0.159 HD
HETATM   45  H   UNK N   1      35.949  13.446  10.888  0.00  0.00     0.159 HD
ENDBRANCH  38  41
ENDBRANCH  37  38
ENDBRANCH  35  37
ENDBRANCH  29  33
ENDBRANCH  28  29
ENDBRANCH  25  28
ENDBRANCH   1  25
TORSDOF 21
ENDMDL
MODEL 2
REMARK VINA RESULT:      -6.3      2.331      3.661
REMARK  21 active torsions:
REMARK  status: ('A' for Active; 'I' for Inactive)
REMARK    1  A    between atoms: C_13  and  O_1 
REMARK    2  A    between atoms: O_3  and  C_29 
REMARK    3  A    between atoms: O_3  and  C_35 
REMARK    4  A    between atoms: O_4  and  C_33 
REMARK    5  A    between atoms: O_6  and  C_38 
REMARK    6  A    between atoms: C_12  and  N_7 
REMARK       I    between atoms: N_8  and  C_21 
REMARK    7  A    between atoms: N_8  and  C_25 
REMARK       I    between atoms: N_9  and  C_34 
REMARK    8  A    between atoms: C_10  and  C_11 
REMARK    9  A    between atoms: C_10  and  C_14 
REMARK   10  A    between atoms: C_10  and  C_17 
REMARK   11  A    between atoms: C_11  and  C_12 
REMARK   12  A    between atoms: C_12  and  C_13 
REMARK   13  A    between atoms: C_13  and  C_15 
REMARK   14  A    between atoms: C_16  and  C_15 
REMARK   15  A    between atoms: C_16  and  C_18 
REMARK   16  A    between atoms: C_16  and  C_21 
REMARK   17  A    between atoms: C_17  and  C_22 
REMARK   18  A    between atoms: C_25  and  C_26 
REMARK   19  A    between atoms: C_26  and  C_34 
REMARK   20  A    between atoms: C_35  and  C_36 
REMARK   21  A    between atoms: C_36  and  C_38 
ROOT
HETATM    1  C   UNK N   1      28.930  18.511   8.376  0.00  0.00     0.103 C 
ENDROOT
BRANCH   1   2
HETATM    2  N   UNK N   1      27.594  18.512   8.962  0.00  0.00    -0.424 N 
HETATM    3  H   UNK N   1      27.061  19.370   9.109  0.00  0.00     0.150 HD
HETATM    4  H   UNK N   1      27.177  17.622   9.234  0.00  0.00     0.150 HD
ENDBRANCH   1   2
BRANCH   1   5
HETATM    5  C   UNK N   1      28.859  18.577   6.867  0.00  0.00     0.032 C 
BRANCH   5   6
HETATM    6  C   UNK N   1      27.418  18.506   6.397  0.00  0.00    -0.005 C 
BRANCH   6   7
HETATM    7  C   UNK N   1      27.102  19.777   5.592  0.00  0.00    -0.018 C 
HETATM    8  C   UNK N   1      27.478  21.028   6.357  0.00  0.00     0.010 C 
HETATM    9  C   UNK N   1      27.854  19.806   4.270  0.00  0.00     0.010 C 
ENDBRANCH   6   7
BRANCH   6  10
HETATM   10  C   UNK N   1      27.332  17.263   5.519  0.00  0.00     0.043 C 
BRANCH  10  11
HETATM   11  C   UNK N   1      26.184  16.338   5.767  0.00  0.00    -0.055 A 
HETATM   12  C   UNK N   1      25.011  16.495   5.021  0.00  0.00     0.046 A 
HETATM   13  C   UNK N   1      23.837  15.803   5.378  0.00  0.00     0.102 A 
HETATM   14  C   UNK N   1      23.846  14.967   6.503  0.00  0.00     0.101 A 
HETATM   15  C   UNK N   1      25.044  14.775   7.215  0.00  0.00     0.040 A 
HETATM   16  C   UNK N   1      26.201  15.461   6.851  0.00  0.00     0.010 A 
BRANCH  13  17
HETATM   17  O   UNK N   1      22.688  15.960   4.676  0.00  0.00    -0.348 OA
BRANCH  17  18
HETATM   18  C   UNK N   1      22.540  16.945   3.726  0.00  0.00     0.178 C 
BRANCH  18  19
HETATM   19  C   UNK N   1      21.173  17.587   3.790  0.00  0.00     0.053 C 
BRANCH  19  20
HETATM   20  C   UNK N   1      21.325  18.849   4.617  0.00  0.00     0.169 C 
BRANCH  20  21
HETATM   21  O   UNK N   1      21.228  19.979   3.810  0.00  0.00    -0.396 OA
HETATM   22  C   UNK N   1      20.096  19.747   3.028  0.00  0.00     0.201 C 
ENDBRANCH  20  21
ENDBRANCH  19  20
ENDBRANCH  18  19
ENDBRANCH  17  18
ENDBRANCH  13  17
BRANCH  14  23
HETATM   23  O   UNK N   1      22.693  14.379   6.900  0.00  0.00    -0.353 OA
HETATM   24  C   UNK N   1      22.544  13.013   6.983  0.00  0.00     0.210 C 
ENDBRANCH  14  23
ENDBRANCH  10  11
ENDBRANCH   6  10
ENDBRANCH   5   6
ENDBRANCH   1   5
BRANCH   1  25
HETATM   25  C   UNK N   1      29.678  17.260   8.768  0.00  0.00     0.141 C 
BRANCH  25  26
HETATM   26  O   UNK N   1      30.129  17.363  10.091  0.00  0.00    -0.394 OA
HETATM   27  H   UNK N   1      30.151  17.840  10.935  0.00  0.00     0.210 HD
ENDBRANCH  25  26
BRANCH  25  28
HETATM   28  C   UNK N   1      30.801  16.995   7.761  0.00  0.00     0.048 C 
BRANCH  28  29
HETATM   29  C   UNK N   1      32.229  17.146   8.298  0.00  0.00     0.083 C 
BRANCH  29  30
HETATM   30  C   UNK N   1      33.172  18.010   7.407  0.00  0.00    -0.010 C 
HETATM   31  C   UNK N   1      33.538  17.450   6.044  0.00  0.00     0.010 C 
HETATM   32  C   UNK N   1      34.438  18.450   8.112  0.00  0.00     0.010 C 
ENDBRANCH  29  30
BRANCH  29  33
HETATM   33  C   UNK N   1      32.754  15.849   8.877  0.00  0.00     0.222 C 
HETATM   34  O   UNK N   1      32.450  14.775   8.367  0.00  0.00    -0.273 OA
HETATM   35  N   UNK N   1      33.488  15.866  10.011  0.00  0.00    -0.360 N 
HETATM   36  H   UNK N   1      33.715  16.730  10.424  0.00  0.00     0.162 HD
BRANCH  35  37
HETATM   37  C   UNK N   1      33.945  14.644  10.630  0.00  0.00     0.141 C 
BRANCH  37  38
HETATM   38  C   UNK N   1      35.369  14.786  11.164  0.00  0.00     0.049 C 
HETATM   39  C   UNK N   1      35.512  14.017  12.470  0.00  0.00     0.027 C 
HETATM   40  C   UNK N   1      35.587  16.258  11.475  0.00  0.00     0.027 C 
BRANCH  38  41
HETATM   41  C   UNK N   1      36.378  14.274  10.154  0.00  0.00     0.225 C 
HETATM   42  O   UNK N   1      36.023  14.004   9.018  0.00  0.00    -0.273 OA
HETATM   43  N   UNK N   1      37.673  14.104  10.496  0.00  0.00    -0.369 N 
HETATM   44  H   UNK N   1      38.214  13.385  10.095  0.00  0.00     0.159 HD
HETATM   45  H   UNK N   1      38.083  14.708  11.156  0.00  0.00     0.159 HD
ENDBRANCH  38  41
ENDBRANCH  37  38
ENDBRANCH  35  37
ENDBRANCH  29  33
ENDBRANCH  28  29
ENDBRANCH  25  28
ENDBRANCH   1  25
TORSDOF 21
ENDMDL
MODEL 3
REMARK VINA RESULT:      -6.2      3.498      5.855
REMARK  21 active torsions:
REMARK  status: ('A' for Active; 'I' for Inactive)
REMARK    1  A    between atoms: C_13  and  O_1 
REMARK    2  A    between atoms: O_3  and  C_29 
REMARK    3  A    between atoms: O_3  and  C_35 
REMARK    4  A    between atoms: O_4  and  C_33 
REMARK    5  A    between atoms: O_6  and  C_38 
REMARK    6  A    between atoms: C_12  and  N_7 
REMARK       I    between atoms: N_8  and  C_21 
REMARK    7  A    between atoms: N_8  and  C_25 
REMARK       I    between atoms: N_9  and  C_34 
REMARK    8  A    between atoms: C_10  and  C_11 
REMARK    9  A    between atoms: C_10  and  C_14 
REMARK   10  A    between atoms: C_10  and  C_17 
REMARK   11  A    between atoms: C_11  and  C_12 
REMARK   12  A    between atoms: C_12  and  C_13 
REMARK   13  A    between atoms: C_13  and  C_15 
REMARK   14  A    between atoms: C_16  and  C_15 
REMARK   15  A    between atoms: C_16  and  C_18 
REMARK   16  A    between atoms: C_16  and  C_21 
REMARK   17  A    between atoms: C_17  and  C_22 
REMARK   18  A    between atoms: C_25  and  C_26 
REMARK   19  A    between atoms: C_26  and  C_34 
REMARK   20  A    between atoms: C_35  and  C_36 
REMARK   21  A    between atoms: C_36  and  C_38 
ROOT
HETATM    1  C   UNK N   1      33.015  16.567   8.849  0.00  0.00     0.103 C 
ENDROOT
BRANCH   1   2
HETATM    2  N   UNK N   1      34.022  17.086   9.767  0.00  0.00    -0.424 N 
HETATM    3  H   UNK N   1      33.915  17.978  10.250  0.00  0.00     0.150 HD
HETATM    4  H   UNK N   1      34.866  16.537   9.931  0.00  0.00     0.150 HD
ENDBRANCH   1   2
BRANCH   1   5
HETATM    5  C   UNK N   1      31.996  17.630   8.506  0.00  0.00     0.032 C 
BRANCH   5   6
HETATM    6  C   UNK N   1      30.662  16.997   8.154  0.00  0.00    -0.005 C 
BRANCH   6   7
HETATM    7  C   UNK N   1      29.543  17.801   8.835  0.00  0.00    -0.018 C 
HETATM    8  C   UNK N   1      28.841  16.987   9.901  0.00  0.00     0.010 C 
HETATM    9  C   UNK N   1      30.082  19.059   9.501  0.00  0.00     0.010 C 
ENDBRANCH   6   7
BRANCH   6  10
HETATM   10  C   UNK N   1      30.554  17.080   6.636  0.00  0.00     0.043 C 
BRANCH  10  11
HETATM   11  C   UNK N   1      29.178  17.050   6.054  0.00  0.00    -0.055 A 
HETATM   12  C   UNK N   1      28.635  18.229   5.533  0.00  0.00     0.046 A 
HETATM   13  C   UNK N   1      27.271  18.299   5.189  0.00  0.00     0.102 A 
HETATM   14  C   UNK N   1      26.451  17.180   5.392  0.00  0.00     0.101 A 
HETATM   15  C   UNK N   1      27.017  15.982   5.867  0.00  0.00     0.040 A 
HETATM   16  C   UNK N   1      28.370  15.923   6.200  0.00  0.00     0.010 A 
BRANCH  13  17
HETATM   17  O   UNK N   1      26.726  19.441   4.702  0.00  0.00    -0.348 OA
BRANCH  17  18
HETATM   18  C   UNK N   1      27.010  19.905   3.438  0.00  0.00     0.178 C 
BRANCH  18  19
HETATM   19  C   UNK N   1      25.949  20.857   2.937  0.00  0.00     0.053 C 
BRANCH  19  20
HETATM   20  C   UNK N   1      24.615  20.168   3.148  0.00  0.00     0.169 C 
BRANCH  20  21
HETATM   21  O   UNK N   1      23.571  21.087   3.081  0.00  0.00    -0.396 OA
HETATM   22  C   UNK N   1      22.458  20.321   2.736  0.00  0.00     0.201 C 
ENDBRANCH  20  21
ENDBRANCH  19  20
ENDBRANCH  18  19
ENDBRANCH  17  18
ENDBRANCH  13  17
BRANCH  14  23
HETATM   23  O   UNK N   1      25.123  17.278   5.151  0.00  0.00    -0.353 OA
HETATM   24  C   UNK N   1      24.499  16.604   4.126  0.00  0.00     0.210 C 
ENDBRANCH  14  23
ENDBRANCH  10  11
ENDBRANCH   6  10
ENDBRANCH   5   6
ENDBRANCH   1   5
BRANCH   1  25
HETATM   25  C   UNK N   1      32.294  15.392   9.465  0.00  0.00     0.141 C 
BRANCH  25  26
HETATM   26  O   UNK N   1      32.769  15.161  10.763  0.00  0.00    -0.394 OA
HETATM   27  H   UNK N   1      32.608  15.102  11.717  0.00  0.00     0.210 HD
ENDBRANCH  25  26
BRANCH  25  28
HETATM   28  C   UNK N   1      32.414  14.175   8.545  0.00  0.00     0.048 C 
BRANCH  28  29
HETATM   29  C   UNK N   1      33.794  13.948   7.915  0.00  0.00     0.083 C 
BRANCH  29  30
HETATM   30  C   UNK N   1      33.797  13.896   6.357  0.00  0.00    -0.010 C 
HETATM   31  C   UNK N   1      34.567  14.984   5.630  0.00  0.00     0.010 C 
HETATM   32  C   UNK N   1      32.413  13.786   5.750  0.00  0.00     0.010 C 
ENDBRANCH  29  30
BRANCH  29  33
HETATM   33  C   UNK N   1      34.604  12.926   8.683  0.00  0.00     0.222 C 
HETATM   34  O   UNK N   1      34.913  11.860   8.160  0.00  0.00    -0.273 OA
HETATM   35  N   UNK N   1      34.914  13.149   9.979  0.00  0.00    -0.360 N 
HETATM   36  H   UNK N   1      34.649  14.000  10.398  0.00  0.00     0.162 HD
BRANCH  35  37
HETATM   37  C   UNK N   1      35.624  12.166  10.763  0.00  0.00     0.141 C 
BRANCH  37  38
HETATM   38  C   UNK N   1      36.673  12.818  11.661  0.00  0.00     0.049 C 
HETATM   39  C   UNK N   1      37.562  13.740  10.837  0.00  0.00     0.027 C 
HETATM   40  C   UNK N   1      37.553  11.704  12.205  0.00  0.00     0.027 C 
BRANCH  38  41
HETATM   41  C   UNK N   1      36.015  13.605  12.779  0.00  0.00     0.225 C 
HETATM   42  O   UNK N   1      34.854  13.965  12.670  0.00  0.00    -0.273 OA
HETATM   43  N   UNK N   1      36.700  13.921  13.898  0.00  0.00    -0.369 N 
HETATM   44  H   UNK N   1      36.522  14.760  14.383  0.00  0.00     0.159 HD
HETATM   45  H   UNK N   1      37.388  13.304  14.235  0.00  0.00     0.159 HD
ENDBRANCH  38  41
ENDBRANCH  37  38
ENDBRANCH  35  37
ENDBRANCH  29  33
ENDBRANCH  28  29
ENDBRANCH  25  28
ENDBRANCH   1  25
TORSDOF 21
ENDMDL
MODEL 4
REMARK VINA RESULT:      -6.2      2.760      5.003
REMARK  21 active torsions:
REMARK  status: ('A' for Active; 'I' for Inactive)
REMARK    1  A    between atoms: C_13  and  O_1 
REMARK    2  A    between atoms: O_3  and  C_29 
REMARK    3  A    between atoms: O_3  and  C_35 
REMARK    4  A    between atoms: O_4  and  C_33 
REMARK    5  A    between atoms: O_6  and  C_38 
REMARK    6  A    between atoms: C_12  and  N_7 
REMARK       I    between atoms: N_8  and  C_21 
REMARK    7  A    between atoms: N_8  and  C_25 
REMARK       I    between atoms: N_9  and  C_34 
REMARK    8  A    between atoms: C_10  and  C_11 
REMARK    9  A    between atoms: C_10  and  C_14 
REMARK   10  A    between atoms: C_10  and  C_17 
REMARK   11  A    between atoms: C_11  and  C_12 
REMARK   12  A    between atoms: C_12  and  C_13 
REMARK   13  A    between atoms: C_13  and  C_15 
REMARK   14  A    between atoms: C_16  and  C_15 
REMARK   15  A    between atoms: C_16  and  C_18 
REMARK   16  A    between atoms: C_16  and  C_21 
REMARK   17  A    between atoms: C_17  and  C_22 
REMARK   18  A    between atoms: C_25  and  C_26 
REMARK   19  A    between atoms: C_26  and  C_34 
REMARK   20  A    between atoms: C_35  and  C_36 
REMARK   21  A    between atoms: C_36  and  C_38 
ROOT
HETATM    1  C   UNK N   1      28.412  18.183   8.548  0.00  0.00     0.103 C 
ENDROOT
BRANCH   1   2
HETATM    2  N   UNK N   1      27.451  17.122   8.830  0.00  0.00    -0.424 N 
HETATM    3  H   UNK N   1      26.543  17.069   8.369  0.00  0.00     0.150 HD
HETATM    4  H   UNK N   1      27.697  16.406   9.513  0.00  0.00     0.150 HD
ENDBRANCH   1   2
BRANCH   1   5
HETATM    5  C   UNK N   1      28.703  18.270   7.067  0.00  0.00     0.032 C 
BRANCH   5   6
HETATM    6  C   UNK N   1      27.470  18.725   6.307  0.00  0.00    -0.005 C 
BRANCH   6   7
HETATM    7  C   UNK N   1      27.778  20.072   5.634  0.00  0.00    -0.018 C 
HETATM    8  C   UNK N   1      27.450  20.043   4.156  0.00  0.00     0.010 C 
HETATM    9  C   UNK N   1      26.980  21.207   6.258  0.00  0.00     0.010 C 
ENDBRANCH   6   7
BRANCH   6  10
HETATM   10  C   UNK N   1      27.203  17.640   5.271  0.00  0.00     0.043 C 
BRANCH  10  11
HETATM   11  C   UNK N   1      25.885  16.938   5.352  0.00  0.00    -0.055 A 
HETATM   12  C   UNK N   1      24.744  17.576   4.854  0.00  0.00     0.046 A 
HETATM   13  C   UNK N   1      23.461  17.057   5.116  0.00  0.00     0.102 A 
HETATM   14  C   UNK N   1      23.333  15.901   5.899  0.00  0.00     0.101 A 
HETATM   15  C   UNK N   1      24.488  15.237   6.350  0.00  0.00     0.040 A 
HETATM   16  C   UNK N   1      25.753  15.758   6.081  0.00  0.00     0.010 A 
BRANCH  13  17
HETATM   17  O   UNK N   1      22.345  17.675   4.656  0.00  0.00    -0.348 OA
BRANCH  17  18
HETATM   18  C   UNK N   1      22.397  18.879   3.992  0.00  0.00     0.178 C 
BRANCH  18  19
HETATM   19  C   UNK N   1      21.087  19.204   3.313  0.00  0.00     0.053 C 
BRANCH  19  20
HETATM   20  C   UNK N   1      20.617  17.926   2.644  0.00  0.00     0.169 C 
BRANCH  20  21
HETATM   21  O   UNK N   1      20.344  18.149   1.298  0.00  0.00    -0.396 OA
HETATM   22  C   UNK N   1      20.064  16.881   0.788  0.00  0.00     0.201 C 
ENDBRANCH  20  21
ENDBRANCH  19  20
ENDBRANCH  18  19
ENDBRANCH  17  18
ENDBRANCH  13  17
BRANCH  14  23
HETATM   23  O   UNK N   1      22.097  15.458   6.228  0.00  0.00    -0.353 OA
HETATM   24  C   UNK N   1      21.541  14.324   5.680  0.00  0.00     0.210 C 
ENDBRANCH  14  23
ENDBRANCH  10  11
ENDBRANCH   6  10
ENDBRANCH   5   6
ENDBRANCH   1   5
BRANCH   1  25
HETATM   25  C   UNK N   1      29.708  17.930   9.279  0.00  0.00     0.141 C 
BRANCH  25  26
HETATM   26  O   UNK N   1      29.773  18.721  10.434  0.00  0.00    -0.394 OA
HETATM   27  H   UNK N   1      29.795  19.597  10.851  0.00  0.00     0.210 HD
ENDBRANCH  25  26
BRANCH  25  28
HETATM   28  C   UNK N   1      30.887  18.145   8.326  0.00  0.00     0.048 C 
BRANCH  28  29
HETATM   29  C   UNK N   1      31.991  17.083   8.379  0.00  0.00     0.083 C 
BRANCH  29  30
HETATM   30  C   UNK N   1      33.442  17.651   8.363  0.00  0.00    -0.010 C 
HETATM   31  C   UNK N   1      34.134  17.743   7.014  0.00  0.00     0.010 C 
HETATM   32  C   UNK N   1      34.372  16.969   9.345  0.00  0.00     0.010 C 
ENDBRANCH  29  30
BRANCH  29  33
HETATM   33  C   UNK N   1      31.664  15.886   7.511  0.00  0.00     0.222 C 
HETATM   34  O   UNK N   1      31.990  14.757   7.865  0.00  0.00    -0.273 OA
HETATM   35  N   UNK N   1      31.091  16.068   6.302  0.00  0.00    -0.360 N 
HETATM   36  H   UNK N   1      30.846  16.978   6.017  0.00  0.00     0.162 HD
BRANCH  35  37
HETATM   37  C   UNK N   1      30.830  14.956   5.418  0.00  0.00     0.141 C 
BRANCH  37  38
HETATM   38  C   UNK N   1      31.467  15.170   4.046  0.00  0.00     0.049 C 
HETATM   39  C   UNK N   1      30.948  14.128   3.064  0.00  0.00     0.027 C 
HETATM   40  C   UNK N   1      32.961  14.942   4.204  0.00  0.00     0.027 C 
BRANCH  38  41
HETATM   41  C   UNK N   1      31.167  16.562   3.522  0.00  0.00     0.225 C 
HETATM   42  O   UNK N   1      31.929  17.484   3.765  0.00  0.00    -0.273 OA
HETATM   43  N   UNK N   1      30.060  16.801   2.788  0.00  0.00    -0.369 N 
HETATM   44  H   UNK N   1      29.594  17.667   2.838  0.00  0.00     0.159 HD
HETATM   45  H   UNK N   1      29.712  16.098   2.194  0.00  0.00     0.159 HD
ENDBRANCH  38  41
ENDBRANCH  37  38
ENDBRANCH  35  37
ENDBRANCH  29  33
ENDBRANCH  28  29
ENDBRANCH  25  28
ENDBRANCH   1  25
TORSDOF 21
ENDMDL
MODEL 5
REMARK VINA RESULT:      -6.2      3.736      5.352
REMARK  21 active torsions:
REMARK  status: ('A' for Active; 'I' for Inactive)
REMARK    1  A    between atoms: C_13  and  O_1 
REMARK    2  A    between atoms: O_3  and  C_29 
REMARK    3  A    between atoms: O_3  and  C_35 
REMARK    4  A    between atoms: O_4  and  C_33 
REMARK    5  A    between atoms: O_6  and  C_38 
REMARK    6  A    between atoms: C_12  and  N_7 
REMARK       I    between atoms: N_8  and  C_21 
REMARK    7  A    between atoms: N_8  and  C_25 
REMARK       I    between atoms: N_9  and  C_34 
REMARK    8  A    between atoms: C_10  and  C_11 
REMARK    9  A    between atoms: C_10  and  C_14 
REMARK   10  A    between atoms: C_10  and  C_17 
REMARK   11  A    between atoms: C_11  and  C_12 
REMARK   12  A    between atoms: C_12  and  C_13 
REMARK   13  A    between atoms: C_13  and  C_15 
REMARK   14  A    between atoms: C_16  and  C_15 
REMARK   15  A    between atoms: C_16  and  C_18 
REMARK   16  A    between atoms: C_16  and  C_21 
REMARK   17  A    between atoms: C_17  and  C_22 
REMARK   18  A    between atoms: C_25  and  C_26 
REMARK   19  A    between atoms: C_26  and  C_34 
REMARK   20  A    between atoms: C_35  and  C_36 
REMARK   21  A    between atoms: C_36  and  C_38 
ROOT
HETATM    1  C   UNK N   1      32.832  16.896   8.472  0.00  0.00     0.103 C 
ENDROOT
BRANCH   1   2
HETATM    2  N   UNK N   1      33.851  17.208   9.467  0.00  0.00    -0.424 N 
HETATM    3  H   UNK N   1      34.562  17.924   9.318  0.00  0.00     0.150 HD
HETATM    4  H   UNK N   1      33.853  16.691  10.347  0.00  0.00     0.150 HD
ENDBRANCH   1   2
BRANCH   1   5
HETATM    5  C   UNK N   1      31.725  17.926   8.490  0.00  0.00     0.032 C 
BRANCH   5   6
HETATM    6  C   UNK N   1      30.414  17.307   8.041  0.00  0.00    -0.005 C 
BRANCH   6   7
HETATM    7  C   UNK N   1      29.258  18.064   8.715  0.00  0.00    -0.018 C 
HETATM    8  C   UNK N   1      28.174  17.119   9.188  0.00  0.00     0.010 C 
HETATM    9  C   UNK N   1      29.735  18.854   9.925  0.00  0.00     0.010 C 
ENDBRANCH   6   7
BRANCH   6  10
HETATM   10  C   UNK N   1      30.375  17.479   6.527  0.00  0.00     0.043 C 
BRANCH  10  11
HETATM   11  C   UNK N   1      29.357  16.677   5.782  0.00  0.00    -0.055 A 
HETATM   12  C   UNK N   1      28.152  17.284   5.411  0.00  0.00     0.046 A 
HETATM   13  C   UNK N   1      27.083  16.511   4.917  0.00  0.00     0.102 A 
HETATM   14  C   UNK N   1      27.228  15.120   4.819  0.00  0.00     0.101 A 
HETATM   15  C   UNK N   1      28.460  14.525   5.144  0.00  0.00     0.040 A 
HETATM   16  C   UNK N   1      29.513  15.301   5.627  0.00  0.00     0.010 A 
BRANCH  13  17
HETATM   17  O   UNK N   1      25.903  17.083   4.572  0.00  0.00    -0.348 OA
BRANCH  17  18
HETATM   18  C   UNK N   1      25.785  17.914   3.482  0.00  0.00     0.178 C 
BRANCH  18  19
HETATM   19  C   UNK N   1      24.794  19.028   3.730  0.00  0.00     0.053 C 
BRANCH  19  20
HETATM   20  C   UNK N   1      25.606  20.267   4.054  0.00  0.00     0.169 C 
BRANCH  20  21
HETATM   21  O   UNK N   1      25.919  20.308   5.410  0.00  0.00    -0.396 OA
HETATM   22  C   UNK N   1      27.185  20.892   5.455  0.00  0.00     0.201 C 
ENDBRANCH  20  21
ENDBRANCH  19  20
ENDBRANCH  18  19
ENDBRANCH  17  18
ENDBRANCH  13  17
BRANCH  14  23
HETATM   23  O   UNK N   1      26.168  14.369   4.435  0.00  0.00    -0.353 OA
HETATM   24  C   UNK N   1      26.094  13.758   3.204  0.00  0.00     0.210 C 
ENDBRANCH  14  23
ENDBRANCH  10  11
ENDBRANCH   6  10
ENDBRANCH   5   6
ENDBRANCH   1   5
BRANCH   1  25
HETATM   25  C   UNK N   1      32.229  15.539   8.739  0.00  0.00     0.141 C 
BRANCH  25  26
HETATM   26  O   UNK N   1      32.601  15.087  10.013  0.00  0.00    -0.394 OA
HETATM   27  H   UNK N   1      33.133  14.500  10.572  0.00  0.00     0.210 HD
ENDBRANCH  25  26
BRANCH  25  28
HETATM   28  C   UNK N   1      32.614  14.574   7.614  0.00  0.00     0.048 C 
BRANCH  28  29
HETATM   29  C   UNK N   1      33.796  15.008   6.738  0.00  0.00     0.083 C 
BRANCH  29  30
HETATM   30  C   UNK N   1      33.525  14.951   5.205  0.00  0.00    -0.010 C 
HETATM   31  C   UNK N   1      33.035  16.226   4.541  0.00  0.00     0.010 C 
HETATM   32  C   UNK N   1      32.625  13.805   4.789  0.00  0.00     0.010 C 
ENDBRANCH  29  30
BRANCH  29  33
HETATM   33  C   UNK N   1      35.113  14.482   7.269  0.00  0.00     0.222 C 
HETATM   34  O   UNK N   1      36.134  14.572   6.594  0.00  0.00    -0.273 OA
HETATM   35  N   UNK N   1      35.150  13.832   8.453  0.00  0.00    -0.360 N 
HETATM   36  H   UNK N   1      34.325  13.749   8.983  0.00  0.00     0.162 HD
BRANCH  35  37
HETATM   37  C   UNK N   1      36.375  13.256   8.957  0.00  0.00     0.141 C 
BRANCH  37  38
HETATM   38  C   UNK N   1      36.466  13.377  10.477  0.00  0.00     0.049 C 
HETATM   39  C   UNK N   1      37.895  13.114  10.933  0.00  0.00     0.027 C 
HETATM   40  C   UNK N   1      35.590  12.284  11.068  0.00  0.00     0.027 C 
BRANCH  38  41
HETATM   41  C   UNK N   1      36.027  14.754  10.937  0.00  0.00     0.225 C 
HETATM   42  O   UNK N   1      36.526  15.752  10.442  0.00  0.00    -0.273 OA
HETATM   43  N   UNK N   1      35.089  14.896  11.897  0.00  0.00    -0.369 N 
HETATM   44  H   UNK N   1      35.117  15.652  12.527  0.00  0.00     0.159 HD
HETATM   45  H   UNK N   1      34.365  14.233  11.969  0.00  0.00     0.159 HD
ENDBRANCH  38  41
ENDBRANCH  37  38
ENDBRANCH  35  37
ENDBRANCH  29  33
ENDBRANCH  28  29
ENDBRANCH  25  28
ENDBRANCH   1  25
TORSDOF 21
ENDMDL
MODEL 6
REMARK VINA RESULT:      -6.1      2.727      5.182
REMARK  21 active torsions:
REMARK  status: ('A' for Active; 'I' for Inactive)
REMARK    1  A    between atoms: C_13  and  O_1 
REMARK    2  A    between atoms: O_3  and  C_29 
REMARK    3  A    between atoms: O_3  and  C_35 
REMARK    4  A    between atoms: O_4  and  C_33 
REMARK    5  A    between atoms: O_6  and  C_38 
REMARK    6  A    between atoms: C_12  and  N_7 
REMARK       I    between atoms: N_8  and  C_21 
REMARK    7  A    between atoms: N_8  and  C_25 
REMARK       I    between atoms: N_9  and  C_34 
REMARK    8  A    between atoms: C_10  and  C_11 
REMARK    9  A    between atoms: C_10  and  C_14 
REMARK   10  A    between atoms: C_10  and  C_17 
REMARK   11  A    between atoms: C_11  and  C_12 
REMARK   12  A    between atoms: C_12  and  C_13 
REMARK   13  A    between atoms: C_13  and  C_15 
REMARK   14  A    between atoms: C_16  and  C_15 
REMARK   15  A    between atoms: C_16  and  C_18 
REMARK   16  A    between atoms: C_16  and  C_21 
REMARK   17  A    between atoms: C_17  and  C_22 
REMARK   18  A    between atoms: C_25  and  C_26 
REMARK   19  A    between atoms: C_26  and  C_34 
REMARK   20  A    between atoms: C_35  and  C_36 
REMARK   21  A    between atoms: C_36  and  C_38 
ROOT
HETATM    1  C   UNK N   1      31.575  17.973   7.974  0.00  0.00     0.103 C 
ENDROOT
BRANCH   1   2
HETATM    2  N   UNK N   1      30.803  18.127   9.201  0.00  0.00    -0.424 N 
HETATM    3  H   UNK N   1      29.784  18.171   9.206  0.00  0.00     0.150 HD
HETATM    4  H   UNK N   1      31.301  18.194  10.089  0.00  0.00     0.150 HD
ENDBRANCH   1   2
BRANCH   1   5
HETATM    5  C   UNK N   1      31.097  16.779   7.180  0.00  0.00     0.032 C 
BRANCH   5   6
HETATM    6  C   UNK N   1      30.495  17.223   5.859  0.00  0.00    -0.005 C 
BRANCH   6   7
HETATM    7  C   UNK N   1      31.330  16.627   4.715  0.00  0.00    -0.018 C 
HETATM    8  C   UNK N   1      32.254  17.660   4.103  0.00  0.00     0.010 C 
HETATM    9  C   UNK N   1      32.193  15.469   5.194  0.00  0.00     0.010 C 
ENDBRANCH   6   7
BRANCH   6  10
HETATM   10  C   UNK N   1      29.074  16.672   5.848  0.00  0.00     0.043 C 
BRANCH  10  11
HETATM   11  C   UNK N   1      28.018  17.538   5.239  0.00  0.00    -0.055 A 
HETATM   12  C   UNK N   1      26.756  16.992   4.982  0.00  0.00     0.046 A 
HETATM   13  C   UNK N   1      25.816  17.696   4.206  0.00  0.00     0.102 A 
HETATM   14  C   UNK N   1      26.161  18.946   3.673  0.00  0.00     0.101 A 
HETATM   15  C   UNK N   1      27.412  19.511   3.981  0.00  0.00     0.040 A 
HETATM   16  C   UNK N   1      28.334  18.806   4.754  0.00  0.00     0.010 A 
BRANCH  13  17
HETATM   17  O   UNK N   1      24.595  17.171   3.933  0.00  0.00    -0.348 OA
BRANCH  17  18
HETATM   18  C   UNK N   1      23.558  17.225   4.835  0.00  0.00     0.178 C 
BRANCH  18  19
HETATM   19  C   UNK N   1      22.259  17.626   4.174  0.00  0.00     0.053 C 
BRANCH  19  20
HETATM   20  C   UNK N   1      21.475  18.416   5.205  0.00  0.00     0.169 C 
BRANCH  20  21
HETATM   21  O   UNK N   1      21.859  18.056   6.494  0.00  0.00    -0.396 OA
HETATM   22  C   UNK N   1      20.733  17.428   7.026  0.00  0.00     0.201 C 
ENDBRANCH  20  21
ENDBRANCH  19  20
ENDBRANCH  18  19
ENDBRANCH  17  18
ENDBRANCH  13  17
BRANCH  14  23
HETATM   23  O   UNK N   1      25.291  19.578   2.850  0.00  0.00    -0.353 OA
HETATM   24  C   UNK N   1      24.466  20.595   3.276  0.00  0.00     0.210 C 
ENDBRANCH  14  23
ENDBRANCH  10  11
ENDBRANCH   6  10
ENDBRANCH   5   6
ENDBRANCH   1   5
BRANCH   1  25
HETATM   25  C   UNK N   1      33.039  17.784   8.289  0.00  0.00     0.141 C 
BRANCH  25  26
HETATM   26  O   UNK N   1      33.824  18.211   7.209  0.00  0.00    -0.394 OA
HETATM   27  H   UNK N   1      34.418  18.866   6.811  0.00  0.00     0.210 HD
ENDBRANCH  25  26
BRANCH  25  28
HETATM   28  C   UNK N   1      33.296  16.330   8.693  0.00  0.00     0.048 C 
BRANCH  28  29
HETATM   29  C   UNK N   1      34.768  15.909   8.771  0.00  0.00     0.083 C 
BRANCH  29  30
HETATM   30  C   UNK N   1      35.123  14.628   7.957  0.00  0.00    -0.010 C 
HETATM   31  C   UNK N   1      35.622  14.827   6.537  0.00  0.00     0.010 C 
HETATM   32  C   UNK N   1      34.018  13.591   7.946  0.00  0.00     0.010 C 
ENDBRANCH  29  30
BRANCH  29  33
HETATM   33  C   UNK N   1      35.327  16.065  10.170  0.00  0.00     0.222 C 
HETATM   34  O   UNK N   1      35.715  17.160  10.564  0.00  0.00    -0.273 OA
HETATM   35  N   UNK N   1      35.480  14.979  10.958  0.00  0.00    -0.360 N 
HETATM   36  H   UNK N   1      35.181  14.100  10.630  0.00  0.00     0.162 HD
BRANCH  35  37
HETATM   37  C   UNK N   1      36.074  15.079  12.270  0.00  0.00     0.141 C 
BRANCH  37  38
HETATM   38  C   UNK N   1      36.177  13.713  12.945  0.00  0.00     0.049 C 
HETATM   39  C   UNK N   1      34.853  12.970  12.817  0.00  0.00     0.027 C 
HETATM   40  C   UNK N   1      36.420  13.960  14.425  0.00  0.00     0.027 C 
BRANCH  38  41
HETATM   41  C   UNK N   1      37.289  12.887  12.327  0.00  0.00     0.225 C 
HETATM   42  O   UNK N   1      37.586  13.042  11.153  0.00  0.00    -0.273 OA
HETATM   43  N   UNK N   1      37.958  11.971  13.058  0.00  0.00    -0.369 N 
HETATM   44  H   UNK N   1      38.302  11.145  12.647  0.00  0.00     0.159 HD
HETATM   45  H   UNK N   1      38.105  12.131  14.018  0.00  0.00     0.159 HD
ENDBRANCH  38  41
ENDBRANCH  37  38
ENDBRANCH  35  37
ENDBRANCH  29  33
ENDBRANCH  28  29
ENDBRANCH  25  28
ENDBRANCH   1  25
TORSDOF 21
ENDMDL
MODEL 7
REMARK VINA RESULT:      -6.1      2.621      4.091
REMARK  21 active torsions:
REMARK  status: ('A' for Active; 'I' for Inactive)
REMARK    1  A    between atoms: C_13  and  O_1 
REMARK    2  A    between atoms: O_3  and  C_29 
REMARK    3  A    between atoms: O_3  and  C_35 
REMARK    4  A    between atoms: O_4  and  C_33 
REMARK    5  A    between atoms: O_6  and  C_38 
REMARK    6  A    between atoms: C_12  and  N_7 
REMARK       I    between atoms: N_8  and  C_21 
REMARK    7  A    between atoms: N_8  and  C_25 
REMARK       I    between atoms: N_9  and  C_34 
REMARK    8  A    between atoms: C_10  and  C_11 
REMARK    9  A    between atoms: C_10  and  C_14 
REMARK   10  A    between atoms: C_10  and  C_17 
REMARK   11  A    between atoms: C_11  and  C_12 
REMARK   12  A    between atoms: C_12  and  C_13 
REMARK   13  A    between atoms: C_13  and  C_15 
REMARK   14  A    between atoms: C_16  and  C_15 
REMARK   15  A    between atoms: C_16  and  C_18 
REMARK   16  A    between atoms: C_16  and  C_21 
REMARK   17  A    between atoms: C_17  and  C_22 
REMARK   18  A    between atoms: C_25  and  C_26 
REMARK   19  A    between atoms: C_26  and  C_34 
REMARK   20  A    between atoms: C_35  and  C_36 
REMARK   21  A    between atoms: C_36  and  C_38 
ROOT
HETATM    1  C   UNK N   1      28.641  18.229   7.829  0.00  0.00     0.103 C 
ENDROOT
BRANCH   1   2
HETATM    2  N   UNK N   1      27.821  18.342   9.029  0.00  0.00    -0.424 N 
HETATM    3  H   UNK N   1      27.188  17.602   9.332  0.00  0.00     0.150 HD
HETATM    4  H   UNK N   1      27.882  19.194   9.587  0.00  0.00     0.150 HD
ENDBRANCH   1   2
BRANCH   1   5
HETATM    5  C   UNK N   1      27.904  17.487   6.737  0.00  0.00     0.032 C 
BRANCH   5   6
HETATM    6  C   UNK N   1      26.927  18.410   6.031  0.00  0.00    -0.005 C 
BRANCH   6   7
HETATM    7  C   UNK N   1      27.705  19.613   5.473  0.00  0.00    -0.018 C 
HETATM    8  C   UNK N   1      27.622  19.677   3.962  0.00  0.00     0.010 C 
HETATM    9  C   UNK N   1      27.169  20.929   6.016  0.00  0.00     0.010 C 
ENDBRANCH   6   7
BRANCH   6  10
HETATM   10  C   UNK N   1      26.316  17.581   4.908  0.00  0.00     0.043 C 
BRANCH  10  11
HETATM   11  C   UNK N   1      24.911  17.108   5.105  0.00  0.00    -0.055 A 
HETATM   12  C   UNK N   1      23.855  17.932   4.703  0.00  0.00     0.046 A 
HETATM   13  C   UNK N   1      22.530  17.631   5.076  0.00  0.00     0.102 A 
HETATM   14  C   UNK N   1      22.278  16.506   5.873  0.00  0.00     0.101 A 
HETATM   15  C   UNK N   1      23.340  15.654   6.227  0.00  0.00     0.040 A 
HETATM   16  C   UNK N   1      24.647  15.960   5.849  0.00  0.00     0.010 A 
BRANCH  13  17
HETATM   17  O   UNK N   1      21.498  18.431   4.711  0.00  0.00    -0.348 OA
BRANCH  17  18
HETATM   18  C   UNK N   1      20.531  18.017   3.824  0.00  0.00     0.178 C 
BRANCH  18  19
HETATM   19  C   UNK N   1      21.123  17.260   2.659  0.00  0.00     0.053 C 
BRANCH  19  20
HETATM   20  C   UNK N   1      20.180  17.459   1.488  0.00  0.00     0.169 C 
BRANCH  20  21
HETATM   21  O   UNK N   1      20.478  16.568   0.460  0.00  0.00    -0.396 OA
HETATM   22  C   UNK N   1      20.893  15.410   1.118  0.00  0.00     0.201 C 
ENDBRANCH  20  21
ENDBRANCH  19  20
ENDBRANCH  18  19
ENDBRANCH  17  18
ENDBRANCH  13  17
BRANCH  14  23
HETATM   23  O   UNK N   1      21.018  16.271   6.309  0.00  0.00    -0.353 OA
HETATM   24  C   UNK N   1      20.370  15.074   6.109  0.00  0.00     0.210 C 
ENDBRANCH  14  23
ENDBRANCH  10  11
ENDBRANCH   6  10
ENDBRANCH   5   6
ENDBRANCH   1   5
BRANCH   1  25
HETATM   25  C   UNK N   1      29.922  17.490   8.131  0.00  0.00     0.141 C 
BRANCH  25  26
HETATM   26  O   UNK N   1      30.864  18.365   8.688  0.00  0.00    -0.394 OA
HETATM   27  H   UNK N   1      31.635  18.517   9.257  0.00  0.00     0.210 HD
ENDBRANCH  25  26
BRANCH  25  28
HETATM   28  C   UNK N   1      30.420  16.783   6.867  0.00  0.00     0.048 C 
BRANCH  28  29
HETATM   29  C   UNK N   1      31.550  17.489   6.109  0.00  0.00     0.083 C 
BRANCH  29  30
HETATM   30  C   UNK N   1      31.339  17.585   4.568  0.00  0.00    -0.010 C 
HETATM   31  C   UNK N   1      30.157  16.831   3.984  0.00  0.00     0.010 C 
HETATM   32  C   UNK N   1      32.578  17.252   3.763  0.00  0.00     0.010 C 
ENDBRANCH  29  30
BRANCH  29  33
HETATM   33  C   UNK N   1      32.914  17.099   6.638  0.00  0.00     0.222 C 
HETATM   34  O   UNK N   1      33.807  17.936   6.726  0.00  0.00    -0.273 OA
HETATM   35  N   UNK N   1      33.177  15.807   6.931  0.00  0.00    -0.360 N 
HETATM   36  H   UNK N   1      32.461  15.137   6.843  0.00  0.00     0.162 HD
BRANCH  35  37
HETATM   37  C   UNK N   1      34.487  15.387   7.370  0.00  0.00     0.141 C 
BRANCH  37  38
HETATM   38  C   UNK N   1      34.470  14.931   8.827  0.00  0.00     0.049 C 
HETATM   39  C   UNK N   1      34.935  16.065   9.731  0.00  0.00     0.027 C 
HETATM   40  C   UNK N   1      35.480  13.802   8.957  0.00  0.00     0.027 C 
BRANCH  38  41
HETATM   41  C   UNK N   1      33.079  14.486   9.238  0.00  0.00     0.225 C 
HETATM   42  O   UNK N   1      32.557  13.529   8.689  0.00  0.00    -0.273 OA
HETATM   43  N   UNK N   1      32.401  15.139  10.205  0.00  0.00    -0.369 N 
HETATM   44  H   UNK N   1      31.420  15.215  10.176  0.00  0.00     0.159 HD
HETATM   45  H   UNK N   1      32.896  15.546  10.952  0.00  0.00     0.159 HD
ENDBRANCH  38  41
ENDBRANCH  37  38
ENDBRANCH  35  37
ENDBRANCH  29  33
ENDBRANCH  28  29
ENDBRANCH  25  28
ENDBRANCH   1  25
TORSDOF 21
ENDMDL
MODEL 8
REMARK VINA RESULT:      -6.1      2.485      4.085
REMARK  21 active torsions:
REMARK  status: ('A' for Active; 'I' for Inactive)
REMARK    1  A    between atoms: C_13  and  O_1 
REMARK    2  A    between atoms: O_3  and  C_29 
REMARK    3  A    between atoms: O_3  and  C_35 
REMARK    4  A    between atoms: O_4  and  C_33 
REMARK    5  A    between atoms: O_6  and  C_38 
REMARK    6  A    between atoms: C_12  and  N_7 
REMARK       I    between atoms: N_8  and  C_21 
REMARK    7  A    between atoms: N_8  and  C_25 
REMARK       I    between atoms: N_9  and  C_34 
REMARK    8  A    between atoms: C_10  and  C_11 
REMARK    9  A    between atoms: C_10  and  C_14 
REMARK   10  A    between atoms: C_10  and  C_17 
REMARK   11  A    between atoms: C_11  and  C_12 
REMARK   12  A    between atoms: C_12  and  C_13 
REMARK   13  A    between atoms: C_13  and  C_15 
REMARK   14  A    between atoms: C_16  and  C_15 
REMARK   15  A    between atoms: C_16  and  C_18 
REMARK   16  A    between atoms: C_16  and  C_21 
REMARK   17  A    between atoms: C_17  and  C_22 
REMARK   18  A    between atoms: C_25  and  C_26 
REMARK   19  A    between atoms: C_26  and  C_34 
REMARK   20  A    between atoms: C_35  and  C_36 
REMARK   21  A    between atoms: C_36  and  C_38 
ROOT
HETATM    1  C   UNK N   1      28.997  16.481   3.679  0.00  0.00     0.103 C 
ENDROOT
BRANCH   1   2
HETATM    2  N   UNK N   1      29.720  16.575   2.417  0.00  0.00    -0.424 N 
HETATM    3  H   UNK N   1      30.446  15.909   2.149  0.00  0.00     0.150 HD
HETATM    4  H   UNK N   1      29.492  17.336   1.776  0.00  0.00     0.150 HD
ENDBRANCH   1   2
BRANCH   1   5
HETATM    5  C   UNK N   1      28.139  17.705   3.905  0.00  0.00     0.032 C 
BRANCH   5   6
HETATM    6  C   UNK N   1      26.667  17.354   3.783  0.00  0.00    -0.005 C 
BRANCH   6   7
HETATM    7  C   UNK N   1      26.495  15.855   4.079  0.00  0.00    -0.018 C 
HETATM    8  C   UNK N   1      26.058  15.617   5.509  0.00  0.00     0.010 C 
HETATM    9  C   UNK N   1      25.452  15.220   3.170  0.00  0.00     0.010 C 
ENDBRANCH   6   7
BRANCH   6  10
HETATM   10  C   UNK N   1      25.953  18.206   4.824  0.00  0.00     0.043 C 
BRANCH  10  11
HETATM   11  C   UNK N   1      24.744  18.958   4.369  0.00  0.00    -0.055 A 
HETATM   12  C   UNK N   1      23.476  18.420   4.616  0.00  0.00     0.046 A 
HETATM   13  C   UNK N   1      22.333  18.974   4.008  0.00  0.00     0.102 A 
HETATM   14  C   UNK N   1      22.475  20.059   3.132  0.00  0.00     0.101 A 
HETATM   15  C   UNK N   1      23.747  20.626   2.931  0.00  0.00     0.040 A 
HETATM   16  C   UNK N   1      24.872  20.073   3.542  0.00  0.00     0.010 A 
BRANCH  13  17
HETATM   17  O   UNK N   1      21.100  18.451   4.223  0.00  0.00    -0.348 OA
BRANCH  17  18
HETATM   18  C   UNK N   1      20.831  17.114   4.043  0.00  0.00     0.178 C 
BRANCH  18  19
HETATM   19  C   UNK N   1      20.093  16.525   5.223  0.00  0.00     0.053 C 
BRANCH  19  20
HETATM   20  C   UNK N   1      20.545  15.082   5.340  0.00  0.00     0.169 C 
BRANCH  20  21
HETATM   21  O   UNK N   1      19.825  14.421   6.332  0.00  0.00    -0.396 OA
HETATM   22  C   UNK N   1      20.753  13.556   6.912  0.00  0.00     0.201 C 
ENDBRANCH  20  21
ENDBRANCH  19  20
ENDBRANCH  18  19
ENDBRANCH  17  18
ENDBRANCH  13  17
BRANCH  14  23
HETATM   23  O   UNK N   1      21.388  20.528   2.476  0.00  0.00    -0.353 OA
HETATM   24  C   UNK N   1      21.060  20.133   1.199  0.00  0.00     0.210 C 
ENDBRANCH  14  23
ENDBRANCH  10  11
ENDBRANCH   6  10
ENDBRANCH   5   6
ENDBRANCH   1   5
BRANCH   1  25
HETATM   25  C   UNK N   1      29.962  16.351   4.833  0.00  0.00     0.141 C 
BRANCH  25  26
HETATM   26  O   UNK N   1      29.792  15.113   5.467  0.00  0.00    -0.394 OA
HETATM   27  H   UNK N   1      29.888  14.553   6.253  0.00  0.00     0.210 HD
ENDBRANCH  25  26
BRANCH  25  28
HETATM   28  C   UNK N   1      29.800  17.546   5.777  0.00  0.00     0.048 C 
BRANCH  28  29
HETATM   29  C   UNK N   1      29.547  17.204   7.250  0.00  0.00     0.083 C 
BRANCH  29  30
HETATM   30  C   UNK N   1      28.270  17.856   7.860  0.00  0.00    -0.010 C 
HETATM   31  C   UNK N   1      28.062  19.339   7.605  0.00  0.00     0.010 C 
HETATM   32  C   UNK N   1      28.099  17.586   9.341  0.00  0.00     0.010 C 
ENDBRANCH  29  30
BRANCH  29  33
HETATM   33  C   UNK N   1      30.828  17.207   8.057  0.00  0.00     0.222 C 
HETATM   34  O   UNK N   1      31.215  18.237   8.602  0.00  0.00    -0.273 OA
HETATM   35  N   UNK N   1      31.596  16.097   8.106  0.00  0.00    -0.360 N 
HETATM   36  H   UNK N   1      31.288  15.278   7.654  0.00  0.00     0.162 HD
BRANCH  35  37
HETATM   37  C   UNK N   1      32.858  16.085   8.807  0.00  0.00     0.141 C 
BRANCH  37  38
HETATM   38  C   UNK N   1      33.994  15.602   7.907  0.00  0.00     0.049 C 
HETATM   39  C   UNK N   1      33.654  14.233   7.332  0.00  0.00     0.027 C 
HETATM   40  C   UNK N   1      35.223  15.434   8.786  0.00  0.00     0.027 C 
BRANCH  38  41
HETATM   41  C   UNK N   1      34.245  16.583   6.778  0.00  0.00     0.225 C 
HETATM   42  O   UNK N   1      34.419  17.766   7.025  0.00  0.00    -0.273 OA
HETATM   43  N   UNK N   1      34.273  16.169   5.495  0.00  0.00    -0.369 N 
HETATM   44  H   UNK N   1      33.963  16.752   4.765  0.00  0.00     0.159 HD
HETATM   45  H   UNK N   1      34.610  15.268   5.284  0.00  0.00     0.159 HD
ENDBRANCH  38  41
ENDBRANCH  37  38
ENDBRANCH  35  37
ENDBRANCH  29  33
ENDBRANCH  28  29
ENDBRANCH  25  28
ENDBRANCH   1  25
TORSDOF 21
ENDMDL
MODEL 9
REMARK VINA RESULT:      -6.1      2.297      3.561
REMARK  21 active torsions:
REMARK  status: ('A' for Active; 'I' for Inactive)
REMARK    1  A    between atoms: C_13  and  O_1 
REMARK    2  A    between atoms: O_3  and  C_29 
REMARK    3  A    between atoms: O_3  and  C_35 
REMARK    4  A    between atoms: O_4  and  C_33 
REMARK    5  A    between atoms: O_6  and  C_38 
REMARK    6  A    between atoms: C_12  and  N_7 
REMARK       I    between atoms: N_8  and  C_21 
REMARK    7  A    between atoms: N_8  and  C_25 
REMARK       I    between atoms: N_9  and  C_34 
REMARK    8  A    between atoms: C_10  and  C_11 
REMARK    9  A    between atoms: C_10  and  C_14 
REMARK   10  A    between atoms: C_10  and  C_17 
REMARK   11  A    between atoms: C_11  and  C_12 
REMARK   12  A    between atoms: C_12  and  C_13 
REMARK   13  A    between atoms: C_13  and  C_15 
REMARK   14  A    between atoms: C_16  and  C_15 
REMARK   15  A    between atoms: C_16  and  C_18 
REMARK   16  A    between atoms: C_16  and  C_21 
REMARK   17  A    between atoms: C_17  and  C_22 
REMARK   18  A    between atoms: C_25  and  C_26 
REMARK   19  A    between atoms: C_26  and  C_34 
REMARK   20  A    between atoms: C_35  and  C_36 
REMARK   21  A    between atoms: C_36  and  C_38 
ROOT
HETATM    1  C   UNK N   1      27.344  17.242   4.551  0.00  0.00     0.103 C 
ENDROOT
BRANCH   1   2
HETATM    2  N   UNK N   1      26.552  16.676   3.466  0.00  0.00    -0.424 N 
HETATM    3  H   UNK N   1      26.625  17.007   2.503  0.00  0.00     0.150 HD
HETATM    4  H   UNK N   1      25.901  15.919   3.676  0.00  0.00     0.150 HD
ENDBRANCH   1   2
BRANCH   1   5
HETATM    5  C   UNK N   1      27.602  18.714   4.323  0.00  0.00     0.032 C 
BRANCH   5   6
HETATM    6  C   UNK N   1      26.412  19.540   4.776  0.00  0.00    -0.005 C 
BRANCH   6   7
HETATM    7  C   UNK N   1      26.932  20.835   5.420  0.00  0.00    -0.018 C 
HETATM    8  C   UNK N   1      26.132  21.204   6.652  0.00  0.00     0.010 C 
HETATM    9  C   UNK N   1      28.388  20.707   5.842  0.00  0.00     0.010 C 
ENDBRANCH   6   7
BRANCH   6  10
HETATM   10  C   UNK N   1      25.612  19.836   3.513  0.00  0.00     0.043 C 
BRANCH  10  11
HETATM   11  C   UNK N   1      24.122  19.782   3.629  0.00  0.00    -0.055 A 
HETATM   12  C   UNK N   1      23.541  18.843   4.487  0.00  0.00     0.046 A 
HETATM   13  C   UNK N   1      22.153  18.604   4.453  0.00  0.00     0.102 A 
HETATM   14  C   UNK N   1      21.357  19.303   3.535  0.00  0.00     0.101 A 
HETATM   15  C   UNK N   1      21.942  20.283   2.713  0.00  0.00     0.040 A 
HETATM   16  C   UNK N   1      23.316  20.514   2.758  0.00  0.00     0.010 A 
BRANCH  13  17
HETATM   17  O   UNK N   1      21.578  17.683   5.266  0.00  0.00    -0.348 OA
BRANCH  17  18
HETATM   18  C   UNK N   1      22.254  16.564   5.695  0.00  0.00     0.178 C 
BRANCH  18  19
HETATM   19  C   UNK N   1      21.308  15.458   6.100  0.00  0.00     0.053 C 
BRANCH  19  20
HETATM   20  C   UNK N   1      21.222  15.495   7.614  0.00  0.00     0.169 C 
BRANCH  20  21
HETATM   21  O   UNK N   1      19.923  15.228   8.039  0.00  0.00    -0.396 OA
HETATM   22  C   UNK N   1      19.329  16.486   8.144  0.00  0.00     0.201 C 
ENDBRANCH  20  21
ENDBRANCH  19  20
ENDBRANCH  18  19
ENDBRANCH  17  18
ENDBRANCH  13  17
BRANCH  14  23
HETATM   23  O   UNK N   1      20.040  19.004   3.438  0.00  0.00    -0.353 OA
HETATM   24  C   UNK N   1      19.514  18.283   2.391  0.00  0.00     0.210 C 
ENDBRANCH  14  23
ENDBRANCH  10  11
ENDBRANCH   6  10
ENDBRANCH   5   6
ENDBRANCH   1   5
BRANCH   1  25
HETATM   25  C   UNK N   1      28.673  16.534   4.662  0.00  0.00     0.141 C 
BRANCH  25  26
HETATM   26  O   UNK N   1      28.529  15.353   5.404  0.00  0.00    -0.394 OA
HETATM   27  H   UNK N   1      28.512  14.384   5.443  0.00  0.00     0.210 HD
ENDBRANCH  25  26
BRANCH  25  28
HETATM   28  C   UNK N   1      29.720  17.491   5.236  0.00  0.00     0.048 C 
BRANCH  28  29
HETATM   29  C   UNK N   1      30.212  17.170   6.653  0.00  0.00     0.083 C 
BRANCH  29  30
HETATM   30  C   UNK N   1      29.582  18.049   7.775  0.00  0.00    -0.010 C 
HETATM   31  C   UNK N   1      30.461  18.381   8.969  0.00  0.00     0.010 C 
HETATM   32  C   UNK N   1      28.250  17.529   8.278  0.00  0.00     0.010 C 
ENDBRANCH  29  30
BRANCH  29  33
HETATM   33  C   UNK N   1      31.701  16.899   6.685  0.00  0.00     0.222 C 
HETATM   34  O   UNK N   1      32.462  17.525   5.953  0.00  0.00    -0.273 OA
HETATM   35  N   UNK N   1      32.188  15.902   7.457  0.00  0.00    -0.360 N 
HETATM   36  H   UNK N   1      31.571  15.393   8.031  0.00  0.00     0.162 HD
BRANCH  35  37
HETATM   37  C   UNK N   1      33.592  15.569   7.459  0.00  0.00     0.141 C 
BRANCH  37  38
HETATM   38  C   UNK N   1      34.157  15.529   8.878  0.00  0.00     0.049 C 
HETATM   39  C   UNK N   1      35.348  14.583   8.936  0.00  0.00     0.027 C 
HETATM   40  C   UNK N   1      33.073  14.952   9.776  0.00  0.00     0.027 C 
BRANCH  38  41
HETATM   41  C   UNK N   1      34.579  16.913   9.332  0.00  0.00     0.225 C 
HETATM   42  O   UNK N   1      34.539  17.850   8.551  0.00  0.00    -0.273 OA
HETATM   43  N   UNK N   1      35.006  17.127  10.594  0.00  0.00    -0.369 N 
HETATM   44  H   UNK N   1      35.691  17.806  10.791  0.00  0.00     0.159 HD
HETATM   45  H   UNK N   1      34.627  16.595  11.330  0.00  0.00     0.159 HD
ENDBRANCH  38  41
ENDBRANCH  37  38
ENDBRANCH  35  37
ENDBRANCH  29  33
ENDBRANCH  28  29
ENDBRANCH  25  28
ENDBRANCH   1  25
TORSDOF 21
ENDMDL
