REMARK  11 active torsions:
REMARK  status: ('A' for Active; 'I' for Inactive)
REMARK    1  A    between atoms: S_2  and  C_15 
REMARK    2  A    between atoms: O_7  and  C_33 
REMARK    3  A    between atoms: O_7  and  C_36 
REMARK    4  A    between atoms: N_8  and  C_14 
REMARK    5  A    between atoms: N_8  and  C_16 
REMARK    6  A    between atoms: N_9  and  C_26 
REMARK    7  A    between atoms: N_9  and  C_29 
REMARK    8  A    between atoms: C_14  and  C_15 
REMARK    9  A    between atoms: C_16  and  C_17 
REMARK   10  A    between atoms: C_18  and  C_19 
REMARK   11  A    between atoms: C_36  and  C_37 
ROOT
HETATM    1  N   UNK N   1       9.462   5.549  -0.081  0.00  0.00    -0.352 N 
ATOM      2  HN  UNK N   1       9.533   6.534   0.176  1.00  0.00     0.166 HD
HETATM    3  N   UNK N   1      10.508   3.532  -0.799  0.00  0.00    -0.338 N 
ATOM      4  HN  UNK N   1      11.352   3.019  -1.055  1.00  0.00     0.168 HD
HETATM    5  C   UNK N   1       5.844   3.490   0.048  0.00  0.00    -0.001 A 
HETATM    6  C   UNK N   1       8.178   3.596  -0.439  0.00  0.00     0.036 A 
HETATM    7  C   UNK N   1       7.012   2.928  -0.384  0.00  0.00     0.031 A 
HETATM    8  C   UNK N   1       8.253   4.934  -0.062  0.00  0.00     0.047 A 
HETATM    9  C   UNK N   1       5.840   4.851   0.421  0.00  0.00     0.016 A 
HETATM   10  C   UNK N   1       9.309   2.909  -0.810  0.00  0.00     0.119 A 
HETATM   11  C   UNK N   1       7.061   5.584   0.353  0.00  0.00     0.031 A 
HETATM   12  C   UNK N   1      10.590   4.856  -0.444  0.00  0.00     0.182 A 
ENDROOT
BRANCH  10  13
HETATM   13  N   UNK N   1       9.156   1.532  -1.165  0.00  0.00    -0.342 N 
HETATM   14  H   UNK N   1       8.560   1.312  -1.916  0.00  0.00     0.167 HD
BRANCH  13  15
HETATM   15  C   UNK N   1       9.806   0.471  -0.506  0.00  0.00     0.035 A 
HETATM   16  C   UNK N   1       9.556  -0.845  -0.916  0.00  0.00     0.056 A 
HETATM   17  C   UNK N   1      10.258  -1.907  -0.337  0.00  0.00     0.069 A 
HETATM   18 Cl   UNK N   1       9.982  -3.539  -0.924  0.00  0.00    -0.081 Cl
HETATM   19  C   UNK N   1      11.232  -1.642   0.640  0.00  0.00     0.091 A 
HETATM   20  C   UNK N   1      11.409  -0.326   1.099  0.00  0.00     0.041 A 
HETATM   21  C   UNK N   1      10.694   0.720   0.538  0.00  0.00     0.032 A 
BRANCH  19  22
HETATM   22  O   UNK N   1      12.035  -2.635   1.088  0.00  0.00    -0.345 OA
BRANCH  22  23
HETATM   23  C   UNK N   1      13.198  -2.350   1.777  0.00  0.00     0.214 C 
BRANCH  23  24
HETATM   24  C   UNK N   1      14.383  -2.448   0.867  0.00  0.00    -0.031 A 
HETATM   25  C   UNK N   1      14.858  -3.702   0.471  0.00  0.00     0.051 A 
HETATM   26  C   UNK N   1      15.997  -3.800  -0.334  0.00  0.00     0.117 A 
HETATM   27  F   UNK N   1      16.465  -5.018  -0.694  0.00  0.00    -0.206 F 
HETATM   28  C   UNK N   1      16.663  -2.643  -0.752  0.00  0.00     0.042 A 
HETATM   29  C   UNK N   1      16.187  -1.386  -0.365  0.00  0.00     0.004 A 
HETATM   30  C   UNK N   1      15.053  -1.288   0.450  0.00  0.00     0.009 A 
ENDBRANCH  23  24
ENDBRANCH  22  23
ENDBRANCH  19  22
ENDBRANCH  13  15
ENDBRANCH  10  13
BRANCH   5  31
HETATM   31  C   UNK N   1       4.788   2.488   0.172  0.00  0.00     0.086 A 
HETATM   32  O   UNK N   1       5.111   1.242  -0.059  0.00  0.00    -0.313 OA
HETATM   33  C   UNK N   1       4.120   0.467   0.187  0.00  0.00     0.071 A 
HETATM   34  C   UNK N   1       3.031   1.226   0.604  0.00  0.00     0.037 A 
HETATM   35  C   UNK N   1       3.475   2.556   0.599  0.00  0.00     0.040 A 
BRANCH  33  36
HETATM   36  C   UNK N   1       4.291  -1.013   0.044  0.00  0.00     0.179 C 
BRANCH  36  37
HETATM   37  N   UNK N   1       3.119  -1.748   0.447  0.00  0.00    -0.415 N 
HETATM   38  H   UNK N   1       2.978  -2.243   1.327  0.00  0.00     0.153 HD
BRANCH  37  39
HETATM   39  C   UNK N   1       2.184  -1.643  -0.651  0.00  0.00     0.129 C 
BRANCH  39  40
HETATM   40  C   UNK N   1       0.795  -1.703  -0.078  0.00  0.00     0.159 C 
BRANCH  40  41
HETATM   41  S   UNK N   1       0.348  -3.429   0.232  0.00  0.00     0.142 S 
HETATM   42  O   UNK N   1       1.419  -4.422  -0.252  0.00  0.00    -0.228 OA
HETATM   43  O   UNK N   1      -0.409  -3.494  -1.093  0.00  0.00    -0.228 OA
HETATM   44  C   UNK N   1      -0.990  -4.266   1.120  0.00  0.00     0.161 C 
ENDBRANCH  40  41
ENDBRANCH  39  40
ENDBRANCH  37  39
ENDBRANCH  36  37
ENDBRANCH  33  36
ENDBRANCH   5  31
TORSDOF 11
