MODEL 1
REMARK VINA RESULT:      -8.1      0.000      0.000
REMARK  11 active torsions:
REMARK  status: ('A' for Active; 'I' for Inactive)
REMARK    1  A    between atoms: S_2  and  C_15 
REMARK    2  A    between atoms: O_7  and  C_33 
REMARK    3  A    between atoms: O_7  and  C_36 
REMARK    4  A    between atoms: N_8  and  C_14 
REMARK    5  A    between atoms: N_8  and  C_16 
REMARK    6  A    between atoms: N_9  and  C_26 
REMARK    7  A    between atoms: N_9  and  C_29 
REMARK    8  A    between atoms: C_14  and  C_15 
REMARK    9  A    between atoms: C_16  and  C_17 
REMARK   10  A    between atoms: C_18  and  C_19 
REMARK   11  A    between atoms: C_36  and  C_37 
ROOT
HETATM    1  N   UNK N   1      20.015  20.019   2.516  0.00  0.00    -0.352 N 
ATOM      2  HN  UNK N   1      19.702  20.923   2.161  1.00  0.00     0.166 HD
HETATM    3  N   UNK N   1      19.524  17.767   3.119  0.00  0.00    -0.338 N 
ATOM      4  HN  UNK N   1      18.855  17.000   3.193  1.00  0.00     0.168 HD
HETATM    5  C   UNK N   1      23.993  19.296   3.514  0.00  0.00    -0.001 A 
HETATM    6  C   UNK N   1      21.712  18.611   3.369  0.00  0.00     0.036 A 
HETATM    7  C   UNK N   1      22.999  18.373   3.678  0.00  0.00     0.031 A 
HETATM    8  C   UNK N   1      21.314  19.846   2.866  0.00  0.00     0.047 A 
HETATM    9  C   UNK N   1      23.659  20.580   3.033  0.00  0.00     0.016 A 
HETATM   10  C   UNK N   1      20.808  17.583   3.496  0.00  0.00     0.119 A 
HETATM   11  C   UNK N   1      22.297  20.860   2.716  0.00  0.00     0.031 A 
HETATM   12  C   UNK N   1      19.118  18.987   2.636  0.00  0.00     0.182 A 
ENDROOT
BRANCH  10  13
HETATM   13  N   UNK N   1      21.295  16.337   4.001  0.00  0.00    -0.342 N 
HETATM   14  H   UNK N   1      21.608  15.666   3.354  0.00  0.00     0.167 HD
BRANCH  13  15
HETATM   15  C   UNK N   1      21.354  16.011   5.370  0.00  0.00     0.035 A 
HETATM   16  C   UNK N   1      20.411  16.564   6.247  0.00  0.00     0.056 A 
HETATM   17  C   UNK N   1      20.395  16.183   7.592  0.00  0.00     0.069 A 
HETATM   18 Cl   UNK N   1      19.154  16.832   8.652  0.00  0.00    -0.081 Cl
HETATM   19  C   UNK N   1      21.314  15.225   8.052  0.00  0.00     0.091 A 
HETATM   20  C   UNK N   1      22.305  14.745   7.179  0.00  0.00     0.041 A 
HETATM   21  C   UNK N   1      22.331  15.143   5.852  0.00  0.00     0.032 A 
BRANCH  19  22
HETATM   22  O   UNK N   1      21.205  14.723   9.304  0.00  0.00    -0.345 OA
BRANCH  22  23
HETATM   23  C   UNK N   1      21.065  13.364   9.513  0.00  0.00     0.214 C 
BRANCH  23  24
HETATM   24  C   UNK N   1      22.241  12.828  10.270  0.00  0.00    -0.031 A 
HETATM   25  C   UNK N   1      22.076  12.363  11.579  0.00  0.00     0.051 A 
HETATM   26  C   UNK N   1      23.180  11.913  12.308  0.00  0.00     0.117 A 
HETATM   27  F   UNK N   1      23.017  11.487  13.583  0.00  0.00    -0.206 F 
HETATM   28  C   UNK N   1      24.454  11.918  11.730  0.00  0.00     0.042 A 
HETATM   29  C   UNK N   1      24.622  12.374  10.418  0.00  0.00     0.004 A 
HETATM   30  C   UNK N   1      23.519  12.836   9.691  0.00  0.00     0.009 A 
ENDBRANCH  23  24
ENDBRANCH  22  23
ENDBRANCH  19  22
ENDBRANCH  13  15
ENDBRANCH  10  13
BRANCH   5  31
HETATM   31  C   UNK N   1      25.308  18.707   3.758  0.00  0.00     0.086 A 
HETATM   32  O   UNK N   1      25.495  17.472   3.371  0.00  0.00    -0.313 OA
HETATM   33  C   UNK N   1      26.716  17.124   3.553  0.00  0.00     0.071 A 
HETATM   34  C   UNK N   1      27.421  18.183   4.116  0.00  0.00     0.037 A 
HETATM   35  C   UNK N   1      26.493  19.227   4.245  0.00  0.00     0.040 A 
BRANCH  33  36
HETATM   36  C   UNK N   1      27.163  15.762   3.122  0.00  0.00     0.179 C 
BRANCH  36  37
HETATM   37  N   UNK N   1      26.287  15.176   2.140  0.00  0.00    -0.415 N 
HETATM   38  H   UNK N   1      25.789  15.661   1.394  0.00  0.00     0.153 HD
BRANCH  37  39
HETATM   39  C   UNK N   1      26.256  13.759   2.427  0.00  0.00     0.129 C 
BRANCH  39  40
HETATM   40  C   UNK N   1      24.954  13.459   3.116  0.00  0.00     0.159 C 
BRANCH  40  41
HETATM   41  S   UNK N   1      23.592  13.665   1.942  0.00  0.00     0.142 S 
HETATM   42  O   UNK N   1      24.067  14.105   0.545  0.00  0.00    -0.228 OA
HETATM   43  O   UNK N   1      23.385  15.107   2.401  0.00  0.00    -0.228 OA
HETATM   44  C   UNK N   1      21.814  13.325   1.969  0.00  0.00     0.161 C 
ENDBRANCH  40  41
ENDBRANCH  39  40
ENDBRANCH  37  39
ENDBRANCH  36  37
ENDBRANCH  33  36
ENDBRANCH   5  31
TORSDOF 11
ENDMDL
MODEL 2
REMARK VINA RESULT:      -8.0      3.344      4.416
REMARK  11 active torsions:
REMARK  status: ('A' for Active; 'I' for Inactive)
REMARK    1  A    between atoms: S_2  and  C_15 
REMARK    2  A    between atoms: O_7  and  C_33 
REMARK    3  A    between atoms: O_7  and  C_36 
REMARK    4  A    between atoms: N_8  and  C_14 
REMARK    5  A    between atoms: N_8  and  C_16 
REMARK    6  A    between atoms: N_9  and  C_26 
REMARK    7  A    between atoms: N_9  and  C_29 
REMARK    8  A    between atoms: C_14  and  C_15 
REMARK    9  A    between atoms: C_16  and  C_17 
REMARK   10  A    between atoms: C_18  and  C_19 
REMARK   11  A    between atoms: C_36  and  C_37 
ROOT
HETATM    1  N   UNK N   1      21.591  20.638   2.655  0.00  0.00    -0.352 N 
ATOM      2  HN  UNK N   1      21.583  21.611   2.348  1.00  0.00     0.166 HD
HETATM    3  N   UNK N   1      20.423  18.598   3.047  0.00  0.00    -0.338 N 
ATOM      4  HN  UNK N   1      19.559  18.056   3.013  1.00  0.00     0.168 HD
HETATM    5  C   UNK N   1      25.086  18.739   3.888  0.00  0.00    -0.001 A 
HETATM    6  C   UNK N   1      22.728  18.755   3.522  0.00  0.00     0.036 A 
HETATM    7  C   UNK N   1      23.859  18.138   3.907  0.00  0.00     0.031 A 
HETATM    8  C   UNK N   1      22.748  20.077   3.087  0.00  0.00     0.047 A 
HETATM    9  C   UNK N   1      25.178  20.087   3.482  0.00  0.00     0.016 A 
HETATM   10  C   UNK N   1      21.561  18.029   3.503  0.00  0.00     0.119 A 
HETATM   11  C   UNK N   1      23.989  20.767   3.088  0.00  0.00     0.031 A 
HETATM   12  C   UNK N   1      20.429  19.907   2.630  0.00  0.00     0.182 A 
ENDROOT
BRANCH  10  13
HETATM   13  N   UNK N   1      21.622  16.671   3.947  0.00  0.00    -0.342 N 
HETATM   14  H   UNK N   1      21.666  15.964   3.265  0.00  0.00     0.167 HD
BRANCH  13  15
HETATM   15  C   UNK N   1      21.625  16.284   5.301  0.00  0.00     0.035 A 
HETATM   16  C   UNK N   1      20.866  17.015   6.223  0.00  0.00     0.056 A 
HETATM   17  C   UNK N   1      20.782  16.595   7.555  0.00  0.00     0.069 A 
HETATM   18 Cl   UNK N   1      19.762  17.486   8.673  0.00  0.00    -0.081 Cl
HETATM   19  C   UNK N   1      21.444  15.421   7.953  0.00  0.00     0.091 A 
HETATM   20  C   UNK N   1      22.268  14.748   7.035  0.00  0.00     0.041 A 
HETATM   21  C   UNK N   1      22.366  15.182   5.723  0.00  0.00     0.032 A 
BRANCH  19  22
HETATM   22  O   UNK N   1      21.238  14.910   9.189  0.00  0.00    -0.345 OA
BRANCH  22  23
HETATM   23  C   UNK N   1      21.042  13.555   9.372  0.00  0.00     0.214 C 
BRANCH  23  24
HETATM   24  C   UNK N   1      22.181  12.960  10.141  0.00  0.00    -0.031 A 
HETATM   25  C   UNK N   1      21.960  12.422  11.412  0.00  0.00     0.051 A 
HETATM   26  C   UNK N   1      23.030  11.916  12.157  0.00  0.00     0.117 A 
HETATM   27  F   UNK N   1      22.812  11.418  13.397  0.00  0.00    -0.206 F 
HETATM   28  C   UNK N   1      24.325  11.939  11.629  0.00  0.00     0.042 A 
HETATM   29  C   UNK N   1      24.550  12.468  10.354  0.00  0.00     0.004 A 
HETATM   30  C   UNK N   1      23.481  12.986   9.614  0.00  0.00     0.009 A 
ENDBRANCH  23  24
ENDBRANCH  22  23
ENDBRANCH  19  22
ENDBRANCH  13  15
ENDBRANCH  10  13
BRANCH   5  31
HETATM   31  C   UNK N   1      26.149  17.781   4.183  0.00  0.00     0.086 A 
HETATM   32  O   UNK N   1      27.345  18.261   4.410  0.00  0.00    -0.313 OA
HETATM   33  C   UNK N   1      28.148  17.323   4.756  0.00  0.00     0.071 A 
HETATM   34  C   UNK N   1      27.469  16.109   4.757  0.00  0.00     0.037 A 
HETATM   35  C   UNK N   1      26.151  16.414   4.386  0.00  0.00     0.040 A 
BRANCH  33  36
HETATM   36  C   UNK N   1      29.560  17.662   5.119  0.00  0.00     0.179 C 
BRANCH  36  37
HETATM   37  N   UNK N   1      30.412  17.796   3.965  0.00  0.00    -0.415 N 
HETATM   38  H   UNK N   1      30.125  18.028   3.015  0.00  0.00     0.153 HD
BRANCH  37  39
HETATM   39  C   UNK N   1      31.756  17.534   4.428  0.00  0.00     0.129 C 
BRANCH  39  40
HETATM   40  C   UNK N   1      31.671  17.107   5.868  0.00  0.00     0.159 C 
BRANCH  40  41
HETATM   41  S   UNK N   1      33.335  16.768   6.493  0.00  0.00     0.142 S 
HETATM   42  O   UNK N   1      34.257  17.998   6.442  0.00  0.00    -0.228 OA
HETATM   43  O   UNK N   1      33.780  16.291   5.112  0.00  0.00    -0.228 OA
HETATM   44  C   UNK N   1      34.133  15.365   7.313  0.00  0.00     0.161 C 
ENDBRANCH  40  41
ENDBRANCH  39  40
ENDBRANCH  37  39
ENDBRANCH  36  37
ENDBRANCH  33  36
ENDBRANCH   5  31
TORSDOF 11
ENDMDL
MODEL 3
REMARK VINA RESULT:      -8.0      4.170      8.484
REMARK  11 active torsions:
REMARK  status: ('A' for Active; 'I' for Inactive)
REMARK    1  A    between atoms: S_2  and  C_15 
REMARK    2  A    between atoms: O_7  and  C_33 
REMARK    3  A    between atoms: O_7  and  C_36 
REMARK    4  A    between atoms: N_8  and  C_14 
REMARK    5  A    between atoms: N_8  and  C_16 
REMARK    6  A    between atoms: N_9  and  C_26 
REMARK    7  A    between atoms: N_9  and  C_29 
REMARK    8  A    between atoms: C_14  and  C_15 
REMARK    9  A    between atoms: C_16  and  C_17 
REMARK   10  A    between atoms: C_18  and  C_19 
REMARK   11  A    between atoms: C_36  and  C_37 
ROOT
HETATM    1  N   UNK N   1      23.181  12.903  10.759  0.00  0.00    -0.352 N 
ATOM      2  HN  UNK N   1      22.812  12.863  11.710  1.00  0.00     0.166 HD
HETATM    3  N   UNK N   1      24.962  12.504   9.227  0.00  0.00    -0.338 N 
ATOM      4  HN  UNK N   1      25.902  12.154   9.040  1.00  0.00     0.168 HD
HETATM    5  C   UNK N   1      20.900  14.293   7.564  0.00  0.00    -0.001 A 
HETATM    6  C   UNK N   1      22.945  13.467   8.475  0.00  0.00     0.036 A 
HETATM    7  C   UNK N   1      22.203  13.903   7.441  0.00  0.00     0.031 A 
HETATM    8  C   UNK N   1      22.412  13.402   9.759  0.00  0.00     0.047 A 
HETATM    9  C   UNK N   1      20.301  14.278   8.842  0.00  0.00     0.016 A 
HETATM   10  C   UNK N   1      24.220  13.021   8.223  0.00  0.00     0.119 A 
HETATM   11  C   UNK N   1      21.075  13.837   9.956  0.00  0.00     0.031 A 
HETATM   12  C   UNK N   1      24.451  12.450  10.501  0.00  0.00     0.182 A 
ENDROOT
BRANCH  10  13
HETATM   13  N   UNK N   1      24.692  13.101   6.875  0.00  0.00    -0.342 N 
HETATM   14  H   UNK N   1      24.240  12.553   6.195  0.00  0.00     0.167 HD
BRANCH  13  15
HETATM   15  C   UNK N   1      25.763  13.916   6.462  0.00  0.00     0.035 A 
HETATM   16  C   UNK N   1      26.638  13.447   5.474  0.00  0.00     0.056 A 
HETATM   17  C   UNK N   1      27.653  14.275   4.984  0.00  0.00     0.069 A 
HETATM   18 Cl   UNK N   1      28.687  13.690   3.690  0.00  0.00    -0.081 Cl
HETATM   19  C   UNK N   1      27.773  15.587   5.472  0.00  0.00     0.091 A 
HETATM   20  C   UNK N   1      26.941  16.011   6.521  0.00  0.00     0.041 A 
HETATM   21  C   UNK N   1      25.952  15.179   7.019  0.00  0.00     0.032 A 
BRANCH  19  22
HETATM   22  O   UNK N   1      28.637  16.452   4.893  0.00  0.00    -0.345 OA
BRANCH  22  23
HETATM   23  C   UNK N   1      28.284  17.153   3.756  0.00  0.00     0.214 C 
BRANCH  23  24
HETATM   24  C   UNK N   1      27.518  18.387   4.118  0.00  0.00    -0.031 A 
HETATM   25  C   UNK N   1      28.116  19.376   4.904  0.00  0.00     0.051 A 
HETATM   26  C   UNK N   1      27.387  20.504   5.291  0.00  0.00     0.117 A 
HETATM   27  F   UNK N   1      27.965  21.446   6.072  0.00  0.00    -0.206 F 
HETATM   28  C   UNK N   1      26.056  20.652   4.887  0.00  0.00     0.042 A 
HETATM   29  C   UNK N   1      25.455  19.669   4.093  0.00  0.00     0.004 A 
HETATM   30  C   UNK N   1      26.182  18.534   3.715  0.00  0.00     0.009 A 
ENDBRANCH  23  24
ENDBRANCH  22  23
ENDBRANCH  19  22
ENDBRANCH  13  15
ENDBRANCH  10  13
BRANCH   5  31
HETATM   31  C   UNK N   1      20.296  14.543   6.257  0.00  0.00     0.086 A 
HETATM   32  O   UNK N   1      20.421  15.745   5.757  0.00  0.00    -0.313 OA
HETATM   33  C   UNK N   1      19.938  15.791   4.570  0.00  0.00     0.071 A 
HETATM   34  C   UNK N   1      19.433  14.541   4.227  0.00  0.00     0.037 A 
HETATM   35  C   UNK N   1      19.675  13.719   5.337  0.00  0.00     0.040 A 
BRANCH  33  36
HETATM   36  C   UNK N   1      20.031  17.064   3.788  0.00  0.00     0.179 C 
BRANCH  36  37
HETATM   37  N   UNK N   1      21.162  17.086   2.897  0.00  0.00    -0.415 N 
HETATM   38  H   UNK N   1      21.208  16.703   1.953  0.00  0.00     0.153 HD
BRANCH  37  39
HETATM   39  C   UNK N   1      22.222  17.761   3.613  0.00  0.00     0.129 C 
BRANCH  39  40
HETATM   40  C   UNK N   1      21.687  19.084   4.086  0.00  0.00     0.159 C 
BRANCH  40  41
HETATM   41  S   UNK N   1      21.678  20.255   2.706  0.00  0.00     0.142 S 
HETATM   42  O   UNK N   1      22.678  21.409   2.893  0.00  0.00    -0.228 OA
HETATM   43  O   UNK N   1      20.542  21.044   3.354  0.00  0.00    -0.228 OA
HETATM   44  C   UNK N   1      20.886  20.311   1.079  0.00  0.00     0.161 C 
ENDBRANCH  40  41
ENDBRANCH  39  40
ENDBRANCH  37  39
ENDBRANCH  36  37
ENDBRANCH  33  36
ENDBRANCH   5  31
TORSDOF 11
ENDMDL
MODEL 4
REMARK VINA RESULT:      -7.9      2.063      2.525
REMARK  11 active torsions:
REMARK  status: ('A' for Active; 'I' for Inactive)
REMARK    1  A    between atoms: S_2  and  C_15 
REMARK    2  A    between atoms: O_7  and  C_33 
REMARK    3  A    between atoms: O_7  and  C_36 
REMARK    4  A    between atoms: N_8  and  C_14 
REMARK    5  A    between atoms: N_8  and  C_16 
REMARK    6  A    between atoms: N_9  and  C_26 
REMARK    7  A    between atoms: N_9  and  C_29 
REMARK    8  A    between atoms: C_14  and  C_15 
REMARK    9  A    between atoms: C_16  and  C_17 
REMARK   10  A    between atoms: C_18  and  C_19 
REMARK   11  A    between atoms: C_36  and  C_37 
ROOT
HETATM    1  N   UNK N   1      20.184  19.511   2.208  0.00  0.00    -0.352 N 
ATOM      2  HN  UNK N   1      19.718  20.248   1.679  1.00  0.00     0.166 HD
HETATM    3  N   UNK N   1      20.140  17.334   3.176  0.00  0.00    -0.338 N 
ATOM      4  HN  UNK N   1      19.651  16.455   3.349  1.00  0.00     0.168 HD
HETATM    5  C   UNK N   1      24.110  19.898   3.545  0.00  0.00    -0.001 A 
HETATM    6  C   UNK N   1      22.057  18.690   3.396  0.00  0.00     0.036 A 
HETATM    7  C   UNK N   1      23.329  18.810   3.815  0.00  0.00     0.031 A 
HETATM    8  C   UNK N   1      21.450  19.702   2.657  0.00  0.00     0.047 A 
HETATM    9  C   UNK N   1      23.551  20.975   2.823  0.00  0.00     0.016 A 
HETATM   10  C   UNK N   1      21.391  17.516   3.653  0.00  0.00     0.119 A 
HETATM   11  C   UNK N   1      22.198  20.877   2.384  0.00  0.00     0.031 A 
HETATM   12  C   UNK N   1      19.527  18.332   2.460  0.00  0.00     0.182 A 
ENDROOT
BRANCH  10  13
HETATM   13  N   UNK N   1      22.087  16.515   4.401  0.00  0.00    -0.342 N 
HETATM   14  H   UNK N   1      23.031  16.347   4.182  0.00  0.00     0.167 HD
BRANCH  13  15
HETATM   15  C   UNK N   1      21.504  15.754   5.433  0.00  0.00     0.035 A 
HETATM   16  C   UNK N   1      21.519  14.356   5.344  0.00  0.00     0.056 A 
HETATM   17  C   UNK N   1      21.028  13.579   6.399  0.00  0.00     0.069 A 
HETATM   18 Cl   UNK N   1      21.131  11.829   6.296  0.00  0.00    -0.081 Cl
HETATM   19  C   UNK N   1      20.542  14.211   7.555  0.00  0.00     0.091 A 
HETATM   20  C   UNK N   1      20.455  15.613   7.592  0.00  0.00     0.041 A 
HETATM   21  C   UNK N   1      20.922  16.377   6.534  0.00  0.00     0.032 A 
BRANCH  19  22
HETATM   22  O   UNK N   1      20.219  13.479   8.647  0.00  0.00    -0.345 OA
BRANCH  22  23
HETATM   23  C   UNK N   1      20.616  13.876   9.909  0.00  0.00     0.214 C 
BRANCH  23  24
HETATM   24  C   UNK N   1      21.925  13.244  10.269  0.00  0.00    -0.031 A 
HETATM   25  C   UNK N   1      23.084  13.588   9.567  0.00  0.00     0.051 A 
HETATM   26  C   UNK N   1      24.298  12.960   9.863  0.00  0.00     0.117 A 
HETATM   27  F   UNK N   1      25.411  13.281   9.162  0.00  0.00    -0.206 F 
HETATM   28  C   UNK N   1      24.359  11.989  10.868  0.00  0.00     0.042 A 
HETATM   29  C   UNK N   1      23.204  11.648  11.579  0.00  0.00     0.004 A 
HETATM   30  C   UNK N   1      21.987  12.268  11.276  0.00  0.00     0.009 A 
ENDBRANCH  23  24
ENDBRANCH  22  23
ENDBRANCH  19  22
ENDBRANCH  13  15
ENDBRANCH  10  13
BRANCH   5  31
HETATM   31  C   UNK N   1      25.491  19.677   3.966  0.00  0.00     0.086 A 
HETATM   32  O   UNK N   1      25.690  18.877   4.981  0.00  0.00    -0.313 OA
HETATM   33  C   UNK N   1      26.944  18.695   5.172  0.00  0.00     0.071 A 
HETATM   34  C   UNK N   1      27.666  19.428   4.235  0.00  0.00     0.037 A 
HETATM   35  C   UNK N   1      26.707  20.069   3.438  0.00  0.00     0.040 A 
BRANCH  33  36
HETATM   36  C   UNK N   1      27.396  17.763   6.253  0.00  0.00     0.179 C 
BRANCH  36  37
HETATM   37  N   UNK N   1      28.428  16.860   5.810  0.00  0.00    -0.415 N 
HETATM   38  H   UNK N   1      29.407  17.085   5.637  0.00  0.00     0.153 HD
BRANCH  37  39
HETATM   39  C   UNK N   1      27.792  15.570   5.661  0.00  0.00     0.129 C 
BRANCH  39  40
HETATM   40  C   UNK N   1      27.725  15.259   4.191  0.00  0.00     0.159 C 
BRANCH  40  41
HETATM   41  S   UNK N   1      25.995  15.243   3.661  0.00  0.00     0.142 S 
HETATM   42  O   UNK N   1      25.016  15.598   4.794  0.00  0.00    -0.228 OA
HETATM   43  O   UNK N   1      25.896  13.747   3.951  0.00  0.00    -0.228 OA
HETATM   44  C   UNK N   1      25.144  15.064   2.072  0.00  0.00     0.161 C 
ENDBRANCH  40  41
ENDBRANCH  39  40
ENDBRANCH  37  39
ENDBRANCH  36  37
ENDBRANCH  33  36
ENDBRANCH   5  31
TORSDOF 11
ENDMDL
MODEL 5
REMARK VINA RESULT:      -7.8      2.765      3.804
REMARK  11 active torsions:
REMARK  status: ('A' for Active; 'I' for Inactive)
REMARK    1  A    between atoms: S_2  and  C_15 
REMARK    2  A    between atoms: O_7  and  C_33 
REMARK    3  A    between atoms: O_7  and  C_36 
REMARK    4  A    between atoms: N_8  and  C_14 
REMARK    5  A    between atoms: N_8  and  C_16 
REMARK    6  A    between atoms: N_9  and  C_26 
REMARK    7  A    between atoms: N_9  and  C_29 
REMARK    8  A    between atoms: C_14  and  C_15 
REMARK    9  A    between atoms: C_16  and  C_17 
REMARK   10  A    between atoms: C_18  and  C_19 
REMARK   11  A    between atoms: C_36  and  C_37 
ROOT
HETATM    1  N   UNK N   1      20.169  19.372   2.200  0.00  0.00    -0.352 N 
ATOM      2  HN  UNK N   1      19.680  20.163   1.779  1.00  0.00     0.166 HD
HETATM    3  N   UNK N   1      20.184  17.086   2.871  0.00  0.00    -0.338 N 
ATOM      4  HN  UNK N   1      19.716  16.181   2.932  1.00  0.00     0.168 HD
HETATM    5  C   UNK N   1      24.105  19.668   3.531  0.00  0.00    -0.001 A 
HETATM    6  C   UNK N   1      22.076  18.444   3.246  0.00  0.00     0.036 A 
HETATM    7  C   UNK N   1      23.351  18.537   3.663  0.00  0.00     0.031 A 
HETATM    8  C   UNK N   1      21.437  19.531   2.655  0.00  0.00     0.047 A 
HETATM    9  C   UNK N   1      23.513  20.818   2.964  0.00  0.00     0.016 A 
HETATM   10  C   UNK N   1      21.438  17.231   3.353  0.00  0.00     0.119 A 
HETATM   11  C   UNK N   1      22.156  20.749   2.532  0.00  0.00     0.031 A 
HETATM   12  C   UNK N   1      19.540  18.156   2.301  0.00  0.00     0.182 A 
ENDROOT
BRANCH  10  13
HETATM   13  N   UNK N   1      22.166  16.156   3.954  0.00  0.00    -0.342 N 
HETATM   14  H   UNK N   1      23.063  15.954   3.605  0.00  0.00     0.167 HD
BRANCH  13  15
HETATM   15  C   UNK N   1      21.677  15.369   5.014  0.00  0.00     0.035 A 
HETATM   16  C   UNK N   1      22.169  14.068   5.184  0.00  0.00     0.056 A 
HETATM   17  C   UNK N   1      21.765  13.302   6.281  0.00  0.00     0.069 A 
HETATM   18 Cl   UNK N   1      22.458  11.704   6.513  0.00  0.00    -0.081 Cl
HETATM   19  C   UNK N   1      20.882  13.854   7.224  0.00  0.00     0.091 A 
HETATM   20  C   UNK N   1      20.333  15.126   6.993  0.00  0.00     0.041 A 
HETATM   21  C   UNK N   1      20.719  15.873   5.891  0.00  0.00     0.032 A 
BRANCH  19  22
HETATM   22  O   UNK N   1      20.613  13.193   8.374  0.00  0.00    -0.345 OA
BRANCH  22  23
HETATM   23  C   UNK N   1      20.880  13.769   9.601  0.00  0.00     0.214 C 
BRANCH  23  24
HETATM   24  C   UNK N   1      22.035  13.082  10.262  0.00  0.00    -0.031 A 
HETATM   25  C   UNK N   1      21.859  12.452  11.498  0.00  0.00     0.051 A 
HETATM   26  C   UNK N   1      22.947  11.857  12.144  0.00  0.00     0.117 A 
HETATM   27  F   UNK N   1      22.775  11.269  13.351  0.00  0.00    -0.206 F 
HETATM   28  C   UNK N   1      24.215  11.884  11.554  0.00  0.00     0.042 A 
HETATM   29  C   UNK N   1      24.394  12.506  10.314  0.00  0.00     0.004 A 
HETATM   30  C   UNK N   1      23.307  13.112   9.672  0.00  0.00     0.009 A 
ENDBRANCH  23  24
ENDBRANCH  22  23
ENDBRANCH  19  22
ENDBRANCH  13  15
ENDBRANCH  10  13
BRANCH   5  31
HETATM   31  C   UNK N   1      25.496  19.425   3.902  0.00  0.00     0.086 A 
HETATM   32  O   UNK N   1      25.931  18.193   3.833  0.00  0.00    -0.313 OA
HETATM   33  C   UNK N   1      27.187  18.144   4.085  0.00  0.00     0.071 A 
HETATM   34  C   UNK N   1      27.654  19.425   4.361  0.00  0.00     0.037 A 
HETATM   35  C   UNK N   1      26.540  20.268   4.234  0.00  0.00     0.040 A 
BRANCH  33  36
HETATM   36  C   UNK N   1      27.902  16.832   4.002  0.00  0.00     0.179 C 
BRANCH  36  37
HETATM   37  N   UNK N   1      29.028  16.870   3.104  0.00  0.00    -0.415 N 
HETATM   38  H   UNK N   1      29.257  17.608   2.438  0.00  0.00     0.153 HD
BRANCH  37  39
HETATM   39  C   UNK N   1      29.766  15.649   3.335  0.00  0.00     0.129 C 
BRANCH  39  40
HETATM   40  C   UNK N   1      31.226  15.949   3.132  0.00  0.00     0.159 C 
BRANCH  40  41
HETATM   41  S   UNK N   1      31.924  16.602   4.669  0.00  0.00     0.142 S 
HETATM   42  O   UNK N   1      30.848  17.007   5.691  0.00  0.00    -0.228 OA
HETATM   43  O   UNK N   1      31.982  18.006   4.071  0.00  0.00    -0.228 OA
HETATM   44  C   UNK N   1      33.592  16.748   5.357  0.00  0.00     0.161 C 
ENDBRANCH  40  41
ENDBRANCH  39  40
ENDBRANCH  37  39
ENDBRANCH  36  37
ENDBRANCH  33  36
ENDBRANCH   5  31
TORSDOF 11
ENDMDL
MODEL 6
REMARK VINA RESULT:      -7.7      3.652      4.804
REMARK  11 active torsions:
REMARK  status: ('A' for Active; 'I' for Inactive)
REMARK    1  A    between atoms: S_2  and  C_15 
REMARK    2  A    between atoms: O_7  and  C_33 
REMARK    3  A    between atoms: O_7  and  C_36 
REMARK    4  A    between atoms: N_8  and  C_14 
REMARK    5  A    between atoms: N_8  and  C_16 
REMARK    6  A    between atoms: N_9  and  C_26 
REMARK    7  A    between atoms: N_9  and  C_29 
REMARK    8  A    between atoms: C_14  and  C_15 
REMARK    9  A    between atoms: C_16  and  C_17 
REMARK   10  A    between atoms: C_18  and  C_19 
REMARK   11  A    between atoms: C_36  and  C_37 
ROOT
HETATM    1  N   UNK N   1      21.322  19.768   2.683  0.00  0.00    -0.352 N 
ATOM      2  HN  UNK N   1      21.055  20.314   1.863  1.00  0.00     0.166 HD
HETATM    3  N   UNK N   1      20.725  18.267   4.436  0.00  0.00    -0.338 N 
ATOM      4  HN  UNK N   1      20.025  17.690   4.902  1.00  0.00     0.168 HD
HETATM    5  C   UNK N   1      25.238  19.677   4.096  0.00  0.00    -0.001 A 
HETATM    6  C   UNK N   1      22.937  19.068   4.262  0.00  0.00     0.036 A 
HETATM    7  C   UNK N   1      24.204  19.029   4.710  0.00  0.00     0.031 A 
HETATM    8  C   UNK N   1      22.602  19.804   3.128  0.00  0.00     0.047 A 
HETATM    9  C   UNK N   1      24.968  20.464   2.956  0.00  0.00     0.016 A 
HETATM   10  C   UNK N   1      21.990  18.310   4.909  0.00  0.00     0.119 A 
HETATM   11  C   UNK N   1      23.628  20.536   2.475  0.00  0.00     0.031 A 
HETATM   12  C   UNK N   1      20.382  19.002   3.327  0.00  0.00     0.182 A 
ENDROOT
BRANCH  10  13
HETATM   13  N   UNK N   1      22.413  17.566   6.055  0.00  0.00    -0.342 N 
HETATM   14  H   UNK N   1      23.070  17.981   6.658  0.00  0.00     0.167 HD
BRANCH  13  15
HETATM   15  C   UNK N   1      21.946  16.276   6.373  0.00  0.00     0.035 A 
HETATM   16  C   UNK N   1      22.106  15.242   5.443  0.00  0.00     0.056 A 
HETATM   17  C   UNK N   1      21.733  13.935   5.773  0.00  0.00     0.069 A 
HETATM   18 Cl   UNK N   1      22.016  12.643   4.617  0.00  0.00    -0.081 Cl
HETATM   19  C   UNK N   1      21.220  13.665   7.053  0.00  0.00     0.091 A 
HETATM   20  C   UNK N   1      20.988  14.727   7.942  0.00  0.00     0.041 A 
HETATM   21  C   UNK N   1      21.338  16.024   7.601  0.00  0.00     0.032 A 
BRANCH  19  22
HETATM   22  O   UNK N   1      21.012  12.387   7.447  0.00  0.00    -0.345 OA
BRANCH  22  23
HETATM   23  C   UNK N   1      22.061  11.492   7.536  0.00  0.00     0.214 C 
BRANCH  23  24
HETATM   24  C   UNK N   1      22.956  11.848   8.682  0.00  0.00    -0.031 A 
HETATM   25  C   UNK N   1      22.574  11.535   9.990  0.00  0.00     0.051 A 
HETATM   26  C   UNK N   1      23.381  11.913  11.068  0.00  0.00     0.117 A 
HETATM   27  F   UNK N   1      22.993  11.628  12.333  0.00  0.00    -0.206 F 
HETATM   28  C   UNK N   1      24.577  12.602  10.841  0.00  0.00     0.042 A 
HETATM   29  C   UNK N   1      24.968  12.910   9.534  0.00  0.00     0.004 A 
HETATM   30  C   UNK N   1      24.155  12.541   8.456  0.00  0.00     0.009 A 
ENDBRANCH  23  24
ENDBRANCH  22  23
ENDBRANCH  19  22
ENDBRANCH  13  15
ENDBRANCH  10  13
BRANCH   5  31
HETATM   31  C   UNK N   1      26.521  19.312   4.692  0.00  0.00     0.086 A 
HETATM   32  O   UNK N   1      26.724  19.652   5.938  0.00  0.00    -0.313 OA
HETATM   33  C   UNK N   1      27.840  19.179   6.358  0.00  0.00     0.071 A 
HETATM   34  C   UNK N   1      28.460  18.474   5.331  0.00  0.00     0.037 A 
HETATM   35  C   UNK N   1      27.587  18.558   4.237  0.00  0.00     0.040 A 
BRANCH  33  36
HETATM   36  C   UNK N   1      28.243  19.401   7.782  0.00  0.00     0.179 C 
BRANCH  36  37
HETATM   37  N   UNK N   1      27.695  18.411   8.674  0.00  0.00    -0.415 N 
HETATM   38  H   UNK N   1      26.713  18.273   8.909  0.00  0.00     0.153 HD
BRANCH  37  39
HETATM   39  C   UNK N   1      28.822  17.653   9.171  0.00  0.00     0.129 C 
BRANCH  39  40
HETATM   40  C   UNK N   1      30.038  18.535   9.095  0.00  0.00     0.159 C 
BRANCH  40  41
HETATM   41  S   UNK N   1      31.399  17.616   8.336  0.00  0.00     0.142 S 
HETATM   42  O   UNK N   1      31.017  16.983   6.987  0.00  0.00    -0.228 OA
HETATM   43  O   UNK N   1      31.014  16.359   9.113  0.00  0.00    -0.228 OA
HETATM   44  C   UNK N   1      33.158  17.393   8.707  0.00  0.00     0.161 C 
ENDBRANCH  40  41
ENDBRANCH  39  40
ENDBRANCH  37  39
ENDBRANCH  36  37
ENDBRANCH  33  36
ENDBRANCH   5  31
TORSDOF 11
ENDMDL
MODEL 7
REMARK VINA RESULT:      -7.5     11.153     15.384
REMARK  11 active torsions:
REMARK  status: ('A' for Active; 'I' for Inactive)
REMARK    1  A    between atoms: S_2  and  C_15 
REMARK    2  A    between atoms: O_7  and  C_33 
REMARK    3  A    between atoms: O_7  and  C_36 
REMARK    4  A    between atoms: N_8  and  C_14 
REMARK    5  A    between atoms: N_8  and  C_16 
REMARK    6  A    between atoms: N_9  and  C_26 
REMARK    7  A    between atoms: N_9  and  C_29 
REMARK    8  A    between atoms: C_14  and  C_15 
REMARK    9  A    between atoms: C_16  and  C_17 
REMARK   10  A    between atoms: C_18  and  C_19 
REMARK   11  A    between atoms: C_36  and  C_37 
ROOT
HETATM    1  N   UNK N   1      36.004  13.581  16.097  0.00  0.00    -0.352 N 
ATOM      2  HN  UNK N   1      35.834  13.573  17.104  1.00  0.00     0.166 HD
HETATM    3  N   UNK N   1      37.055  14.567  14.199  0.00  0.00    -0.338 N 
ATOM      4  HN  UNK N   1      37.674  15.274  13.802  1.00  0.00     0.168 HD
HETATM    5  C   UNK N   1      34.383  10.704  13.560  0.00  0.00    -0.001 A 
HETATM    6  C   UNK N   1      35.649  12.692  13.935  0.00  0.00     0.036 A 
HETATM    7  C   UNK N   1      35.136  11.755  13.118  0.00  0.00     0.031 A 
HETATM    8  C   UNK N   1      35.420  12.646  15.308  0.00  0.00     0.047 A 
HETATM    9  C   UNK N   1      34.088  10.608  14.937  0.00  0.00     0.016 A 
HETATM   10  C   UNK N   1      36.462  13.659  13.394  0.00  0.00     0.119 A 
HETATM   11  C   UNK N   1      34.606  11.601  15.819  0.00  0.00     0.031 A 
HETATM   12  C   UNK N   1      36.823  14.539  15.553  0.00  0.00     0.182 A 
ENDROOT
BRANCH  10  13
HETATM   13  N   UNK N   1      36.665  13.630  11.978  0.00  0.00    -0.342 N 
HETATM   14  H   UNK N   1      37.199  12.894  11.603  0.00  0.00     0.167 HD
BRANCH  13  15
HETATM   15  C   UNK N   1      36.149  14.591  11.088  0.00  0.00     0.035 A 
HETATM   16  C   UNK N   1      36.031  14.271   9.729  0.00  0.00     0.056 A 
HETATM   17  C   UNK N   1      35.438  15.176   8.843  0.00  0.00     0.069 A 
HETATM   18 Cl   UNK N   1      35.232  14.719   7.160  0.00  0.00    -0.081 Cl
HETATM   19  C   UNK N   1      34.938  16.395   9.330  0.00  0.00     0.091 A 
HETATM   20  C   UNK N   1      35.141  16.735  10.678  0.00  0.00     0.041 A 
HETATM   21  C   UNK N   1      35.750  15.844  11.547  0.00  0.00     0.032 A 
BRANCH  19  22
HETATM   22  O   UNK N   1      34.214  17.206   8.523  0.00  0.00    -0.345 OA
BRANCH  22  23
HETATM   23  C   UNK N   1      32.839  17.271   8.634  0.00  0.00     0.214 C 
BRANCH  23  24
HETATM   24  C   UNK N   1      32.204  17.268   7.278  0.00  0.00    -0.031 A 
HETATM   25  C   UNK N   1      32.996  17.414   6.135  0.00  0.00     0.051 A 
HETATM   26  C   UNK N   1      32.402  17.466   4.871  0.00  0.00     0.117 A 
HETATM   27  F   UNK N   1      33.173  17.631   3.770  0.00  0.00    -0.206 F 
HETATM   28  C   UNK N   1      31.012  17.366   4.743  0.00  0.00     0.042 A 
HETATM   29  C   UNK N   1      30.217  17.212   5.883  0.00  0.00     0.004 A 
HETATM   30  C   UNK N   1      30.810  17.171   7.150  0.00  0.00     0.009 A 
ENDBRANCH  23  24
ENDBRANCH  22  23
ENDBRANCH  19  22
ENDBRANCH  13  15
ENDBRANCH  10  13
BRANCH   5  31
HETATM   31  C   UNK N   1      34.117   9.753  12.483  0.00  0.00     0.086 A 
HETATM   32  O   UNK N   1      33.255  10.110  11.566  0.00  0.00    -0.313 OA
HETATM   33  C   UNK N   1      33.199   9.230  10.635  0.00  0.00     0.071 A 
HETATM   34  C   UNK N   1      34.070   8.186  10.931  0.00  0.00     0.037 A 
HETATM   35  C   UNK N   1      34.677   8.536  12.146  0.00  0.00     0.040 A 
BRANCH  33  36
HETATM   36  C   UNK N   1      32.314   9.468   9.451  0.00  0.00     0.179 C 
BRANCH  36  37
HETATM   37  N   UNK N   1      32.595  10.717   8.791  0.00  0.00    -0.415 N 
HETATM   38  H   UNK N   1      32.247  11.640   9.050  0.00  0.00     0.153 HD
BRANCH  37  39
HETATM   39  C   UNK N   1      33.469  10.397   7.685  0.00  0.00     0.129 C 
BRANCH  39  40
HETATM   40  C   UNK N   1      34.658  11.315   7.759  0.00  0.00     0.159 C 
BRANCH  40  41
HETATM   41  S   UNK N   1      36.036  10.449   8.552  0.00  0.00     0.142 S 
HETATM   42  O   UNK N   1      36.335  10.971   9.969  0.00  0.00    -0.228 OA
HETATM   43  O   UNK N   1      37.036  11.410   7.913  0.00  0.00    -0.228 OA
HETATM   44  C   UNK N   1      37.049   9.006   8.141  0.00  0.00     0.161 C 
ENDBRANCH  40  41
ENDBRANCH  39  40
ENDBRANCH  37  39
ENDBRANCH  36  37
ENDBRANCH  33  36
ENDBRANCH   5  31
TORSDOF 11
ENDMDL
MODEL 8
REMARK VINA RESULT:      -7.4      5.311      8.608
REMARK  11 active torsions:
REMARK  status: ('A' for Active; 'I' for Inactive)
REMARK    1  A    between atoms: S_2  and  C_15 
REMARK    2  A    between atoms: O_7  and  C_33 
REMARK    3  A    between atoms: O_7  and  C_36 
REMARK    4  A    between atoms: N_8  and  C_14 
REMARK    5  A    between atoms: N_8  and  C_16 
REMARK    6  A    between atoms: N_9  and  C_26 
REMARK    7  A    between atoms: N_9  and  C_29 
REMARK    8  A    between atoms: C_14  and  C_15 
REMARK    9  A    between atoms: C_16  and  C_17 
REMARK   10  A    between atoms: C_18  and  C_19 
REMARK   11  A    between atoms: C_36  and  C_37 
ROOT
HETATM    1  N   UNK N   1      29.858  18.242   9.725  0.00  0.00    -0.352 N 
ATOM      2  HN  UNK N   1      30.260  18.746  10.516  1.00  0.00     0.166 HD
HETATM    3  N   UNK N   1      27.965  17.264   8.658  0.00  0.00    -0.338 N 
ATOM      4  HN  UNK N   1      26.965  17.061   8.649  1.00  0.00     0.168 HD
HETATM    5  C   UNK N   1      32.145  17.129   6.426  0.00  0.00    -0.001 A 
HETATM    6  C   UNK N   1      30.087  17.158   7.635  0.00  0.00     0.036 A 
HETATM    7  C   UNK N   1      30.823  16.811   6.565  0.00  0.00     0.031 A 
HETATM    8  C   UNK N   1      30.654  17.865   8.692  0.00  0.00     0.047 A 
HETATM    9  C   UNK N   1      32.792  17.822   7.471  0.00  0.00     0.016 A 
HETATM   10  C   UNK N   1      28.746  16.860   7.633  0.00  0.00     0.119 A 
HETATM   11  C   UNK N   1      32.036  18.184   8.625  0.00  0.00     0.031 A 
HETATM   12  C   UNK N   1      28.517  17.949   9.713  0.00  0.00     0.182 A 
ENDROOT
BRANCH  10  13
HETATM   13  N   UNK N   1      28.232  16.148   6.503  0.00  0.00    -0.342 N 
HETATM   14  H   UNK N   1      28.777  15.420   6.129  0.00  0.00     0.167 HD
BRANCH  13  15
HETATM   15  C   UNK N   1      26.994  16.425   5.893  0.00  0.00     0.035 A 
HETATM   16  C   UNK N   1      26.895  17.505   5.006  0.00  0.00     0.056 A 
HETATM   17  C   UNK N   1      25.699  17.743   4.320  0.00  0.00     0.069 A 
HETATM   18 Cl   UNK N   1      25.626  19.056   3.155  0.00  0.00    -0.081 Cl
HETATM   19  C   UNK N   1      24.608  16.878   4.509  0.00  0.00     0.091 A 
HETATM   20  C   UNK N   1      24.698  15.853   5.465  0.00  0.00     0.041 A 
HETATM   21  C   UNK N   1      25.878  15.635   6.159  0.00  0.00     0.032 A 
BRANCH  19  22
HETATM   22  O   UNK N   1      23.506  16.993   3.733  0.00  0.00    -0.345 OA
BRANCH  22  23
HETATM   23  C   UNK N   1      22.255  17.154   4.297  0.00  0.00     0.214 C 
BRANCH  23  24
HETATM   24  C   UNK N   1      21.539  18.306   3.662  0.00  0.00    -0.031 A 
HETATM   25  C   UNK N   1      20.175  18.205   3.370  0.00  0.00     0.051 A 
HETATM   26  C   UNK N   1      19.514  19.257   2.728  0.00  0.00     0.117 A 
HETATM   27  F   UNK N   1      18.200  19.143   2.428  0.00  0.00    -0.206 F 
HETATM   28  C   UNK N   1      20.214  20.417   2.380  0.00  0.00     0.042 A 
HETATM   29  C   UNK N   1      21.577  20.526   2.676  0.00  0.00     0.004 A 
HETATM   30  C   UNK N   1      22.241  19.468   3.310  0.00  0.00     0.009 A 
ENDBRANCH  23  24
ENDBRANCH  22  23
ENDBRANCH  19  22
ENDBRANCH  13  15
ENDBRANCH  10  13
BRANCH   5  31
HETATM   31  C   UNK N   1      32.635  16.785   5.094  0.00  0.00     0.086 A 
HETATM   32  O   UNK N   1      33.008  15.548   4.890  0.00  0.00    -0.313 OA
HETATM   33  C   UNK N   1      33.314  15.367   3.659  0.00  0.00     0.071 A 
HETATM   34  C   UNK N   1      33.157  16.561   2.962  0.00  0.00     0.037 A 
HETATM   35  C   UNK N   1      32.704  17.492   3.908  0.00  0.00     0.040 A 
BRANCH  33  36
HETATM   36  C   UNK N   1      33.714  14.002   3.194  0.00  0.00     0.179 C 
BRANCH  36  37
HETATM   37  N   UNK N   1      32.750  12.991   3.547  0.00  0.00    -0.415 N 
HETATM   38  H   UNK N   1      32.851  12.268   4.258  0.00  0.00     0.153 HD
BRANCH  37  39
HETATM   39  C   UNK N   1      31.609  13.209   2.686  0.00  0.00     0.129 C 
BRANCH  39  40
HETATM   40  C   UNK N   1      30.391  12.686   3.397  0.00  0.00     0.159 C 
BRANCH  40  41
HETATM   41  S   UNK N   1      29.120  13.974   3.436  0.00  0.00     0.142 S 
HETATM   42  O   UNK N   1      29.687  15.366   3.763  0.00  0.00    -0.228 OA
HETATM   43  O   UNK N   1      28.828  13.672   4.905  0.00  0.00    -0.228 OA
HETATM   44  C   UNK N   1      27.357  14.047   3.027  0.00  0.00     0.161 C 
ENDBRANCH  40  41
ENDBRANCH  39  40
ENDBRANCH  37  39
ENDBRANCH  36  37
ENDBRANCH  33  36
ENDBRANCH   5  31
TORSDOF 11
ENDMDL
MODEL 9
REMARK VINA RESULT:      -7.3      4.973      8.160
REMARK  11 active torsions:
REMARK  status: ('A' for Active; 'I' for Inactive)
REMARK    1  A    between atoms: S_2  and  C_15 
REMARK    2  A    between atoms: O_7  and  C_33 
REMARK    3  A    between atoms: O_7  and  C_36 
REMARK    4  A    between atoms: N_8  and  C_14 
REMARK    5  A    between atoms: N_8  and  C_16 
REMARK    6  A    between atoms: N_9  and  C_26 
REMARK    7  A    between atoms: N_9  and  C_29 
REMARK    8  A    between atoms: C_14  and  C_15 
REMARK    9  A    between atoms: C_16  and  C_17 
REMARK   10  A    between atoms: C_18  and  C_19 
REMARK   11  A    between atoms: C_36  and  C_37 
ROOT
HETATM    1  N   UNK N   1      25.003  20.706   2.758  0.00  0.00    -0.352 N 
ATOM      2  HN  UNK N   1      24.729  21.395   2.056  1.00  0.00     0.166 HD
HETATM    3  N   UNK N   1      26.708  19.645   4.040  0.00  0.00    -0.338 N 
ATOM      4  HN  UNK N   1      27.690  19.561   4.303  1.00  0.00     0.168 HD
HETATM    5  C   UNK N   1      22.206  18.329   4.726  0.00  0.00    -0.001 A 
HETATM    6  C   UNK N   1      24.458  18.978   4.278  0.00  0.00     0.036 A 
HETATM    7  C   UNK N   1      23.553  18.221   4.923  0.00  0.00     0.031 A 
HETATM    8  C   UNK N   1      24.057  19.927   3.341  0.00  0.00     0.047 A 
HETATM    9  C   UNK N   1      21.729  19.252   3.771  0.00  0.00     0.016 A 
HETATM   10  C   UNK N   1      25.784  18.844   4.614  0.00  0.00     0.119 A 
HETATM   11  C   UNK N   1      22.671  20.053   3.062  0.00  0.00     0.031 A 
HETATM   12  C   UNK N   1      26.324  20.573   3.104  0.00  0.00     0.182 A 
ENDROOT
BRANCH  10  13
HETATM   13  N   UNK N   1      26.116  17.861   5.599  0.00  0.00    -0.342 N 
HETATM   14  H   UNK N   1      25.399  17.536   6.188  0.00  0.00     0.167 HD
BRANCH  13  15
HETATM   15  C   UNK N   1      27.408  17.331   5.779  0.00  0.00     0.035 A 
HETATM   16  C   UNK N   1      28.168  17.738   6.883  0.00  0.00     0.056 A 
HETATM   17  C   UNK N   1      29.416  17.157   7.131  0.00  0.00     0.069 A 
HETATM   18 Cl   UNK N   1      30.312  17.629   8.565  0.00  0.00    -0.081 Cl
HETATM   19  C   UNK N   1      29.890  16.146   6.278  0.00  0.00     0.091 A 
HETATM   20  C   UNK N   1      29.154  15.811   5.129  0.00  0.00     0.041 A 
HETATM   21  C   UNK N   1      27.929  16.406   4.876  0.00  0.00     0.032 A 
BRANCH  19  22
HETATM   22  O   UNK N   1      31.011  15.458   6.595  0.00  0.00    -0.345 OA
BRANCH  22  23
HETATM   23  C   UNK N   1      32.228  15.787   6.030  0.00  0.00     0.214 C 
BRANCH  23  24
HETATM   24  C   UNK N   1      33.136  16.391   7.057  0.00  0.00    -0.031 A 
HETATM   25  C   UNK N   1      33.549  15.632   8.157  0.00  0.00     0.051 A 
HETATM   26  C   UNK N   1      34.351  16.208   9.146  0.00  0.00     0.117 A 
HETATM   27  F   UNK N   1      34.728  15.475  10.220  0.00  0.00    -0.206 F 
HETATM   28  C   UNK N   1      34.751  17.544   9.036  0.00  0.00     0.042 A 
HETATM   29  C   UNK N   1      34.347  18.305   7.934  0.00  0.00     0.004 A 
HETATM   30  C   UNK N   1      33.534  17.732   6.949  0.00  0.00     0.009 A 
ENDBRANCH  23  24
ENDBRANCH  22  23
ENDBRANCH  19  22
ENDBRANCH  13  15
ENDBRANCH  10  13
BRANCH   5  31
HETATM   31  C   UNK N   1      21.463  17.516   5.686  0.00  0.00     0.086 A 
HETATM   32  O   UNK N   1      21.583  16.217   5.594  0.00  0.00    -0.313 OA
HETATM   33  C   UNK N   1      20.965  15.639   6.557  0.00  0.00     0.071 A 
HETATM   34  C   UNK N   1      20.364  16.599   7.365  0.00  0.00     0.037 A 
HETATM   35  C   UNK N   1      20.698  17.835   6.793  0.00  0.00     0.040 A 
BRANCH  33  36
HETATM   36  C   UNK N   1      21.022  14.148   6.676  0.00  0.00     0.179 C 
BRANCH  36  37
HETATM   37  N   UNK N   1      22.339  13.621   6.422  0.00  0.00    -0.415 N 
HETATM   38  H   UNK N   1      22.866  13.681   5.551  0.00  0.00     0.153 HD
BRANCH  37  39
HETATM   39  C   UNK N   1      22.760  12.988   7.652  0.00  0.00     0.129 C 
BRANCH  39  40
HETATM   40  C   UNK N   1      21.567  12.287   8.239  0.00  0.00     0.159 C 
BRANCH  40  41
HETATM   41  S   UNK N   1      21.550  12.532  10.032  0.00  0.00     0.142 S 
HETATM   42  O   UNK N   1      20.178  12.981  10.563  0.00  0.00    -0.228 OA
HETATM   43  O   UNK N   1      22.032  13.971   9.863  0.00  0.00    -0.228 OA
HETATM   44  C   UNK N   1      22.722  12.222  11.378  0.00  0.00     0.161 C 
ENDBRANCH  40  41
ENDBRANCH  39  40
ENDBRANCH  37  39
ENDBRANCH  36  37
ENDBRANCH  33  36
ENDBRANCH   5  31
TORSDOF 11
ENDMDL
