MODEL 1
REMARK VINA RESULT:      -8.1      0.000      0.000
REMARK  4 active torsions:
REMARK  status: ('A' for Active; 'I' for Inactive)
REMARK    1  A    between atoms: C_15  and  O_3 
REMARK    2  A    between atoms: O_5  and  C_25 
REMARK    3  A    between atoms: C_10  and  C_21 
REMARK    4  A    between atoms: C_21  and  C_25 
ROOT
HETATM    1  O   UNK N   1      26.931  26.463  -5.978  0.00  0.00    -0.334 OA
HETATM    2  O   UNK N   1      25.241  24.913  -6.248  0.00  0.00    -0.347 OA
HETATM    3  O   UNK N   1      34.430  19.022  -4.646  0.00  0.00    -0.289 OA
HETATM    4  C   UNK N   1      28.429  24.910  -4.869  0.00  0.00     0.004 C 
HETATM    5  C   UNK N   1      28.258  23.712  -5.822  0.00  0.00     0.004 C 
HETATM    6  C   UNK N   1      29.202  22.497  -5.545  0.00  0.00    -0.001 C 
HETATM    7  C   UNK N   1      27.035  25.600  -4.876  0.00  0.00     0.160 C 
HETATM    8  C   UNK N   1      30.520  22.918  -4.861  0.00  0.00     0.035 C 
HETATM    9  C   UNK N   1      26.028  24.487  -5.175  0.00  0.00     0.168 C 
HETATM   10  C   UNK N   1      26.821  23.262  -5.605  0.00  0.00     0.041 C 
HETATM   11  C   UNK N   1      28.836  24.380  -3.488  0.00  0.00     0.045 C 
HETATM   12  C   UNK N   1      30.198  23.660  -3.528  0.00  0.00     0.124 C 
HETATM   13  C   UNK N   1      31.400  21.669  -4.564  0.00  0.00     0.004 C 
HETATM   14  C   UNK N   1      29.475  21.783  -6.874  0.00  0.00     0.010 C 
HETATM   15  C   UNK N   1      29.520  25.882  -5.342  0.00  0.00     0.019 C 
HETATM   16  C   UNK N   1      30.496  20.642  -6.824  0.00  0.00     0.036 C 
HETATM   17  C   UNK N   1      25.677  26.209  -6.560  0.00  0.00     0.159 C 
HETATM   18  C   UNK N   1      31.590  20.794  -5.802  0.00  0.00    -0.064 C 
HETATM   19  C   UNK N   1      30.708  20.781  -3.521  0.00  0.00     0.025 C 
HETATM   20  C   UNK N   1      32.742  22.043  -3.957  0.00  0.00    -0.009 C 
HETATM   21  C   UNK N   1      24.653  27.221  -6.071  0.00  0.00     0.078 C 
HETATM   22  C   UNK N   1      25.817  26.340  -8.064  0.00  0.00     0.078 C 
HETATM   23  C   UNK N   1      32.580  19.882  -5.807  0.00  0.00     0.058 C 
HETATM   24  C   UNK N   1      33.751  21.157  -3.950  0.00  0.00     0.052 C 
HETATM   25  C   UNK N   1      33.629  19.931  -4.765  0.00  0.00     0.171 C 
ENDROOT
BRANCH   7  26
HETATM   26  C   UNK N   1      26.792  26.409  -3.603  0.00  0.00     0.188 C 
HETATM   27  O   UNK N   1      26.185  25.895  -2.675  0.00  0.00    -0.292 OA
BRANCH  26  28
HETATM   28  C   UNK N   1      27.214  27.843  -3.483  0.00  0.00     0.245 C 
BRANCH  28  29
HETATM   29  O   UNK N   1      26.163  28.619  -2.998  0.00  0.00    -0.393 OA
HETATM   30  H   UNK N   1      25.440  28.881  -3.589  0.00  0.00     0.209 HD
ENDBRANCH  28  29
ENDBRANCH  26  28
ENDBRANCH   7  26
BRANCH  12  31
HETATM   31  O   UNK N   1      31.237  24.529  -3.182  0.00  0.00    -0.395 OA
HETATM   32  H   UNK N   1      31.728  25.258  -3.592  0.00  0.00     0.210 HD
ENDBRANCH  12  31
TORSDOF 4
ENDMDL
MODEL 2
REMARK VINA RESULT:      -8.1     12.188     16.320
REMARK  4 active torsions:
REMARK  status: ('A' for Active; 'I' for Inactive)
REMARK    1  A    between atoms: C_15  and  O_3 
REMARK    2  A    between atoms: O_5  and  C_25 
REMARK    3  A    between atoms: C_10  and  C_21 
REMARK    4  A    between atoms: C_21  and  C_25 
ROOT
HETATM    1  O   UNK N   1      35.034  15.807   8.363  0.00  0.00    -0.334 OA
HETATM    2  O   UNK N   1      34.092  14.649  10.125  0.00  0.00    -0.347 OA
HETATM    3  O   UNK N   1      25.770  20.139   5.400  0.00  0.00    -0.289 OA
HETATM    4  C   UNK N   1      32.929  16.109   7.194  0.00  0.00     0.004 C 
HETATM    5  C   UNK N   1      32.068  16.556   8.392  0.00  0.00     0.004 C 
HETATM    6  C   UNK N   1      30.616  17.014   8.037  0.00  0.00    -0.001 C 
HETATM    7  C   UNK N   1      33.948  15.109   7.814  0.00  0.00     0.160 C 
HETATM    8  C   UNK N   1      30.507  17.562   6.598  0.00  0.00     0.035 C 
HETATM    9  C   UNK N   1      33.239  14.501   9.027  0.00  0.00     0.168 C 
HETATM   10  C   UNK N   1      31.980  15.317   9.272  0.00  0.00     0.041 C 
HETATM   11  C   UNK N   1      32.011  15.467   6.146  0.00  0.00     0.045 C 
HETATM   12  C   UNK N   1      30.984  16.473   5.591  0.00  0.00     0.124 C 
HETATM   13  C   UNK N   1      29.036  17.959   6.280  0.00  0.00     0.004 C 
HETATM   14  C   UNK N   1      30.177  18.066   9.063  0.00  0.00     0.010 C 
HETATM   15  C   UNK N   1      33.658  17.284   6.528  0.00  0.00     0.019 C 
HETATM   16  C   UNK N   1      28.826  18.736   8.797  0.00  0.00     0.036 C 
HETATM   17  C   UNK N   1      35.261  15.247   9.632  0.00  0.00     0.159 C 
HETATM   18  C   UNK N   1      28.446  18.880   7.347  0.00  0.00    -0.064 C 
HETATM   19  C   UNK N   1      28.150  16.706   6.268  0.00  0.00     0.025 C 
HETATM   20  C   UNK N   1      28.892  18.574   4.898  0.00  0.00    -0.009 C 
HETATM   21  C   UNK N   1      36.370  14.209   9.561  0.00  0.00     0.078 C 
HETATM   22  C   UNK N   1      35.688  16.357  10.572  0.00  0.00     0.078 C 
HETATM   23  C   UNK N   1      27.330  19.575   7.061  0.00  0.00     0.058 C 
HETATM   24  C   UNK N   1      27.792  19.277   4.582  0.00  0.00     0.052 C 
HETATM   25  C   UNK N   1      26.862  19.667   5.661  0.00  0.00     0.171 C 
ENDROOT
BRANCH   7  26
HETATM   26  C   UNK N   1      34.481  14.122   6.777  0.00  0.00     0.188 C 
HETATM   27  O   UNK N   1      34.258  12.928   6.917  0.00  0.00    -0.292 OA
BRANCH  26  28
HETATM   28  C   UNK N   1      35.334  14.565   5.626  0.00  0.00     0.245 C 
BRANCH  28  29
HETATM   29  O   UNK N   1      36.599  14.938   6.075  0.00  0.00    -0.393 OA
HETATM   30  H   UNK N   1      36.921  14.624   6.934  0.00  0.00     0.209 HD
ENDBRANCH  28  29
ENDBRANCH  26  28
ENDBRANCH   7  26
BRANCH  12  31
HETATM   31  O   UNK N   1      31.445  17.061   4.408  0.00  0.00    -0.395 OA
HETATM   32  H   UNK N   1      31.226  17.829   3.857  0.00  0.00     0.210 HD
ENDBRANCH  12  31
TORSDOF 4
ENDMDL
MODEL 3
REMARK VINA RESULT:      -7.7     15.500     19.513
REMARK  4 active torsions:
REMARK  status: ('A' for Active; 'I' for Inactive)
REMARK    1  A    between atoms: C_15  and  O_3 
REMARK    2  A    between atoms: O_5  and  C_25 
REMARK    3  A    between atoms: C_10  and  C_21 
REMARK    4  A    between atoms: C_21  and  C_25 
ROOT
HETATM    1  O   UNK N   1      36.135  11.605  11.551  0.00  0.00    -0.334 OA
HETATM    2  O   UNK N   1      38.286  12.366  11.196  0.00  0.00    -0.347 OA
HETATM    3  O   UNK N   1      31.954  17.966   4.107  0.00  0.00    -0.289 OA
HETATM    4  C   UNK N   1      35.084  13.542  10.538  0.00  0.00     0.004 C 
HETATM    5  C   UNK N   1      35.959  13.637   9.273  0.00  0.00     0.004 C 
HETATM    6  C   UNK N   1      35.506  14.707   8.226  0.00  0.00    -0.001 C 
HETATM    7  C   UNK N   1      36.054  13.003  11.628  0.00  0.00     0.160 C 
HETATM    8  C   UNK N   1      33.991  14.992   8.292  0.00  0.00     0.035 C 
HETATM    9  C   UNK N   1      37.447  13.483  11.211  0.00  0.00     0.168 C 
HETATM   10  C   UNK N   1      37.333  14.029   9.796  0.00  0.00     0.041 C 
HETATM   11  C   UNK N   1      34.531  14.938  10.854  0.00  0.00     0.045 C 
HETATM   12  C   UNK N   1      33.614  15.460   9.730  0.00  0.00     0.124 C 
HETATM   13  C   UNK N   1      33.602  16.095   7.265  0.00  0.00     0.004 C 
HETATM   14  C   UNK N   1      35.915  14.220   6.830  0.00  0.00     0.010 C 
HETATM   15  C   UNK N   1      33.892  12.592  10.353  0.00  0.00     0.019 C 
HETATM   16  C   UNK N   1      35.431  15.075   5.655  0.00  0.00     0.036 C 
HETATM   17  C   UNK N   1      37.502  11.284  11.624  0.00  0.00     0.159 C 
HETATM   18  C   UNK N   1      34.118  15.780   5.862  0.00  0.00    -0.064 C 
HETATM   19  C   UNK N   1      34.248  17.429   7.664  0.00  0.00     0.025 C 
HETATM   20  C   UNK N   1      32.105  16.357   7.244  0.00  0.00    -0.009 C 
HETATM   21  C   UNK N   1      37.883  10.913  13.048  0.00  0.00     0.078 C 
HETATM   22  C   UNK N   1      37.759  10.094  10.721  0.00  0.00     0.078 C 
HETATM   23  C   UNK N   1      33.591  16.440   4.814  0.00  0.00     0.058 C 
HETATM   24  C   UNK N   1      31.548  17.009   6.209  0.00  0.00     0.052 C 
HETATM   25  C   UNK N   1      32.351  17.226   4.989  0.00  0.00     0.171 C 
ENDROOT
BRANCH   7  26
HETATM   26  C   UNK N   1      35.600  13.386  13.035  0.00  0.00     0.188 C 
HETATM   27  O   UNK N   1      34.605  12.856  13.507  0.00  0.00    -0.292 OA
BRANCH  26  28
HETATM   28  C   UNK N   1      36.296  14.449  13.831  0.00  0.00     0.245 C 
BRANCH  28  29
HETATM   29  O   UNK N   1      37.122  13.871  14.793  0.00  0.00    -0.393 OA
HETATM   30  H   UNK N   1      37.099  14.190  15.709  0.00  0.00     0.209 HD
ENDBRANCH  28  29
ENDBRANCH  26  28
ENDBRANCH   7  26
BRANCH  12  31
HETATM   31  O   UNK N   1      32.272  15.181  10.006  0.00  0.00    -0.395 OA
HETATM   32  H   UNK N   1      31.744  14.873  10.759  0.00  0.00     0.210 HD
ENDBRANCH  12  31
TORSDOF 4
ENDMDL
MODEL 4
REMARK VINA RESULT:      -7.5     10.883     14.849
REMARK  4 active torsions:
REMARK  status: ('A' for Active; 'I' for Inactive)
REMARK    1  A    between atoms: C_15  and  O_3 
REMARK    2  A    between atoms: O_5  and  C_25 
REMARK    3  A    between atoms: C_10  and  C_21 
REMARK    4  A    between atoms: C_21  and  C_25 
ROOT
HETATM    1  O   UNK N   1      33.428  16.560   6.833  0.00  0.00    -0.334 OA
HETATM    2  O   UNK N   1      32.696  16.072   8.968  0.00  0.00    -0.347 OA
HETATM    3  O   UNK N   1      24.013  20.500   3.800  0.00  0.00    -0.289 OA
HETATM    4  C   UNK N   1      31.194  16.656   5.890  0.00  0.00     0.004 C 
HETATM    5  C   UNK N   1      30.525  17.513   6.982  0.00  0.00     0.004 C 
HETATM    6  C   UNK N   1      29.056  17.954   6.679  0.00  0.00    -0.001 C 
HETATM    7  C   UNK N   1      32.251  15.816   6.664  0.00  0.00     0.160 C 
HETATM    8  C   UNK N   1      28.769  18.046   5.165  0.00  0.00     0.035 C 
HETATM    9  C   UNK N   1      31.695  15.665   8.082  0.00  0.00     0.168 C 
HETATM   10  C   UNK N   1      30.513  16.613   8.209  0.00  0.00     0.041 C 
HETATM   11  C   UNK N   1      30.116  15.801   5.213  0.00  0.00     0.045 C 
HETATM   12  C   UNK N   1      29.061  16.667   4.498  0.00  0.00     0.124 C 
HETATM   13  C   UNK N   1      27.284  18.441   4.918  0.00  0.00     0.004 C 
HETATM   14  C   UNK N   1      28.804  19.300   7.369  0.00  0.00     0.010 C 
HETATM   15  C   UNK N   1      31.868  17.512   4.808  0.00  0.00     0.019 C 
HETATM   16  C   UNK N   1      27.455  19.962   7.072  0.00  0.00     0.036 C 
HETATM   17  C   UNK N   1      33.808  16.397   8.177  0.00  0.00     0.159 C 
HETATM   18  C   UNK N   1      26.884  19.687   5.707  0.00  0.00    -0.064 C 
HETATM   19  C   UNK N   1      26.359  17.318   5.405  0.00  0.00     0.025 C 
HETATM   20  C   UNK N   1      26.974  18.615   3.441  0.00  0.00    -0.009 C 
HETATM   21  C   UNK N   1      34.856  15.303   8.301  0.00  0.00     0.078 C 
HETATM   22  C   UNK N   1      34.402  17.704   8.664  0.00  0.00     0.078 C 
HETATM   23  C   UNK N   1      25.765  20.348   5.353  0.00  0.00     0.058 C 
HETATM   24  C   UNK N   1      25.868  19.273   3.056  0.00  0.00     0.052 C 
HETATM   25  C   UNK N   1      25.111  20.045   4.061  0.00  0.00     0.171 C 
ENDROOT
BRANCH   7  26
HETATM   26  C   UNK N   1      32.597  14.521   5.931  0.00  0.00     0.188 C 
HETATM   27  O   UNK N   1      32.278  13.450   6.427  0.00  0.00    -0.292 OA
BRANCH  26  28
HETATM   28  C   UNK N   1      33.383  14.519   4.654  0.00  0.00     0.245 C 
BRANCH  28  29
HETATM   29  O   UNK N   1      34.615  15.142   4.842  0.00  0.00    -0.393 OA
HETATM   30  H   UNK N   1      34.835  15.534   5.701  0.00  0.00     0.209 HD
ENDBRANCH  28  29
ENDBRANCH  26  28
ENDBRANCH   7  26
BRANCH  12  31
HETATM   31  O   UNK N   1      29.375  16.828   3.146  0.00  0.00    -0.395 OA
HETATM   32  H   UNK N   1      29.706  16.281   2.417  0.00  0.00     0.210 HD
ENDBRANCH  12  31
TORSDOF 4
ENDMDL
MODEL 5
REMARK VINA RESULT:      -7.2     13.567     17.830
REMARK  4 active torsions:
REMARK  status: ('A' for Active; 'I' for Inactive)
REMARK    1  A    between atoms: C_15  and  O_3 
REMARK    2  A    between atoms: O_5  and  C_25 
REMARK    3  A    between atoms: C_10  and  C_21 
REMARK    4  A    between atoms: C_21  and  C_25 
ROOT
HETATM    1  O   UNK N   1      35.729  12.061   7.591  0.00  0.00    -0.334 OA
HETATM    2  O   UNK N   1      36.853  13.254   5.964  0.00  0.00    -0.347 OA
HETATM    3  O   UNK N   1      27.797  19.136   8.222  0.00  0.00    -0.289 OA
HETATM    4  C   UNK N   1      34.426  13.963   8.347  0.00  0.00     0.004 C 
HETATM    5  C   UNK N   1      33.997  14.504   6.969  0.00  0.00     0.004 C 
HETATM    6  C   UNK N   1      32.979  15.690   7.005  0.00  0.00    -0.001 C 
HETATM    7  C   UNK N   1      35.841  13.366   8.093  0.00  0.00     0.160 C 
HETATM    8  C   UNK N   1      32.105  15.678   8.277  0.00  0.00     0.035 C 
HETATM    9  C   UNK N   1      36.422  14.170   6.928  0.00  0.00     0.168 C 
HETATM   10  C   UNK N   1      35.292  15.001   6.342  0.00  0.00     0.041 C 
HETATM   11  C   UNK N   1      34.429  15.125   9.348  0.00  0.00     0.045 C 
HETATM   12  C   UNK N   1      33.021  15.723   9.536  0.00  0.00     0.124 C 
HETATM   13  C   UNK N   1      31.144  16.903   8.285  0.00  0.00     0.004 C 
HETATM   14  C   UNK N   1      32.114  15.623   5.740  0.00  0.00     0.010 C 
HETATM   15  C   UNK N   1      33.468  12.886   8.875  0.00  0.00     0.019 C 
HETATM   16  C   UNK N   1      30.962  16.628   5.664  0.00  0.00     0.036 C 
HETATM   17  C   UNK N   1      36.616  11.980   6.503  0.00  0.00     0.159 C 
HETATM   18  C   UNK N   1      30.353  17.021   6.983  0.00  0.00    -0.064 C 
HETATM   19  C   UNK N   1      31.956  18.200   8.405  0.00  0.00     0.025 C 
HETATM   20  C   UNK N   1      30.211  16.893   9.485  0.00  0.00    -0.009 C 
HETATM   21  C   UNK N   1      37.934  11.361   6.940  0.00  0.00     0.078 C 
HETATM   22  C   UNK N   1      35.988  11.099   5.442  0.00  0.00     0.078 C 
HETATM   23  C   UNK N   1      29.258  17.803   6.958  0.00  0.00     0.058 C 
HETATM   24  C   UNK N   1      29.107  17.658   9.488  0.00  0.00     0.052 C 
HETATM   25  C   UNK N   1      28.676  18.293   8.226  0.00  0.00     0.171 C 
ENDROOT
BRANCH   7  26
HETATM   26  C   UNK N   1      36.678  13.323   9.370  0.00  0.00     0.188 C 
HETATM   27  O   UNK N   1      36.317  12.616  10.300  0.00  0.00    -0.292 OA
BRANCH  26  28
HETATM   28  C   UNK N   1      37.897  14.179   9.548  0.00  0.00     0.245 C 
BRANCH  28  29
HETATM   29  O   UNK N   1      37.640  15.206  10.455  0.00  0.00    -0.393 OA
HETATM   30  H   UNK N   1      37.713  15.041  11.407  0.00  0.00     0.209 HD
ENDBRANCH  28  29
ENDBRANCH  26  28
ENDBRANCH   7  26
BRANCH  12  31
HETATM   31  O   UNK N   1      32.376  15.154  10.638  0.00  0.00    -0.395 OA
HETATM   32  H   UNK N   1      32.213  14.266  10.993  0.00  0.00     0.210 HD
ENDBRANCH  12  31
TORSDOF 4
ENDMDL
MODEL 6
REMARK VINA RESULT:      -7.1     16.641     19.640
REMARK  4 active torsions:
REMARK  status: ('A' for Active; 'I' for Inactive)
REMARK    1  A    between atoms: C_15  and  O_3 
REMARK    2  A    between atoms: O_5  and  C_25 
REMARK    3  A    between atoms: C_10  and  C_21 
REMARK    4  A    between atoms: C_21  and  C_25 
ROOT
HETATM    1  O   UNK N   1      34.797  15.136   7.158  0.00  0.00    -0.334 OA
HETATM    2  O   UNK N   1      32.978  13.794   6.686  0.00  0.00    -0.347 OA
HETATM    3  O   UNK N   1      37.338   9.719  15.965  0.00  0.00    -0.289 OA
HETATM    4  C   UNK N   1      34.889  14.506   9.499  0.00  0.00     0.004 C 
HETATM    5  C   UNK N   1      34.736  12.982   9.328  0.00  0.00     0.004 C 
HETATM    6  C   UNK N   1      34.899  12.144  10.637  0.00  0.00    -0.001 C 
HETATM    7  C   UNK N   1      34.041  15.103   8.339  0.00  0.00     0.160 C 
HETATM    8  C   UNK N   1      35.798  12.844  11.678  0.00  0.00     0.035 C 
HETATM    9  C   UNK N   1      32.948  14.069   8.056  0.00  0.00     0.168 C 
HETATM   10  C   UNK N   1      33.314  12.804   8.817  0.00  0.00     0.041 C 
HETATM   11  C   UNK N   1      34.373  14.895  10.890  0.00  0.00     0.045 C 
HETATM   12  C   UNK N   1      35.207  14.247  12.013  0.00  0.00     0.124 C 
HETATM   13  C   UNK N   1      35.888  11.992  12.977  0.00  0.00     0.004 C 
HETATM   14  C   UNK N   1      35.460  10.766  10.263  0.00  0.00     0.010 C 
HETATM   15  C   UNK N   1      36.352  14.961   9.392  0.00  0.00     0.019 C 
HETATM   16  C   UNK N   1      35.818   9.848  11.435  0.00  0.00     0.036 C 
HETATM   17  C   UNK N   1      33.967  14.629   6.143  0.00  0.00     0.159 C 
HETATM   18  C   UNK N   1      36.279  10.544  12.688  0.00  0.00    -0.064 C 
HETATM   19  C   UNK N   1      34.512  11.931  13.656  0.00  0.00     0.025 C 
HETATM   20  C   UNK N   1      36.823  12.608  14.005  0.00  0.00    -0.009 C 
HETATM   21  C   UNK N   1      33.307  15.767   5.381  0.00  0.00     0.078 C 
HETATM   22  C   UNK N   1      34.824  13.827   5.185  0.00  0.00     0.078 C 
HETATM   23  C   UNK N   1      36.724   9.776  13.700  0.00  0.00     0.058 C 
HETATM   24  C   UNK N   1      37.288  11.867  15.025  0.00  0.00     0.052 C 
HETATM   25  C   UNK N   1      37.100  10.403  14.986  0.00  0.00     0.171 C 
ENDROOT
BRANCH   7  26
HETATM   26  C   UNK N   1      33.566  16.521   8.651  0.00  0.00     0.188 C 
HETATM   27  O   UNK N   1      32.377  16.724   8.849  0.00  0.00    -0.292 OA
BRANCH  26  28
HETATM   28  C   UNK N   1      34.506  17.689   8.650  0.00  0.00     0.245 C 
BRANCH  28  29
HETATM   29  O   UNK N   1      34.638  18.206   7.363  0.00  0.00    -0.393 OA
HETATM   30  H   UNK N   1      35.496  18.174   6.912  0.00  0.00     0.209 HD
ENDBRANCH  28  29
ENDBRANCH  26  28
ENDBRANCH   7  26
BRANCH  12  31
HETATM   31  O   UNK N   1      36.209  15.113  12.459  0.00  0.00    -0.395 OA
HETATM   32  H   UNK N   1      37.074  15.045  12.893  0.00  0.00     0.210 HD
ENDBRANCH  12  31
TORSDOF 4
ENDMDL
MODEL 7
REMARK VINA RESULT:      -7.0     18.623     21.838
REMARK  4 active torsions:
REMARK  status: ('A' for Active; 'I' for Inactive)
REMARK    1  A    between atoms: C_15  and  O_3 
REMARK    2  A    between atoms: O_5  and  C_25 
REMARK    3  A    between atoms: C_10  and  C_21 
REMARK    4  A    between atoms: C_21  and  C_25 
ROOT
HETATM    1  O   UNK N   1      36.642  13.721   8.767  0.00  0.00    -0.334 OA
HETATM    2  O   UNK N   1      34.707  12.839   7.866  0.00  0.00    -0.347 OA
HETATM    3  O   UNK N   1      35.695   8.240  17.846  0.00  0.00    -0.289 OA
HETATM    4  C   UNK N   1      36.040  13.190  11.056  0.00  0.00     0.004 C 
HETATM    5  C   UNK N   1      35.561  11.743  10.833  0.00  0.00     0.004 C 
HETATM    6  C   UNK N   1      35.209  10.947  12.132  0.00  0.00    -0.001 C 
HETATM    7  C   UNK N   1      35.652  13.923   9.739  0.00  0.00     0.160 C 
HETATM    8  C   UNK N   1      35.990  11.455  13.363  0.00  0.00     0.035 C 
HETATM    9  C   UNK N   1      34.433  13.172   9.196  0.00  0.00     0.168 C 
HETATM   10  C   UNK N   1      34.294  11.891  10.003  0.00  0.00     0.041 C 
HETATM   11  C   UNK N   1      35.330  13.753  12.294  0.00  0.00     0.045 C 
HETATM   12  C   UNK N   1      35.700  12.972  13.571  0.00  0.00     0.124 C 
HETATM   13  C   UNK N   1      35.569  10.664  14.635  0.00  0.00     0.004 C 
HETATM   14  C   UNK N   1      35.486   9.461  11.879  0.00  0.00     0.010 C 
HETATM   15  C   UNK N   1      37.553  13.274  11.299  0.00  0.00     0.019 C 
HETATM   16  C   UNK N   1      35.330   8.535  13.089  0.00  0.00     0.036 C 
HETATM   17  C   UNK N   1      35.968  13.386   7.580  0.00  0.00     0.159 C 
HETATM   18  C   UNK N   1      35.648   9.153  14.424  0.00  0.00    -0.064 C 
HETATM   19  C   UNK N   1      34.102  10.966  14.975  0.00  0.00     0.025 C 
HETATM   20  C   UNK N   1      36.366  11.080  15.861  0.00  0.00    -0.009 C 
HETATM   21  C   UNK N   1      35.799  14.615   6.701  0.00  0.00     0.078 C 
HETATM   22  C   UNK N   1      36.798  12.360   6.835  0.00  0.00     0.078 C 
HETATM   23  C   UNK N   1      35.648   8.345  15.501  0.00  0.00     0.058 C 
HETATM   24  C   UNK N   1      36.389  10.294  16.950  0.00  0.00     0.052 C 
HETATM   25  C   UNK N   1      35.862   8.918  16.848  0.00  0.00     0.171 C 
ENDROOT
BRANCH   7  26
HETATM   26  C   UNK N   1      35.481  15.426   9.952  0.00  0.00     0.188 C 
HETATM   27  O   UNK N   1      36.416  16.078  10.392  0.00  0.00    -0.292 OA
BRANCH  26  28
HETATM   28  C   UNK N   1      34.173  16.117   9.706  0.00  0.00     0.245 C 
BRANCH  28  29
HETATM   29  O   UNK N   1      34.326  17.498   9.817  0.00  0.00    -0.393 OA
HETATM   30  H   UNK N   1      34.156  18.068   9.051  0.00  0.00     0.209 HD
ENDBRANCH  28  29
ENDBRANCH  26  28
ENDBRANCH   7  26
BRANCH  12  31
HETATM   31  O   UNK N   1      36.755  13.589  14.250  0.00  0.00    -0.395 OA
HETATM   32  H   UNK N   1      37.718  13.666  14.159  0.00  0.00     0.210 HD
ENDBRANCH  12  31
TORSDOF 4
ENDMDL
MODEL 8
REMARK VINA RESULT:      -6.8     15.440     18.699
REMARK  4 active torsions:
REMARK  status: ('A' for Active; 'I' for Inactive)
REMARK    1  A    between atoms: C_15  and  O_3 
REMARK    2  A    between atoms: O_5  and  C_25 
REMARK    3  A    between atoms: C_10  and  C_21 
REMARK    4  A    between atoms: C_21  and  C_25 
ROOT
HETATM    1  O   UNK N   1      33.011  16.116   7.278  0.00  0.00    -0.334 OA
HETATM    2  O   UNK N   1      35.060  16.326   6.232  0.00  0.00    -0.347 OA
HETATM    3  O   UNK N   1      36.456   8.569  13.952  0.00  0.00    -0.289 OA
HETATM    4  C   UNK N   1      33.488  13.914   8.177  0.00  0.00     0.004 C 
HETATM    5  C   UNK N   1      34.907  14.191   8.712  0.00  0.00     0.004 C 
HETATM    6  C   UNK N   1      35.550  13.028   9.535  0.00  0.00    -0.001 C 
HETATM    7  C   UNK N   1      33.380  14.813   6.912  0.00  0.00     0.160 C 
HETATM    8  C   UNK N   1      34.492  12.134  10.217  0.00  0.00     0.035 C 
HETATM    9  C   UNK N   1      34.811  14.959   6.389  0.00  0.00     0.168 C 
HETATM   10  C   UNK N   1      35.743  14.413   7.460  0.00  0.00     0.041 C 
HETATM   11  C   UNK N   1      33.368  12.416   7.869  0.00  0.00     0.045 C 
HETATM   12  C   UNK N   1      33.529  11.555   9.137  0.00  0.00     0.124 C 
HETATM   13  C   UNK N   1      35.181  10.967  10.982  0.00  0.00     0.004 C 
HETATM   14  C   UNK N   1      36.504  13.638  10.569  0.00  0.00     0.010 C 
HETATM   15  C   UNK N   1      32.399  14.276   9.196  0.00  0.00     0.019 C 
HETATM   16  C   UNK N   1      37.128  12.655  11.565  0.00  0.00     0.036 C 
HETATM   17  C   UNK N   1      33.866  16.980   6.571  0.00  0.00     0.159 C 
HETATM   18  C   UNK N   1      36.278  11.465  11.922  0.00  0.00    -0.064 C 
HETATM   19  C   UNK N   1      35.874  10.028   9.984  0.00  0.00     0.025 C 
HETATM   20  C   UNK N   1      34.182  10.101  11.731  0.00  0.00    -0.009 C 
HETATM   21  C   UNK N   1      33.185  17.481   5.307  0.00  0.00     0.078 C 
HETATM   22  C   UNK N   1      34.183  18.166   7.460  0.00  0.00     0.078 C 
HETATM   23  C   UNK N   1      36.730  10.643  12.887  0.00  0.00     0.058 C 
HETATM   24  C   UNK N   1      34.600   9.273  12.703  0.00  0.00     0.052 C 
HETATM   25  C   UNK N   1      35.980   9.409  13.210  0.00  0.00     0.171 C 
ENDROOT
BRANCH   7  26
HETATM   26  C   UNK N   1      32.349  14.278   5.919  0.00  0.00     0.188 C 
HETATM   27  O   UNK N   1      31.166  14.281   6.226  0.00  0.00    -0.292 OA
BRANCH  26  28
HETATM   28  C   UNK N   1      32.751  13.680   4.604  0.00  0.00     0.245 C 
BRANCH  28  29
HETATM   29  O   UNK N   1      32.254  14.446   3.551  0.00  0.00    -0.393 OA
HETATM   30  H   UNK N   1      31.841  15.305   3.728  0.00  0.00     0.209 HD
ENDBRANCH  28  29
ENDBRANCH  26  28
ENDBRANCH   7  26
BRANCH  12  31
HETATM   31  O   UNK N   1      32.286  11.246   9.697  0.00  0.00    -0.395 OA
HETATM   32  H   UNK N   1      31.675  10.492   9.715  0.00  0.00     0.210 HD
ENDBRANCH  12  31
TORSDOF 4
ENDMDL
MODEL 9
REMARK VINA RESULT:      -6.8     19.325     23.084
REMARK  4 active torsions:
REMARK  status: ('A' for Active; 'I' for Inactive)
REMARK    1  A    between atoms: C_15  and  O_3 
REMARK    2  A    between atoms: O_5  and  C_25 
REMARK    3  A    between atoms: C_10  and  C_21 
REMARK    4  A    between atoms: C_21  and  C_25 
ROOT
HETATM    1  O   UNK N   1      37.930  11.984   9.066  0.00  0.00    -0.334 OA
HETATM    2  O   UNK N   1      37.704   9.714   8.706  0.00  0.00    -0.347 OA
HETATM    3  O   UNK N   1      35.131  11.304  19.316  0.00  0.00    -0.289 OA
HETATM    4  C   UNK N   1      36.541  11.996  11.054  0.00  0.00     0.004 C 
HETATM    5  C   UNK N   1      37.144  10.765  11.758  0.00  0.00     0.004 C 
HETATM    6  C   UNK N   1      36.614  10.495  13.204  0.00  0.00    -0.001 C 
HETATM    7  C   UNK N   1      36.652  11.656   9.540  0.00  0.00     0.160 C 
HETATM    8  C   UNK N   1      36.132  11.784  13.905  0.00  0.00     0.035 C 
HETATM    9  C   UNK N   1      36.600  10.128   9.457  0.00  0.00     0.168 C 
HETATM   10  C   UNK N   1      36.743   9.593  10.874  0.00  0.00     0.041 C 
HETATM   11  C   UNK N   1      35.094  12.170  11.532  0.00  0.00     0.045 C 
HETATM   12  C   UNK N   1      35.020  12.456  13.045  0.00  0.00     0.124 C 
HETATM   13  C   UNK N   1      35.572  11.454  15.319  0.00  0.00     0.004 C 
HETATM   14  C   UNK N   1      37.729   9.814  14.008  0.00  0.00     0.010 C 
HETATM   15  C   UNK N   1      37.305  13.287  11.379  0.00  0.00     0.019 C 
HETATM   16  C   UNK N   1      37.441   9.595  15.496  0.00  0.00     0.036 C 
HETATM   17  C   UNK N   1      38.361  10.886   8.301  0.00  0.00     0.159 C 
HETATM   18  C   UNK N   1      36.552  10.622  16.145  0.00  0.00    -0.064 C 
HETATM   19  C   UNK N   1      34.300  10.604  15.190  0.00  0.00     0.025 C 
HETATM   20  C   UNK N   1      35.153  12.703  16.077  0.00  0.00    -0.009 C 
HETATM   21  C   UNK N   1      38.095  11.132   6.825  0.00  0.00     0.078 C 
HETATM   22  C   UNK N   1      39.853  10.717   8.510  0.00  0.00     0.078 C 
HETATM   23  C   UNK N   1      36.375  10.542  17.477  0.00  0.00     0.058 C 
HETATM   24  C   UNK N   1      34.972  12.657  17.407  0.00  0.00     0.052 C 
HETATM   25  C   UNK N   1      35.438  11.469  18.149  0.00  0.00     0.171 C 
ENDROOT
BRANCH   7  26
HETATM   26  C   UNK N   1      35.618  12.414   8.709  0.00  0.00     0.188 C 
HETATM   27  O   UNK N   1      34.722  11.792   8.157  0.00  0.00    -0.292 OA
BRANCH  26  28
HETATM   28  C   UNK N   1      35.709  13.894   8.488  0.00  0.00     0.245 C 
BRANCH  28  29
HETATM   29  O   UNK N   1      36.575  14.175   7.433  0.00  0.00    -0.393 OA
HETATM   30  H   UNK N   1      36.274  14.722   6.691  0.00  0.00     0.209 HD
ENDBRANCH  28  29
ENDBRANCH  26  28
ENDBRANCH   7  26
BRANCH  12  31
HETATM   31  O   UNK N   1      34.964  13.830  13.295  0.00  0.00    -0.395 OA
HETATM   32  H   UNK N   1      34.937  14.652  12.780  0.00  0.00     0.210 HD
ENDBRANCH  12  31
TORSDOF 4
ENDMDL
