MODEL 1
REMARK VINA RESULT:      -8.0      0.000      0.000
REMARK  6 active torsions:
REMARK  status: ('A' for Active; 'I' for Inactive)
REMARK       I    between atoms: N_8  and  C_21 
REMARK    1  A    between atoms: C_20  and  N_12 
REMARK    2  A    between atoms: C_19  and  C_20 
REMARK    3  A    between atoms: C_19  and  C_21 
REMARK    4  A    between atoms: C_20  and  C_22 
REMARK    5  A    between atoms: C_22  and  C_24 
REMARK    6  A    between atoms: C_23  and  C_25 
ROOT
HETATM    1  O   UNK N   1      18.789  14.461   4.988  0.00  0.00    -0.273 OA
HETATM    2  N   UNK N   1      20.672  15.443   4.281  0.00  0.00    -0.344 N 
HETATM    3  N   UNK N   1      20.944  17.772   2.998  0.00  0.00    -0.314 N 
HETATM    4  N   UNK N   1      19.449  17.309   1.429  0.00  0.00    -0.286 N 
ATOM      5  HN  UNK N   1      18.805  16.787   0.836  1.00  0.00     0.188 HD
HETATM    6  N   UNK N   1      19.700  18.613   1.371  0.00  0.00    -0.280 N 
ATOM      7  HN  UNK N   1      19.284  19.279   0.721  1.00  0.00     0.188 HD
HETATM    8  C   UNK N   1      21.942  16.100   4.525  0.00  0.00     0.146 C 
HETATM    9  C   UNK N   1      21.859  17.582   4.126  0.00  0.00     0.152 C 
HETATM   10  C   UNK N   1      20.210  15.403   2.908  0.00  0.00     0.203 C 
HETATM   11  C   UNK N   1      20.208  16.811   2.422  0.00  0.00     0.118 A 
HETATM   12  C   UNK N   1      19.861  14.970   5.284  0.00  0.00     0.222 C 
HETATM   13  C   UNK N   1      20.609  18.891   2.331  0.00  0.00     0.209 A 
ENDROOT
BRANCH  12  14
HETATM   14  C   UNK N   1      20.171  15.067   6.771  0.00  0.00     0.127 C 
BRANCH  14  15
HETATM   15  C   UNK N   1      20.998  13.975   7.436  0.00  0.00     0.087 C 
BRANCH  15  16
HETATM   16  N   UNK N   1      20.784  12.698   6.769  0.00  0.00    -0.425 N 
HETATM   17  H   UNK N   1      20.415  11.762   6.604  0.00  0.00     0.150 HD
HETATM   18  H   UNK N   1      21.382  12.811   5.949  0.00  0.00     0.150 HD
ENDBRANCH  15  16
BRANCH  15  19
HETATM   19  C   UNK N   1      20.700  13.884   8.933  0.00  0.00     0.067 C 
BRANCH  19  20
HETATM   20  C   UNK N   1      21.805  13.257   9.726  0.00  0.00    -0.015 A 
HETATM   21  C   UNK N   1      21.501  12.494  10.863  0.00  0.00     0.125 A 
HETATM   22  F   UNK N   1      20.211  12.302  11.239  0.00  0.00    -0.205 F 
HETATM   23  C   UNK N   1      22.532  11.932  11.622  0.00  0.00     0.088 A 
HETATM   24  C   UNK N   1      23.864  12.130  11.250  0.00  0.00     0.157 A 
HETATM   25  F   UNK N   1      24.859  11.591  11.995  0.00  0.00    -0.203 F 
HETATM   26  C   UNK N   1      24.169  12.886  10.112  0.00  0.00     0.155 A 
HETATM   27  F   UNK N   1      25.458  13.086   9.749  0.00  0.00    -0.203 F 
HETATM   28  C   UNK N   1      23.141  13.445   9.351  0.00  0.00     0.055 A 
ENDBRANCH  19  20
ENDBRANCH  15  19
ENDBRANCH  14  15
ENDBRANCH  12  14
BRANCH  13  29
HETATM   29  C   UNK N   1      21.126  20.273   2.607  0.00  0.00     0.450 C 
HETATM   30  F   UNK N   1      20.838  21.091   1.532  0.00  0.00    -0.163 F 
HETATM   31  F   UNK N   1      20.504  20.771   3.736  0.00  0.00    -0.163 F 
HETATM   32  F   UNK N   1      22.493  20.276   2.816  0.00  0.00    -0.163 F 
ENDBRANCH  13  29
TORSDOF 6
ENDMDL
MODEL 2
REMARK VINA RESULT:      -7.9     13.145     15.356
REMARK  6 active torsions:
REMARK  status: ('A' for Active; 'I' for Inactive)
REMARK       I    between atoms: N_8  and  C_21 
REMARK    1  A    between atoms: C_20  and  N_12 
REMARK    2  A    between atoms: C_19  and  C_20 
REMARK    3  A    between atoms: C_19  and  C_21 
REMARK    4  A    between atoms: C_20  and  C_22 
REMARK    5  A    between atoms: C_22  and  C_24 
REMARK    6  A    between atoms: C_23  and  C_25 
ROOT
HETATM    1  O   UNK N   1      35.666  12.266  10.913  0.00  0.00    -0.273 OA
HETATM    2  N   UNK N   1      36.154  14.414  10.518  0.00  0.00    -0.344 N 
HETATM    3  N   UNK N   1      34.950  16.103   8.832  0.00  0.00    -0.314 N 
HETATM    4  N   UNK N   1      35.064  14.749   7.082  0.00  0.00    -0.286 N 
ATOM      5  HN  UNK N   1      35.333  13.969   6.482  1.00  0.00     0.188 HD
HETATM    6  N   UNK N   1      34.211  15.722   6.780  0.00  0.00    -0.280 N 
ATOM      7  HN  UNK N   1      33.703  15.830   5.903  1.00  0.00     0.188 HD
HETATM    8  C   UNK N   1      36.236  15.804  10.926  0.00  0.00     0.146 C 
HETATM    9  C   UNK N   1      35.187  16.640  10.174  0.00  0.00     0.152 C 
HETATM   10  C   UNK N   1      36.421  14.125   9.123  0.00  0.00     0.203 C 
HETATM   11  C   UNK N   1      35.504  14.989   8.330  0.00  0.00     0.118 A 
HETATM   12  C   UNK N   1      35.738  13.405  11.353  0.00  0.00     0.222 C 
HETATM   13  C   UNK N   1      34.142  16.543   7.851  0.00  0.00     0.209 A 
ENDROOT
BRANCH  12  14
HETATM   14  C   UNK N   1      35.307  13.596  12.800  0.00  0.00     0.127 C 
BRANCH  14  15
HETATM   15  C   UNK N   1      36.201  13.085  13.921  0.00  0.00     0.087 C 
BRANCH  15  16
HETATM   16  N   UNK N   1      37.500  12.688  13.394  0.00  0.00    -0.425 N 
HETATM   17  H   UNK N   1      38.285  12.628  12.745  0.00  0.00     0.150 HD
HETATM   18  H   UNK N   1      37.839  12.098  14.155  0.00  0.00     0.150 HD
ENDBRANCH  15  16
BRANCH  15  19
HETATM   19  C   UNK N   1      35.534  11.945  14.690  0.00  0.00     0.067 C 
BRANCH  19  20
HETATM   20  C   UNK N   1      35.427  12.198  16.162  0.00  0.00    -0.015 A 
HETATM   21  C   UNK N   1      35.402  11.118  17.056  0.00  0.00     0.125 A 
HETATM   22  F   UNK N   1      35.495   9.843  16.599  0.00  0.00    -0.205 F 
HETATM   23  C   UNK N   1      35.272  11.350  18.428  0.00  0.00     0.088 A 
HETATM   24  C   UNK N   1      35.166  12.657  18.911  0.00  0.00     0.157 A 
HETATM   25  F   UNK N   1      35.031  12.875  20.241  0.00  0.00    -0.203 F 
HETATM   26  C   UNK N   1      35.197  13.737  18.021  0.00  0.00     0.155 A 
HETATM   27  F   UNK N   1      35.090  15.006  18.481  0.00  0.00    -0.203 F 
HETATM   28  C   UNK N   1      35.331  13.507  16.651  0.00  0.00     0.055 A 
ENDBRANCH  19  20
ENDBRANCH  15  19
ENDBRANCH  14  15
ENDBRANCH  12  14
BRANCH  13  29
HETATM   29  C   UNK N   1      33.254  17.751   7.913  0.00  0.00     0.450 C 
HETATM   30  F   UNK N   1      34.024  18.872   8.156  0.00  0.00    -0.163 F 
HETATM   31  F   UNK N   1      32.606  17.898   6.701  0.00  0.00    -0.163 F 
HETATM   32  F   UNK N   1      32.304  17.638   8.913  0.00  0.00    -0.163 F 
ENDBRANCH  13  29
TORSDOF 6
ENDMDL
MODEL 3
REMARK VINA RESULT:      -7.8      1.274      2.140
REMARK  6 active torsions:
REMARK  status: ('A' for Active; 'I' for Inactive)
REMARK       I    between atoms: N_8  and  C_21 
REMARK    1  A    between atoms: C_20  and  N_12 
REMARK    2  A    between atoms: C_19  and  C_20 
REMARK    3  A    between atoms: C_19  and  C_21 
REMARK    4  A    between atoms: C_20  and  C_22 
REMARK    5  A    between atoms: C_22  and  C_24 
REMARK    6  A    between atoms: C_23  and  C_25 
ROOT
HETATM    1  O   UNK N   1      20.281  14.487   5.641  0.00  0.00    -0.273 OA
HETATM    2  N   UNK N   1      21.692  15.692   4.390  0.00  0.00    -0.344 N 
HETATM    3  N   UNK N   1      21.171  17.881   2.947  0.00  0.00    -0.314 N 
HETATM    4  N   UNK N   1      19.441  17.004   1.876  0.00  0.00    -0.286 N 
ATOM      5  HN  UNK N   1      18.779  16.319   1.513  1.00  0.00     0.188 HD
HETATM    6  N   UNK N   1      19.412  18.317   1.675  0.00  0.00    -0.280 N 
ATOM      7  HN  UNK N   1      18.723  18.829   1.125  1.00  0.00     0.188 HD
HETATM    8  C   UNK N   1      22.831  16.578   4.239  0.00  0.00     0.146 C 
HETATM    9  C   UNK N   1      22.364  17.972   3.792  0.00  0.00     0.152 C 
HETATM   10  C   UNK N   1      20.909  15.426   3.200  0.00  0.00     0.203 C 
HETATM   11  C   UNK N   1      20.511  16.752   2.651  0.00  0.00     0.118 A 
HETATM   12  C   UNK N   1      21.274  15.200   5.603  0.00  0.00     0.222 C 
HETATM   13  C   UNK N   1      20.466  18.848   2.333  0.00  0.00     0.209 A 
ENDROOT
BRANCH  12  14
HETATM   14  C   UNK N   1      21.931  15.508   6.940  0.00  0.00     0.127 C 
BRANCH  14  15
HETATM   15  C   UNK N   1      23.023  14.588   7.467  0.00  0.00     0.087 C 
BRANCH  15  16
HETATM   16  N   UNK N   1      24.156  14.565   6.551  0.00  0.00    -0.425 N 
HETATM   17  H   UNK N   1      25.111  14.422   6.224  0.00  0.00     0.150 HD
HETATM   18  H   UNK N   1      23.715  14.911   5.698  0.00  0.00     0.150 HD
ENDBRANCH  15  16
BRANCH  15  19
HETATM   19  C   UNK N   1      22.487  13.181   7.733  0.00  0.00     0.067 C 
BRANCH  19  20
HETATM   20  C   UNK N   1      22.550  12.778   9.173  0.00  0.00    -0.015 A 
HETATM   21  C   UNK N   1      23.789  12.491   9.764  0.00  0.00     0.125 A 
HETATM   22  F   UNK N   1      24.935  12.595   9.045  0.00  0.00    -0.205 F 
HETATM   23  C   UNK N   1      23.848  12.085  11.100  0.00  0.00     0.088 A 
HETATM   24  C   UNK N   1      22.674  11.965  11.849  0.00  0.00     0.157 A 
HETATM   25  F   UNK N   1      22.737  11.562  13.141  0.00  0.00    -0.203 F 
HETATM   26  C   UNK N   1      21.437  12.257  11.263  0.00  0.00     0.155 A 
HETATM   27  F   UNK N   1      20.295  12.138  11.981  0.00  0.00    -0.203 F 
HETATM   28  C   UNK N   1      21.377  12.665   9.930  0.00  0.00     0.055 A 
ENDBRANCH  19  20
ENDBRANCH  15  19
ENDBRANCH  14  15
ENDBRANCH  12  14
BRANCH  13  29
HETATM   29  C   UNK N   1      20.761  20.319   2.375  0.00  0.00     0.450 C 
HETATM   30  F   UNK N   1      20.143  20.939   1.306  0.00  0.00    -0.163 F 
HETATM   31  F   UNK N   1      20.266  20.845   3.553  0.00  0.00    -0.163 F 
HETATM   32  F   UNK N   1      22.119  20.571   2.312  0.00  0.00    -0.163 F 
ENDBRANCH  13  29
TORSDOF 6
ENDMDL
MODEL 4
REMARK VINA RESULT:      -7.7     12.299     14.646
REMARK  6 active torsions:
REMARK  status: ('A' for Active; 'I' for Inactive)
REMARK       I    between atoms: N_8  and  C_21 
REMARK    1  A    between atoms: C_20  and  N_12 
REMARK    2  A    between atoms: C_19  and  C_20 
REMARK    3  A    between atoms: C_19  and  C_21 
REMARK    4  A    between atoms: C_20  and  C_22 
REMARK    5  A    between atoms: C_22  and  C_24 
REMARK    6  A    between atoms: C_23  and  C_25 
ROOT
HETATM    1  O   UNK N   1      37.508  15.014  10.088  0.00  0.00    -0.273 OA
HETATM    2  N   UNK N   1      35.331  15.292  10.523  0.00  0.00    -0.344 N 
HETATM    3  N   UNK N   1      33.460  16.403   8.970  0.00  0.00    -0.314 N 
HETATM    4  N   UNK N   1      34.609  18.255   8.571  0.00  0.00    -0.286 N 
ATOM      5  HN  UNK N   1      35.317  18.985   8.646  1.00  0.00     0.188 HD
HETATM    6  N   UNK N   1      33.606  18.211   7.701  0.00  0.00    -0.280 N 
ATOM      7  HN  UNK N   1      33.398  18.904   6.982  1.00  0.00     0.188 HD
HETATM    8  C   UNK N   1      33.995  14.774  10.755  0.00  0.00     0.146 C 
HETATM    9  C   UNK N   1      33.077  15.124   9.572  0.00  0.00     0.152 C 
HETATM   10  C   UNK N   1      35.462  16.731  10.401  0.00  0.00     0.203 C 
HETATM   11  C   UNK N   1      34.511  17.152   9.334  0.00  0.00     0.118 A 
HETATM   12  C   UNK N   1      36.425  14.490  10.311  0.00  0.00     0.222 C 
HETATM   13  C   UNK N   1      32.910  17.079   7.945  0.00  0.00     0.209 A 
ENDROOT
BRANCH  12  14
HETATM   14  C   UNK N   1      36.397  12.969  10.286  0.00  0.00     0.127 C 
BRANCH  14  15
HETATM   15  C   UNK N   1      36.762  12.192  11.543  0.00  0.00     0.087 C 
BRANCH  15  16
HETATM   16  N   UNK N   1      37.519  10.995  11.200  0.00  0.00    -0.425 N 
HETATM   17  H   UNK N   1      37.864  10.038  11.266  0.00  0.00     0.150 HD
HETATM   18  H   UNK N   1      38.017  11.319  10.371  0.00  0.00     0.150 HD
ENDBRANCH  15  16
BRANCH  15  19
HETATM   19  C   UNK N   1      35.522  11.856  12.371  0.00  0.00     0.067 C 
BRANCH  19  20
HETATM   20  C   UNK N   1      35.561  12.410  13.762  0.00  0.00    -0.015 A 
HETATM   21  C   UNK N   1      34.581  12.035  14.691  0.00  0.00     0.125 A 
HETATM   22  F   UNK N   1      33.605  11.156  14.345  0.00  0.00    -0.205 F 
HETATM   23  C   UNK N   1      34.598  12.574  15.980  0.00  0.00     0.088 A 
HETATM   24  C   UNK N   1      35.591  13.487  16.345  0.00  0.00     0.157 A 
HETATM   25  F   UNK N   1      35.597  14.012  17.594  0.00  0.00    -0.203 F 
HETATM   26  C   UNK N   1      36.575  13.858  15.421  0.00  0.00     0.155 A 
HETATM   27  F   UNK N   1      37.538  14.745  15.767  0.00  0.00    -0.203 F 
HETATM   28  C   UNK N   1      36.561  13.318  14.135  0.00  0.00     0.055 A 
ENDBRANCH  19  20
ENDBRANCH  15  19
ENDBRANCH  14  15
ENDBRANCH  12  14
BRANCH  13  29
HETATM   29  C   UNK N   1      31.715  16.652   7.145  0.00  0.00     0.450 C 
HETATM   30  F   UNK N   1      31.505  17.554   6.120  0.00  0.00    -0.163 F 
HETATM   31  F   UNK N   1      31.954  15.402   6.608  0.00  0.00    -0.163 F 
HETATM   32  F   UNK N   1      30.573  16.589   7.924  0.00  0.00    -0.163 F 
ENDBRANCH  13  29
TORSDOF 6
ENDMDL
MODEL 5
REMARK VINA RESULT:      -7.7      5.531      7.153
REMARK  6 active torsions:
REMARK  status: ('A' for Active; 'I' for Inactive)
REMARK       I    between atoms: N_8  and  C_21 
REMARK    1  A    between atoms: C_20  and  N_12 
REMARK    2  A    between atoms: C_19  and  C_20 
REMARK    3  A    between atoms: C_19  and  C_21 
REMARK    4  A    between atoms: C_20  and  C_22 
REMARK    5  A    between atoms: C_22  and  C_24 
REMARK    6  A    between atoms: C_23  and  C_25 
ROOT
HETATM    1  O   UNK N   1      23.286  20.889   3.014  0.00  0.00    -0.273 OA
HETATM    2  N   UNK N   1      22.415  19.014   3.869  0.00  0.00    -0.344 N 
HETATM    3  N   UNK N   1      20.868  17.203   2.655  0.00  0.00    -0.314 N 
HETATM    4  N   UNK N   1      19.409  18.678   1.878  0.00  0.00    -0.286 N 
ATOM      5  HN  UNK N   1      18.899  19.551   1.744  1.00  0.00     0.188 HD
HETATM    6  N   UNK N   1      19.196  17.531   1.242  0.00  0.00    -0.280 N 
ATOM      7  HN  UNK N   1      18.488  17.358   0.529  1.00  0.00     0.188 HD
HETATM    8  C   UNK N   1      22.543  17.675   4.415  0.00  0.00     0.146 C 
HETATM    9  C   UNK N   1      21.981  16.642   3.425  0.00  0.00     0.152 C 
HETATM   10  C   UNK N   1      21.070  19.486   3.607  0.00  0.00     0.203 C 
HETATM   11  C   UNK N   1      20.428  18.467   2.731  0.00  0.00     0.118 A 
HETATM   12  C   UNK N   1      23.490  19.784   3.499  0.00  0.00     0.222 C 
HETATM   13  C   UNK N   1      20.090  16.635   1.716  0.00  0.00     0.209 A 
ENDROOT
BRANCH  12  14
HETATM   14  C   UNK N   1      24.946  19.353   3.603  0.00  0.00     0.127 C 
BRANCH  14  15
HETATM   15  C   UNK N   1      26.043  20.408   3.567  0.00  0.00     0.087 C 
BRANCH  15  16
HETATM   16  N   UNK N   1      26.022  21.120   2.297  0.00  0.00    -0.425 N 
HETATM   17  H   UNK N   1      25.929  21.270   1.292  0.00  0.00     0.150 HD
HETATM   18  H   UNK N   1      26.235  22.068   2.609  0.00  0.00     0.150 HD
ENDBRANCH  15  16
BRANCH  15  19
HETATM   19  C   UNK N   1      27.416  19.795   3.845  0.00  0.00     0.067 C 
BRANCH  19  20
HETATM   20  C   UNK N   1      27.632  19.438   5.283  0.00  0.00    -0.015 A 
HETATM   21  C   UNK N   1      27.550  20.432   6.269  0.00  0.00     0.125 A 
HETATM   22  F   UNK N   1      27.256  21.713   5.931  0.00  0.00    -0.205 F 
HETATM   23  C   UNK N   1      27.782  20.107   7.608  0.00  0.00     0.088 A 
HETATM   24  C   UNK N   1      28.095  18.793   7.967  0.00  0.00     0.157 A 
HETATM   25  F   UNK N   1      28.327  18.487   9.266  0.00  0.00    -0.203 F 
HETATM   26  C   UNK N   1      28.171  17.799   6.985  0.00  0.00     0.155 A 
HETATM   27  F   UNK N   1      28.478  16.524   7.326  0.00  0.00    -0.203 F 
HETATM   28  C   UNK N   1      27.937  18.120   5.648  0.00  0.00     0.055 A 
ENDBRANCH  19  20
ENDBRANCH  15  19
ENDBRANCH  14  15
ENDBRANCH  12  14
BRANCH  13  29
HETATM   29  C   UNK N   1      20.191  15.223   1.220  0.00  0.00     0.450 C 
HETATM   30  F   UNK N   1      19.248  15.018   0.231  0.00  0.00    -0.163 F 
HETATM   31  F   UNK N   1      21.452  15.018   0.694  0.00  0.00    -0.163 F 
HETATM   32  F   UNK N   1      19.979  14.307   2.234  0.00  0.00    -0.163 F 
ENDBRANCH  13  29
TORSDOF 6
ENDMDL
MODEL 6
REMARK VINA RESULT:      -7.5     11.001     15.289
REMARK  6 active torsions:
REMARK  status: ('A' for Active; 'I' for Inactive)
REMARK       I    between atoms: N_8  and  C_21 
REMARK    1  A    between atoms: C_20  and  N_12 
REMARK    2  A    between atoms: C_19  and  C_20 
REMARK    3  A    between atoms: C_19  and  C_21 
REMARK    4  A    between atoms: C_20  and  C_22 
REMARK    5  A    between atoms: C_22  and  C_24 
REMARK    6  A    between atoms: C_23  and  C_25 
ROOT
HETATM    1  O   UNK N   1      34.919  16.412  10.621  0.00  0.00    -0.273 OA
HETATM    2  N   UNK N   1      35.689  14.313  10.711  0.00  0.00    -0.344 N 
HETATM    3  N   UNK N   1      35.133  12.421  12.515  0.00  0.00    -0.314 N 
HETATM    4  N   UNK N   1      35.580  13.690  14.276  0.00  0.00    -0.286 N 
ATOM      5  HN  UNK N   1      35.924  14.463  14.844  1.00  0.00     0.188 HD
HETATM    6  N   UNK N   1      34.930  12.615  14.711  0.00  0.00    -0.280 N 
ATOM      7  HN  UNK N   1      34.684  12.409  15.679  1.00  0.00     0.188 HD
HETATM    8  C   UNK N   1      35.788  12.962  10.191  0.00  0.00     0.146 C 
HETATM    9  C   UNK N   1      35.056  11.981  11.120  0.00  0.00     0.152 C 
HETATM   10  C   UNK N   1      36.287  14.559  12.009  0.00  0.00     0.203 C 
HETATM   11  C   UNK N   1      35.695  13.562  12.942  0.00  0.00     0.118 A 
HETATM   12  C   UNK N   1      34.977  15.311  10.092  0.00  0.00     0.222 C 
HETATM   13  C   UNK N   1      34.656  11.847  13.634  0.00  0.00     0.209 A 
ENDROOT
BRANCH  12  14
HETATM   14  C   UNK N   1      34.199  15.147   8.794  0.00  0.00     0.127 C 
BRANCH  14  15
HETATM   15  C   UNK N   1      32.680  15.053   8.839  0.00  0.00     0.087 C 
BRANCH  15  16
HETATM   16  N   UNK N   1      32.263  13.697   9.167  0.00  0.00    -0.425 N 
HETATM   17  H   UNK N   1      31.644  12.929   9.427  0.00  0.00     0.150 HD
HETATM   18  H   UNK N   1      33.152  13.202   9.088  0.00  0.00     0.150 HD
ENDBRANCH  15  16
BRANCH  15  19
HETATM   19  C   UNK N   1      32.053  15.533   7.529  0.00  0.00     0.067 C 
BRANCH  19  20
HETATM   20  C   UNK N   1      30.952  16.530   7.722  0.00  0.00    -0.015 A 
HETATM   21  C   UNK N   1      29.930  16.635   6.768  0.00  0.00     0.125 A 
HETATM   22  F   UNK N   1      29.919  15.824   5.679  0.00  0.00    -0.205 F 
HETATM   23  C   UNK N   1      28.919  17.585   6.930  0.00  0.00     0.088 A 
HETATM   24  C   UNK N   1      28.925  18.432   8.042  0.00  0.00     0.157 A 
HETATM   25  F   UNK N   1      27.946  19.358   8.188  0.00  0.00    -0.203 F 
HETATM   26  C   UNK N   1      29.941  18.325   8.998  0.00  0.00     0.155 A 
HETATM   27  F   UNK N   1      29.955  19.146  10.076  0.00  0.00    -0.203 F 
HETATM   28  C   UNK N   1      30.949  17.374   8.840  0.00  0.00     0.055 A 
ENDBRANCH  19  20
ENDBRANCH  15  19
ENDBRANCH  14  15
ENDBRANCH  12  14
BRANCH  13  29
HETATM   29  C   UNK N   1      33.899  10.554  13.710  0.00  0.00     0.450 C 
HETATM   30  F   UNK N   1      34.778   9.524  13.984  0.00  0.00    -0.163 F 
HETATM   31  F   UNK N   1      32.966  10.637  14.727  0.00  0.00    -0.163 F 
HETATM   32  F   UNK N   1      33.241  10.275  12.526  0.00  0.00    -0.163 F 
ENDBRANCH  13  29
TORSDOF 6
ENDMDL
MODEL 7
REMARK VINA RESULT:      -7.3     13.248     15.520
REMARK  6 active torsions:
REMARK  status: ('A' for Active; 'I' for Inactive)
REMARK       I    between atoms: N_8  and  C_21 
REMARK    1  A    between atoms: C_20  and  N_12 
REMARK    2  A    between atoms: C_19  and  C_20 
REMARK    3  A    between atoms: C_19  and  C_21 
REMARK    4  A    between atoms: C_20  and  C_22 
REMARK    5  A    between atoms: C_22  and  C_24 
REMARK    6  A    between atoms: C_23  and  C_25 
ROOT
HETATM    1  O   UNK N   1      35.555  12.291  11.230  0.00  0.00    -0.273 OA
HETATM    2  N   UNK N   1      36.139  14.394  10.736  0.00  0.00    -0.344 N 
HETATM    3  N   UNK N   1      35.004  16.059   8.980  0.00  0.00    -0.314 N 
HETATM    4  N   UNK N   1      35.045  14.623   7.292  0.00  0.00    -0.286 N 
ATOM      5  HN  UNK N   1      35.274  13.806   6.727  1.00  0.00     0.188 HD
HETATM    6  N   UNK N   1      34.236  15.621   6.950  0.00  0.00    -0.280 N 
ATOM      7  HN  UNK N   1      33.729  15.712   6.071  1.00  0.00     0.188 HD
HETATM    8  C   UNK N   1      36.287  15.796  11.080  0.00  0.00     0.146 C 
HETATM    9  C   UNK N   1      35.274  16.645  10.295  0.00  0.00     0.152 C 
HETATM   10  C   UNK N   1      36.384  14.030   9.354  0.00  0.00     0.203 C 
HETATM   11  C   UNK N   1      35.503  14.899   8.526  0.00  0.00     0.118 A 
HETATM   12  C   UNK N   1      35.682  13.444  11.617  0.00  0.00     0.222 C 
HETATM   13  C   UNK N   1      34.211  16.491   7.983  0.00  0.00     0.209 A 
ENDROOT
BRANCH  12  14
HETATM   14  C   UNK N   1      35.269  13.720  13.056  0.00  0.00     0.127 C 
BRANCH  14  15
HETATM   15  C   UNK N   1      36.026  13.050  14.194  0.00  0.00     0.087 C 
BRANCH  15  16
HETATM   16  N   UNK N   1      37.369  12.683  13.764  0.00  0.00    -0.425 N 
HETATM   17  H   UNK N   1      38.379  12.752  13.638  0.00  0.00     0.150 HD
HETATM   18  H   UNK N   1      37.180  11.799  13.291  0.00  0.00     0.150 HD
ENDBRANCH  15  16
BRANCH  15  19
HETATM   19  C   UNK N   1      35.261  11.844  14.738  0.00  0.00     0.067 C 
BRANCH  19  20
HETATM   20  C   UNK N   1      35.457  11.622  16.206  0.00  0.00    -0.015 A 
HETATM   21  C   UNK N   1      34.938  12.544  17.127  0.00  0.00     0.125 A 
HETATM   22  F   UNK N   1      34.239  13.626  16.698  0.00  0.00    -0.205 F 
HETATM   23  C   UNK N   1      35.145  12.355  18.496  0.00  0.00     0.088 A 
HETATM   24  C   UNK N   1      35.871  11.250  18.949  0.00  0.00     0.157 A 
HETATM   25  F   UNK N   1      36.077  11.078  20.277  0.00  0.00    -0.203 F 
HETATM   26  C   UNK N   1      36.385  10.326  18.032  0.00  0.00     0.155 A 
HETATM   27  F   UNK N   1      37.093   9.255  18.465  0.00  0.00    -0.203 F 
HETATM   28  C   UNK N   1      36.175  10.511  16.665  0.00  0.00     0.055 A 
ENDBRANCH  19  20
ENDBRANCH  15  19
ENDBRANCH  14  15
ENDBRANCH  12  14
BRANCH  13  29
HETATM   29  C   UNK N   1      33.380  17.740   7.994  0.00  0.00     0.450 C 
HETATM   30  F   UNK N   1      32.427  17.647   8.990  0.00  0.00    -0.163 F 
HETATM   31  F   UNK N   1      34.198  18.825   8.248  0.00  0.00    -0.163 F 
HETATM   32  F   UNK N   1      32.741  17.941   6.784  0.00  0.00    -0.163 F 
ENDBRANCH  13  29
TORSDOF 6
ENDMDL
MODEL 8
REMARK VINA RESULT:      -7.3      8.882     11.522
REMARK  6 active torsions:
REMARK  status: ('A' for Active; 'I' for Inactive)
REMARK       I    between atoms: N_8  and  C_21 
REMARK    1  A    between atoms: C_20  and  N_12 
REMARK    2  A    between atoms: C_19  and  C_20 
REMARK    3  A    between atoms: C_19  and  C_21 
REMARK    4  A    between atoms: C_20  and  C_22 
REMARK    5  A    between atoms: C_22  and  C_24 
REMARK    6  A    between atoms: C_23  and  C_25 
ROOT
HETATM    1  O   UNK N   1      30.334  16.276   9.749  0.00  0.00    -0.273 OA
HETATM    2  N   UNK N   1      31.961  16.727   8.280  0.00  0.00    -0.344 N 
HETATM    3  N   UNK N   1      32.327  15.689   5.844  0.00  0.00    -0.314 N 
HETATM    4  N   UNK N   1      32.181  13.579   6.505  0.00  0.00    -0.286 N 
ATOM      5  HN  UNK N   1      32.152  12.758   7.108  1.00  0.00     0.188 HD
HETATM    6  N   UNK N   1      32.084  13.591   5.179  0.00  0.00    -0.280 N 
ATOM      7  HN  UNK N   1      31.967  12.779   4.575  1.00  0.00     0.188 HD
HETATM    8  C   UNK N   1      32.645  17.618   7.361  0.00  0.00     0.146 C 
HETATM    9  C   UNK N   1      32.439  17.148   5.913  0.00  0.00     0.152 C 
HETATM   10  C   UNK N   1      32.401  15.346   8.301  0.00  0.00     0.203 C 
HETATM   11  C   UNK N   1      32.326  14.858   6.896  0.00  0.00     0.118 A 
HETATM   12  C   UNK N   1      30.871  17.104   9.026  0.00  0.00     0.222 C 
HETATM   13  C   UNK N   1      32.169  14.880   4.781  0.00  0.00     0.209 A 
ENDROOT
BRANCH  12  14
HETATM   14  C   UNK N   1      30.233  18.486   8.997  0.00  0.00     0.127 C 
BRANCH  14  15
HETATM   15  C   UNK N   1      28.848  18.658   8.389  0.00  0.00     0.087 C 
BRANCH  15  16
HETATM   16  N   UNK N   1      27.823  18.211   9.323  0.00  0.00    -0.425 N 
HETATM   17  H   UNK N   1      27.228  17.568   9.844  0.00  0.00     0.150 HD
HETATM   18  H   UNK N   1      27.491  19.107   9.682  0.00  0.00     0.150 HD
ENDBRANCH  15  16
BRANCH  15  19
HETATM   19  C   UNK N   1      28.736  17.938   7.045  0.00  0.00     0.067 C 
BRANCH  19  20
HETATM   20  C   UNK N   1      28.066  18.754   5.983  0.00  0.00    -0.015 A 
HETATM   21  C   UNK N   1      27.875  18.213   4.703  0.00  0.00     0.125 A 
HETATM   22  F   UNK N   1      28.276  16.946   4.425  0.00  0.00    -0.205 F 
HETATM   23  C   UNK N   1      27.277  18.982   3.702  0.00  0.00     0.088 A 
HETATM   24  C   UNK N   1      26.869  20.291   3.973  0.00  0.00     0.157 A 
HETATM   25  F   UNK N   1      26.299  21.035   2.995  0.00  0.00    -0.203 F 
HETATM   26  C   UNK N   1      27.053  20.831   5.251  0.00  0.00     0.155 A 
HETATM   27  F   UNK N   1      26.664  22.100   5.520  0.00  0.00    -0.203 F 
HETATM   28  C   UNK N   1      27.647  20.063   6.253  0.00  0.00     0.055 A 
ENDBRANCH  19  20
ENDBRANCH  15  19
ENDBRANCH  14  15
ENDBRANCH  12  14
BRANCH  13  29
HETATM   29  C   UNK N   1      32.069  15.313   3.348  0.00  0.00     0.450 C 
HETATM   30  F   UNK N   1      30.961  16.124   3.193  0.00  0.00    -0.163 F 
HETATM   31  F   UNK N   1      33.204  16.025   3.011  0.00  0.00    -0.163 F 
HETATM   32  F   UNK N   1      31.953  14.232   2.493  0.00  0.00    -0.163 F 
ENDBRANCH  13  29
TORSDOF 6
ENDMDL
MODEL 9
REMARK VINA RESULT:      -7.3      5.760      7.046
REMARK  6 active torsions:
REMARK  status: ('A' for Active; 'I' for Inactive)
REMARK       I    between atoms: N_8  and  C_21 
REMARK    1  A    between atoms: C_20  and  N_12 
REMARK    2  A    between atoms: C_19  and  C_20 
REMARK    3  A    between atoms: C_19  and  C_21 
REMARK    4  A    between atoms: C_20  and  C_22 
REMARK    5  A    between atoms: C_22  and  C_24 
REMARK    6  A    between atoms: C_23  and  C_25 
ROOT
HETATM    1  O   UNK N   1      23.936  20.895   2.509  0.00  0.00    -0.273 OA
HETATM    2  N   UNK N   1      22.339  19.657   3.470  0.00  0.00    -0.344 N 
HETATM    3  N   UNK N   1      20.863  17.717   2.374  0.00  0.00    -0.314 N 
HETATM    4  N   UNK N   1      20.231  18.916   0.621  0.00  0.00    -0.286 N 
ATOM      5  HN  UNK N   1      20.062  19.714   0.010  1.00  0.00     0.188 HD
HETATM    6  N   UNK N   1      19.938  17.646   0.364  0.00  0.00    -0.280 N 
ATOM      7  HN  UNK N   1      19.499  17.287  -0.483  1.00  0.00     0.188 HD
HETATM    8  C   UNK N   1      21.895  18.653   4.419  0.00  0.00     0.146 C 
HETATM    9  C   UNK N   1      21.442  17.385   3.678  0.00  0.00     0.152 C 
HETATM   10  C   UNK N   1      21.354  20.145   2.526  0.00  0.00     0.203 C 
HETATM   11  C   UNK N   1      20.794  18.946   1.842  0.00  0.00     0.118 A 
HETATM   12  C   UNK N   1      23.645  20.069   3.363  0.00  0.00     0.222 C 
HETATM   13  C   UNK N   1      20.329  16.918   1.433  0.00  0.00     0.209 A 
ENDROOT
BRANCH  12  14
HETATM   14  C   UNK N   1      24.796  19.540   4.207  0.00  0.00     0.127 C 
BRANCH  14  15
HETATM   15  C   UNK N   1      25.946  18.808   3.529  0.00  0.00     0.087 C 
BRANCH  15  16
HETATM   16  N   UNK N   1      25.929  17.395   3.884  0.00  0.00    -0.425 N 
HETATM   17  H   UNK N   1      25.709  16.550   4.410  0.00  0.00     0.150 HD
HETATM   18  H   UNK N   1      26.495  17.005   3.129  0.00  0.00     0.150 HD
ENDBRANCH  15  16
BRANCH  15  19
HETATM   19  C   UNK N   1      27.291  19.455   3.861  0.00  0.00     0.067 C 
BRANCH  19  20
HETATM   20  C   UNK N   1      27.977  18.840   5.042  0.00  0.00    -0.015 A 
HETATM   21  C   UNK N   1      28.909  17.810   4.850  0.00  0.00     0.125 A 
HETATM   22  F   UNK N   1      29.210  17.379   3.599  0.00  0.00    -0.205 F 
HETATM   23  C   UNK N   1      29.527  17.214   5.952  0.00  0.00     0.088 A 
HETATM   24  C   UNK N   1      29.218  17.643   7.246  0.00  0.00     0.157 A 
HETATM   25  F   UNK N   1      29.815  17.054   8.311  0.00  0.00    -0.203 F 
HETATM   26  C   UNK N   1      28.293  18.675   7.440  0.00  0.00     0.155 A 
HETATM   27  F   UNK N   1      27.985  19.092   8.691  0.00  0.00    -0.203 F 
HETATM   28  C   UNK N   1      27.677  19.273   6.340  0.00  0.00     0.055 A 
ENDBRANCH  19  20
ENDBRANCH  15  19
ENDBRANCH  14  15
ENDBRANCH  12  14
BRANCH  13  29
HETATM   29  C   UNK N   1      20.196  15.425   1.512  0.00  0.00     0.450 C 
HETATM   30  F   UNK N   1      19.560  14.962   0.376  0.00  0.00    -0.163 F 
HETATM   31  F   UNK N   1      21.457  14.863   1.588  0.00  0.00    -0.163 F 
HETATM   32  F   UNK N   1      19.469  15.033   2.621  0.00  0.00    -0.163 F 
ENDBRANCH  13  29
TORSDOF 6
ENDMDL
