REMARK  4 active torsions:
REMARK  status: ('A' for Active; 'I' for Inactive)
REMARK    1  A    between atoms: C_11  and  O_2 
REMARK    2  A    between atoms: O_3  and  C_15 
REMARK    3  A    between atoms: C_14  and  N_5 
REMARK       I    between atoms: N_10  and  C_18 
REMARK    4  A    between atoms: C_13  and  C_15 
ROOT
HETATM    1  O   UNK N   1       0.864   0.696   0.064  0.00  0.00    -0.246 OA
HETATM    2  N   UNK N   1       3.097   0.384  -0.210  0.00  0.00    -0.267 N 
HETATM    3  N   UNK N   1       2.130   2.527   0.182  0.00  0.00    -0.141 N 
ATOM      4  HN  UNK N   1       1.310   3.109   0.354  1.00  0.00     0.189 HD
HETATM    5  N   UNK N   1       4.446   2.326  -0.118  0.00  0.00    -0.188 N 
ATOM      6  HN  UNK N   1       5.369   2.756  -0.165  1.00  0.00     0.185 HD
HETATM    7  N   UNK N   1       3.498   4.489   0.256  0.00  0.00    -0.234 N 
HETATM    8  C   UNK N   1       1.984   1.177   0.025  0.00  0.00     0.343 A 
HETATM    9  C   UNK N   1       4.318   0.987  -0.285  0.00  0.00     0.207 A 
HETATM   10  C   UNK N   1       3.357   3.095   0.111  0.00  0.00     0.680 A 
HETATM   11  H   UNK N   1       4.391   4.891   0.357  0.00  0.00     0.174 HD
HETATM   12  H   UNK N   1       2.699   5.064   0.256  0.00  0.00     0.174 HD
ENDROOT
BRANCH   2  13
HETATM   13  C   UNK N   1       3.053  -1.069  -0.469  0.00  0.00     0.236 C 
HETATM   14  O   UNK N   1       4.097  -1.756   0.164  0.00  0.00    -0.356 OA
HETATM   15  C   UNK N   1       3.731  -3.071  -0.120  0.00  0.00     0.176 C 
HETATM   16  C   UNK N   1       2.279  -3.174   0.276  0.00  0.00     0.153 C 
HETATM   17  C   UNK N   1       1.762  -1.812  -0.125  0.00  0.00     0.088 C 
BRANCH  15  18
HETATM   18  C   UNK N   1       4.618  -4.072   0.590  0.00  0.00     0.198 C 
BRANCH  18  19
HETATM   19  O   UNK N   1       5.924  -3.949   0.112  0.00  0.00    -0.398 OA
HETATM   20  H   UNK N   1       6.452  -4.692  -0.221  0.00  0.00     0.209 HD
ENDBRANCH  18  19
ENDBRANCH  15  18
BRANCH  16  21
HETATM   21  O   UNK N   1       1.645  -4.181  -0.453  0.00  0.00    -0.393 OA
HETATM   22  H   UNK N   1       0.819  -4.149  -0.960  0.00  0.00     0.210 HD
ENDBRANCH  16  21
ENDBRANCH   2  13
TORSDOF 4
