MODEL 1
REMARK VINA RESULT:      -5.8      0.000      0.000
REMARK  4 active torsions:
REMARK  status: ('A' for Active; 'I' for Inactive)
REMARK    1  A    between atoms: C_11  and  O_2 
REMARK    2  A    between atoms: O_3  and  C_15 
REMARK    3  A    between atoms: C_14  and  N_5 
REMARK       I    between atoms: N_10  and  C_18 
REMARK    4  A    between atoms: C_13  and  C_15 
ROOT
HETATM    1  O   UNK N   1      33.895  11.913  14.674  0.00  0.00    -0.246 OA
HETATM    2  N   UNK N   1      35.456  13.138  15.779  0.00  0.00    -0.267 N 
HETATM    3  N   UNK N   1      35.365  13.003  13.401  0.00  0.00    -0.141 N 
ATOM      4  HN  UNK N   1      34.923  12.651  12.551  1.00  0.00     0.189 HD
HETATM    5  N   UNK N   1      37.041  14.273  14.437  0.00  0.00    -0.188 N 
ATOM      6  HN  UNK N   1      37.855  14.881  14.367  1.00  0.00     0.185 HD
HETATM    7  N   UNK N   1      36.981  14.138  12.050  0.00  0.00    -0.234 N 
HETATM    8  C   UNK N   1      34.856  12.662  14.623  0.00  0.00     0.343 A 
HETATM    9  C   UNK N   1      36.555  13.937  15.657  0.00  0.00     0.207 A 
HETATM   10  C   UNK N   1      36.452  13.805  13.312  0.00  0.00     0.680 A 
HETATM   11  H   UNK N   1      37.671  14.836  11.968  0.00  0.00     0.174 HD
HETATM   12  H   UNK N   1      36.660  13.671  11.246  0.00  0.00     0.174 HD
ENDROOT
BRANCH   2  13
HETATM   13  C   UNK N   1      35.042  12.777  17.149  0.00  0.00     0.236 C 
HETATM   14  O   UNK N   1      35.711  11.643  17.628  0.00  0.00    -0.356 OA
HETATM   15  C   UNK N   1      35.251  11.626  18.944  0.00  0.00     0.176 C 
HETATM   16  C   UNK N   1      35.470  13.027  19.460  0.00  0.00     0.153 C 
HETATM   17  C   UNK N   1      35.160  13.850  18.232  0.00  0.00     0.088 C 
BRANCH  15  18
HETATM   18  C   UNK N   1      35.945  10.567  19.774  0.00  0.00     0.198 C 
BRANCH  18  19
HETATM   19  O   UNK N   1      36.517  11.165  20.898  0.00  0.00    -0.398 OA
HETATM   20  H   UNK N   1      37.407  10.961  21.228  0.00  0.00     0.209 HD
ENDBRANCH  18  19
ENDBRANCH  15  18
BRANCH  16  21
HETATM   21  O   UNK N   1      34.573  13.313  20.490  0.00  0.00    -0.393 OA
HETATM   22  H   UNK N   1      34.521  14.092  21.064  0.00  0.00     0.210 HD
ENDBRANCH  16  21
ENDBRANCH   2  13
TORSDOF 4
ENDMDL
MODEL 2
REMARK VINA RESULT:      -5.6      8.730     12.019
REMARK  4 active torsions:
REMARK  status: ('A' for Active; 'I' for Inactive)
REMARK    1  A    between atoms: C_11  and  O_2 
REMARK    2  A    between atoms: O_3  and  C_15 
REMARK    3  A    between atoms: C_14  and  N_5 
REMARK       I    between atoms: N_10  and  C_18 
REMARK    4  A    between atoms: C_13  and  C_15 
ROOT
HETATM    1  O   UNK N   1      34.946  19.021   8.224  0.00  0.00    -0.246 OA
HETATM    2  N   UNK N   1      33.524  17.250   8.214  0.00  0.00    -0.267 N 
HETATM    3  N   UNK N   1      35.228  17.529   9.857  0.00  0.00    -0.141 N 
ATOM      4  HN  UNK N   1      36.000  18.070  10.247  1.00  0.00     0.189 HD
HETATM    5  N   UNK N   1      33.836  15.645   9.924  0.00  0.00    -0.188 N 
ATOM      6  HN  UNK N   1      33.555  14.771  10.369  1.00  0.00     0.185 HD
HETATM    7  N   UNK N   1      35.549  15.893  11.573  0.00  0.00    -0.234 N 
HETATM    8  C   UNK N   1      34.573  17.984   8.747  0.00  0.00     0.343 A 
HETATM    9  C   UNK N   1      33.181  16.077   8.819  0.00  0.00     0.207 A 
HETATM   10  C   UNK N   1      34.858  16.365  10.440  0.00  0.00     0.680 A 
HETATM   11  H   UNK N   1      35.196  15.133  12.091  0.00  0.00     0.174 HD
HETATM   12  H   UNK N   1      36.390  16.324  11.848  0.00  0.00     0.174 HD
ENDROOT
BRANCH   2  13
HETATM   13  C   UNK N   1      32.794  17.603   6.980  0.00  0.00     0.236 C 
HETATM   14  O   UNK N   1      33.442  17.142   5.826  0.00  0.00    -0.356 OA
HETATM   15  C   UNK N   1      32.490  17.473   4.863  0.00  0.00     0.176 C 
HETATM   16  C   UNK N   1      31.186  16.924   5.387  0.00  0.00     0.153 C 
HETATM   17  C   UNK N   1      31.333  17.168   6.871  0.00  0.00     0.088 C 
BRANCH  15  18
HETATM   18  C   UNK N   1      32.858  16.940   3.495  0.00  0.00     0.198 C 
BRANCH  18  19
HETATM   19  O   UNK N   1      31.891  17.339   2.570  0.00  0.00    -0.398 OA
HETATM   20  H   UNK N   1      31.199  16.755   2.223  0.00  0.00     0.209 HD
ENDBRANCH  18  19
ENDBRANCH  15  18
BRANCH  16  21
HETATM   21  O   UNK N   1      30.110  17.645   4.868  0.00  0.00    -0.393 OA
HETATM   22  H   UNK N   1      29.835  17.766   3.946  0.00  0.00     0.210 HD
ENDBRANCH  16  21
ENDBRANCH   2  13
TORSDOF 4
ENDMDL
MODEL 3
REMARK VINA RESULT:      -5.6      4.295      6.626
REMARK  4 active torsions:
REMARK  status: ('A' for Active; 'I' for Inactive)
REMARK    1  A    between atoms: C_11  and  O_2 
REMARK    2  A    between atoms: O_3  and  C_15 
REMARK    3  A    between atoms: C_14  and  N_5 
REMARK       I    between atoms: N_10  and  C_18 
REMARK    4  A    between atoms: C_13  and  C_15 
ROOT
HETATM    1  O   UNK N   1      35.966  17.392  10.506  0.00  0.00    -0.246 OA
HETATM    2  N   UNK N   1      34.647  15.546  10.614  0.00  0.00    -0.267 N 
HETATM    3  N   UNK N   1      34.113  17.440   9.267  0.00  0.00    -0.141 N 
ATOM      4  HN  UNK N   1      34.345  18.370   8.919  1.00  0.00     0.189 HD
HETATM    5  N   UNK N   1      32.662  15.600   9.327  0.00  0.00    -0.188 N 
ATOM      6  HN  UNK N   1      31.804  15.144   9.018  1.00  0.00     0.185 HD
HETATM    7  N   UNK N   1      32.095  17.495   7.983  0.00  0.00    -0.234 N 
HETATM    8  C   UNK N   1      34.959  16.811  10.138  0.00  0.00     0.343 A 
HETATM    9  C   UNK N   1      33.485  14.966  10.198  0.00  0.00     0.207 A 
HETATM   10  C   UNK N   1      32.971  16.834   8.866  0.00  0.00     0.680 A 
HETATM   11  H   UNK N   1      31.346  17.009   7.569  0.00  0.00     0.174 HD
HETATM   12  H   UNK N   1      32.234  18.448   7.779  0.00  0.00     0.174 HD
ENDROOT
BRANCH   2  13
HETATM   13  C   UNK N   1      35.444  14.804  11.611  0.00  0.00     0.236 C 
HETATM   14  O   UNK N   1      34.643  14.058  12.486  0.00  0.00    -0.356 OA
HETATM   15  C   UNK N   1      35.629  13.371  13.192  0.00  0.00     0.176 C 
HETATM   16  C   UNK N   1      36.529  12.772  12.140  0.00  0.00     0.153 C 
HETATM   17  C   UNK N   1      36.529  13.861  11.092  0.00  0.00     0.088 C 
BRANCH  15  18
HETATM   18  C   UNK N   1      35.039  12.341  14.132  0.00  0.00     0.198 C 
BRANCH  18  19
HETATM   19  O   UNK N   1      34.321  12.992  15.137  0.00  0.00    -0.398 OA
HETATM   20  H   UNK N   1      33.628  12.571  15.669  0.00  0.00     0.209 HD
ENDBRANCH  18  19
ENDBRANCH  15  18
BRANCH  16  21
HETATM   21  O   UNK N   1      37.812  12.573  12.651  0.00  0.00    -0.393 OA
HETATM   22  H   UNK N   1      38.661  12.527  12.185  0.00  0.00     0.210 HD
ENDBRANCH  16  21
ENDBRANCH   2  13
TORSDOF 4
ENDMDL
MODEL 4
REMARK VINA RESULT:      -5.5     17.836     20.299
REMARK  4 active torsions:
REMARK  status: ('A' for Active; 'I' for Inactive)
REMARK    1  A    between atoms: C_11  and  O_2 
REMARK    2  A    between atoms: O_3  and  C_15 
REMARK    3  A    between atoms: C_14  and  N_5 
REMARK       I    between atoms: N_10  and  C_18 
REMARK    4  A    between atoms: C_13  and  C_15 
ROOT
HETATM    1  O   UNK N   1      24.808  20.865   2.259  0.00  0.00    -0.246 OA
HETATM    2  N   UNK N   1      23.830  19.492   3.781  0.00  0.00    -0.267 N 
HETATM    3  N   UNK N   1      26.194  19.671   3.533  0.00  0.00    -0.141 N 
ATOM      4  HN  UNK N   1      27.006  20.085   3.075  1.00  0.00     0.189 HD
HETATM    5  N   UNK N   1      25.292  18.196   5.116  0.00  0.00    -0.188 N 
ATOM      6  HN  UNK N   1      25.426  17.505   5.853  1.00  0.00     0.185 HD
HETATM    7  N   UNK N   1      27.666  18.345   4.875  0.00  0.00    -0.234 N 
HETATM    8  C   UNK N   1      24.936  20.053   3.160  0.00  0.00     0.343 A 
HETATM    9  C   UNK N   1      24.038  18.557   4.752  0.00  0.00     0.207 A 
HETATM   10  C   UNK N   1      26.367  18.747   4.508  0.00  0.00     0.680 A 
HETATM   11  H   UNK N   1      27.808  17.793   5.677  0.00  0.00     0.174 HD
HETATM   12  H   UNK N   1      28.436  18.618   4.325  0.00  0.00     0.174 HD
ENDROOT
BRANCH   2  13
HETATM   13  C   UNK N   1      22.428  19.770   3.411  0.00  0.00     0.236 C 
HETATM   14  O   UNK N   1      22.327  20.629   2.308  0.00  0.00    -0.356 OA
HETATM   15  C   UNK N   1      20.949  20.596   2.099  0.00  0.00     0.176 C 
HETATM   16  C   UNK N   1      20.585  19.132   2.076  0.00  0.00     0.153 C 
HETATM   17  C   UNK N   1      21.519  18.575   3.125  0.00  0.00     0.088 C 
BRANCH  15  18
HETATM   18  C   UNK N   1      20.550  21.332   0.837  0.00  0.00     0.198 C 
BRANCH  18  19
HETATM   19  O   UNK N   1      20.508  20.430  -0.228  0.00  0.00    -0.398 OA
HETATM   20  H   UNK N   1      19.893  20.501  -0.975  0.00  0.00     0.209 HD
ENDBRANCH  18  19
ENDBRANCH  15  18
BRANCH  16  21
HETATM   21  O   UNK N   1      19.253  18.955   2.451  0.00  0.00    -0.393 OA
HETATM   22  H   UNK N   1      18.606  18.303   2.141  0.00  0.00     0.210 HD
ENDBRANCH  16  21
ENDBRANCH   2  13
TORSDOF 4
ENDMDL
MODEL 5
REMARK VINA RESULT:      -5.4      8.988     12.499
REMARK  4 active torsions:
REMARK  status: ('A' for Active; 'I' for Inactive)
REMARK    1  A    between atoms: C_11  and  O_2 
REMARK    2  A    between atoms: O_3  and  C_15 
REMARK    3  A    between atoms: C_14  and  N_5 
REMARK       I    between atoms: N_10  and  C_18 
REMARK    4  A    between atoms: C_13  and  C_15 
ROOT
HETATM    1  O   UNK N   1      32.344  14.711   8.219  0.00  0.00    -0.246 OA
HETATM    2  N   UNK N   1      33.169  16.642   7.353  0.00  0.00    -0.267 N 
HETATM    3  N   UNK N   1      33.746  15.850   9.525  0.00  0.00    -0.141 N 
ATOM      4  HN  UNK N   1      33.667  15.146  10.260  1.00  0.00     0.189 HD
HETATM    5  N   UNK N   1      34.633  17.874   8.745  0.00  0.00    -0.188 N 
ATOM      6  HN  UNK N   1      35.226  18.690   8.889  1.00  0.00     0.185 HD
HETATM    7  N   UNK N   1      35.214  17.110  10.934  0.00  0.00    -0.234 N 
HETATM    8  C   UNK N   1      33.064  15.687   8.352  0.00  0.00     0.343 A 
HETATM    9  C   UNK N   1      33.956  17.733   7.579  0.00  0.00     0.207 A 
HETATM   10  C   UNK N   1      34.527  16.939   9.716  0.00  0.00     0.680 A 
HETATM   11  H   UNK N   1      35.897  17.813  11.027  0.00  0.00     0.174 HD
HETATM   12  H   UNK N   1      35.009  16.523  11.698  0.00  0.00     0.174 HD
ENDROOT
BRANCH   2  13
HETATM   13  C   UNK N   1      32.422  16.610   6.079  0.00  0.00     0.236 C 
HETATM   14  O   UNK N   1      31.120  17.109   6.211  0.00  0.00    -0.356 OA
HETATM   15  C   UNK N   1      30.718  17.099   4.876  0.00  0.00     0.176 C 
HETATM   16  C   UNK N   1      31.825  17.794   4.123  0.00  0.00     0.153 C 
HETATM   17  C   UNK N   1      33.045  17.315   4.874  0.00  0.00     0.088 C 
BRANCH  15  18
HETATM   18  C   UNK N   1      29.364  17.750   4.687  0.00  0.00     0.198 C 
BRANCH  18  19
HETATM   19  O   UNK N   1      28.939  17.552   3.372  0.00  0.00    -0.398 OA
HETATM   20  H   UNK N   1      28.297  16.875   3.105  0.00  0.00     0.209 HD
ENDBRANCH  18  19
ENDBRANCH  15  18
BRANCH  16  21
HETATM   21  O   UNK N   1      31.857  17.363   2.796  0.00  0.00    -0.393 OA
HETATM   22  H   UNK N   1      32.355  17.719   2.043  0.00  0.00     0.210 HD
ENDBRANCH  16  21
ENDBRANCH   2  13
TORSDOF 4
ENDMDL
MODEL 6
REMARK VINA RESULT:      -5.4     22.145     24.420
REMARK  4 active torsions:
REMARK  status: ('A' for Active; 'I' for Inactive)
REMARK    1  A    between atoms: C_11  and  O_2 
REMARK    2  A    between atoms: O_3  and  C_15 
REMARK    3  A    between atoms: C_14  and  N_5 
REMARK       I    between atoms: N_10  and  C_18 
REMARK    4  A    between atoms: C_13  and  C_15 
ROOT
HETATM    1  O   UNK N   1      30.841  22.966  -1.868  0.00  0.00    -0.246 OA
HETATM    2  N   UNK N   1      29.995  22.512  -3.927  0.00  0.00    -0.267 N 
HETATM    3  N   UNK N   1      31.747  21.233  -2.937  0.00  0.00    -0.141 N 
ATOM      4  HN  UNK N   1      32.375  21.051  -2.155  1.00  0.00     0.189 HD
HETATM    5  N   UNK N   1      30.973  20.693  -5.083  0.00  0.00    -0.188 N 
ATOM      6  HN  UNK N   1      31.014  20.101  -5.912  1.00  0.00     0.185 HD
HETATM    7  N   UNK N   1      32.743  19.406  -4.120  0.00  0.00    -0.234 N 
HETATM    8  C   UNK N   1      30.850  22.262  -2.864  0.00  0.00     0.343 A 
HETATM    9  C   UNK N   1      30.084  21.715  -5.030  0.00  0.00     0.207 A 
HETATM   10  C   UNK N   1      31.804  20.454  -4.043  0.00  0.00     0.680 A 
HETATM   11  H   UNK N   1      32.692  18.745  -4.847  0.00  0.00     0.174 HD
HETATM   12  H   UNK N   1      33.453  19.336  -3.442  0.00  0.00     0.174 HD
ENDROOT
BRANCH   2  13
HETATM   13  C   UNK N   1      29.041  23.637  -3.991  0.00  0.00     0.236 C 
HETATM   14  O   UNK N   1      28.377  23.704  -5.222  0.00  0.00    -0.356 OA
HETATM   15  C   UNK N   1      27.468  24.727  -4.953  0.00  0.00     0.176 C 
HETATM   16  C   UNK N   1      26.812  24.343  -3.650  0.00  0.00     0.153 C 
HETATM   17  C   UNK N   1      27.969  23.720  -2.904  0.00  0.00     0.088 C 
BRANCH  15  18
HETATM   18  C   UNK N   1      26.482  24.921  -6.086  0.00  0.00     0.198 C 
BRANCH  18  19
HETATM   19  O   UNK N   1      25.184  24.755  -5.599  0.00  0.00    -0.398 OA
HETATM   20  H   UNK N   1      24.607  24.011  -5.835  0.00  0.00     0.209 HD
ENDBRANCH  18  19
ENDBRANCH  15  18
BRANCH  16  21
HETATM   21  O   UNK N   1      26.345  25.478  -2.986  0.00  0.00    -0.393 OA
HETATM   22  H   UNK N   1      25.449  25.691  -2.683  0.00  0.00     0.210 HD
ENDBRANCH  16  21
ENDBRANCH   2  13
TORSDOF 4
ENDMDL
MODEL 7
REMARK VINA RESULT:      -5.3      7.947     10.381
REMARK  4 active torsions:
REMARK  status: ('A' for Active; 'I' for Inactive)
REMARK    1  A    between atoms: C_11  and  O_2 
REMARK    2  A    between atoms: O_3  and  C_15 
REMARK    3  A    between atoms: C_14  and  N_5 
REMARK       I    between atoms: N_10  and  C_18 
REMARK    4  A    between atoms: C_13  and  C_15 
ROOT
HETATM    1  O   UNK N   1      30.349  16.771   7.142  0.00  0.00    -0.246 OA
HETATM    2  N   UNK N   1      32.573  17.061   6.786  0.00  0.00    -0.267 N 
HETATM    3  N   UNK N   1      30.965  17.115   5.028  0.00  0.00    -0.141 N 
ATOM      4  HN  UNK N   1      29.996  17.058   4.713  1.00  0.00     0.189 HD
HETATM    5  N   UNK N   1      33.241  17.395   4.541  0.00  0.00    -0.188 N 
ATOM      6  HN  UNK N   1      33.983  17.556   3.861  1.00  0.00     0.185 HD
HETATM    7  N   UNK N   1      31.649  17.436   2.757  0.00  0.00    -0.234 N 
HETATM    8  C   UNK N   1      31.257  16.985   6.357  0.00  0.00     0.343 A 
HETATM    9  C   UNK N   1      33.548  17.259   5.854  0.00  0.00     0.207 A 
HETATM   10  C   UNK N   1      31.955  17.320   4.127  0.00  0.00     0.680 A 
HETATM   11  H   UNK N   1      32.335  17.734   2.117  0.00  0.00     0.174 HD
HETATM   12  H   UNK N   1      30.743  17.218   2.438  0.00  0.00     0.174 HD
ENDROOT
BRANCH   2  13
HETATM   13  C   UNK N   1      33.014  16.861   8.181  0.00  0.00     0.236 C 
HETATM   14  O   UNK N   1      33.194  15.508   8.495  0.00  0.00    -0.356 OA
HETATM   15  C   UNK N   1      33.735  15.624   9.775  0.00  0.00     0.176 C 
HETATM   16  C   UNK N   1      34.855  16.626   9.644  0.00  0.00     0.153 C 
HETATM   17  C   UNK N   1      34.276  17.593   8.638  0.00  0.00     0.088 C 
BRANCH  15  18
HETATM   18  C   UNK N   1      34.187  14.287  10.323  0.00  0.00     0.198 C 
BRANCH  18  19
HETATM   19  O   UNK N   1      34.155  14.328  11.718  0.00  0.00    -0.398 OA
HETATM   20  H   UNK N   1      34.802  13.883  12.289  0.00  0.00     0.209 HD
ENDBRANCH  18  19
ENDBRANCH  15  18
BRANCH  16  21
HETATM   21  O   UNK N   1      35.088  17.259  10.866  0.00  0.00    -0.393 OA
HETATM   22  H   UNK N   1      35.882  17.717  11.182  0.00  0.00     0.210 HD
ENDBRANCH  16  21
ENDBRANCH   2  13
TORSDOF 4
ENDMDL
MODEL 8
REMARK VINA RESULT:      -5.3      6.968     10.095
REMARK  4 active torsions:
REMARK  status: ('A' for Active; 'I' for Inactive)
REMARK    1  A    between atoms: C_11  and  O_2 
REMARK    2  A    between atoms: O_3  and  C_15 
REMARK    3  A    between atoms: C_14  and  N_5 
REMARK       I    between atoms: N_10  and  C_18 
REMARK    4  A    between atoms: C_13  and  C_15 
ROOT
HETATM    1  O   UNK N   1      35.849  17.639  10.437  0.00  0.00    -0.246 OA
HETATM    2  N   UNK N   1      34.577  15.843   9.875  0.00  0.00    -0.267 N 
HETATM    3  N   UNK N   1      36.458  15.691  11.331  0.00  0.00    -0.141 N 
ATOM      4  HN  UNK N   1      37.231  16.135  11.827  1.00  0.00     0.189 HD
HETATM    5  N   UNK N   1      35.235  13.764  10.795  0.00  0.00    -0.188 N 
ATOM      6  HN  UNK N   1      35.084  12.761  10.892  1.00  0.00     0.185 HD
HETATM    7  N   UNK N   1      37.128  13.582  12.243  0.00  0.00    -0.234 N 
HETATM    8  C   UNK N   1      35.628  16.445  10.550  0.00  0.00     0.343 A 
HETATM    9  C   UNK N   1      34.408  14.496  10.009  0.00  0.00     0.207 A 
HETATM   10  C   UNK N   1      36.259  14.357  11.451  0.00  0.00     0.680 A 
HETATM   11  H   UNK N   1      36.906  12.647  12.458  0.00  0.00     0.174 HD
HETATM   12  H   UNK N   1      37.963  13.978  12.584  0.00  0.00     0.174 HD
ENDROOT
BRANCH   2  13
HETATM   13  C   UNK N   1      33.666  16.542   8.947  0.00  0.00     0.236 C 
HETATM   14  O   UNK N   1      34.235  16.733   7.682  0.00  0.00    -0.356 OA
HETATM   15  C   UNK N   1      33.140  17.258   6.998  0.00  0.00     0.176 C 
HETATM   16  C   UNK N   1      32.000  16.312   7.286  0.00  0.00     0.153 C 
HETATM   17  C   UNK N   1      32.281  15.934   8.722  0.00  0.00     0.088 C 
BRANCH  15  18
HETATM   18  C   UNK N   1      33.421  17.425   5.520  0.00  0.00     0.198 C 
BRANCH  18  19
HETATM   19  O   UNK N   1      32.490  16.684   4.788  0.00  0.00    -0.398 OA
HETATM   20  H   UNK N   1      32.307  16.822   3.845  0.00  0.00     0.209 HD
ENDBRANCH  18  19
ENDBRANCH  15  18
BRANCH  16  21
HETATM   21  O   UNK N   1      30.777  16.975   7.176  0.00  0.00    -0.393 OA
HETATM   22  H   UNK N   1      30.419  17.702   7.709  0.00  0.00     0.210 HD
ENDBRANCH  16  21
ENDBRANCH   2  13
TORSDOF 4
ENDMDL
MODEL 9
REMARK VINA RESULT:      -5.2     25.524     27.317
REMARK  4 active torsions:
REMARK  status: ('A' for Active; 'I' for Inactive)
REMARK    1  A    between atoms: C_11  and  O_2 
REMARK    2  A    between atoms: O_3  and  C_15 
REMARK    3  A    between atoms: C_14  and  N_5 
REMARK       I    between atoms: N_10  and  C_18 
REMARK    4  A    between atoms: C_13  and  C_15 
ROOT
HETATM    1  O   UNK N   1      27.062  24.560  -2.912  0.00  0.00    -0.246 OA
HETATM    2  N   UNK N   1      26.246  25.116  -4.957  0.00  0.00    -0.267 N 
HETATM    3  N   UNK N   1      26.387  26.670  -3.155  0.00  0.00    -0.141 N 
ATOM      4  HN  UNK N   1      26.644  26.887  -2.192  1.00  0.00     0.189 HD
HETATM    5  N   UNK N   1      25.496  27.346  -5.215  0.00  0.00    -0.188 N 
ATOM      6  HN  UNK N   1      25.090  28.072  -5.804  1.00  0.00     0.185 HD
HETATM    7  N   UNK N   1      25.610  28.919  -3.418  0.00  0.00    -0.234 N 
HETATM    8  C   UNK N   1      26.596  25.413  -3.648  0.00  0.00     0.343 A 
HETATM    9  C   UNK N   1      25.689  26.102  -5.718  0.00  0.00     0.207 A 
HETATM   10  C   UNK N   1      25.840  27.630  -3.938  0.00  0.00     0.680 A 
HETATM   11  H   UNK N   1      25.357  29.659  -4.016  0.00  0.00     0.174 HD
HETATM   12  H   UNK N   1      25.704  29.080  -2.451  0.00  0.00     0.174 HD
ENDROOT
BRANCH   2  13
HETATM   13  C   UNK N   1      26.355  23.779  -5.573  0.00  0.00     0.236 C 
HETATM   14  O   UNK N   1      25.241  23.461  -6.360  0.00  0.00    -0.356 OA
HETATM   15  C   UNK N   1      25.670  22.256  -6.914  0.00  0.00     0.176 C 
HETATM   16  C   UNK N   1      27.048  22.537  -7.460  0.00  0.00     0.153 C 
HETATM   17  C   UNK N   1      27.594  23.487  -6.420  0.00  0.00     0.088 C 
BRANCH  15  18
HETATM   18  C   UNK N   1      24.706  21.738  -7.960  0.00  0.00     0.198 C 
BRANCH  18  19
HETATM   19  O   UNK N   1      25.285  20.653  -8.623  0.00  0.00    -0.398 OA
HETATM   20  H   UNK N   1      26.155  20.285  -8.402  0.00  0.00     0.209 HD
ENDBRANCH  18  19
ENDBRANCH  15  18
BRANCH  16  21
HETATM   21  O   UNK N   1      27.803  21.364  -7.506  0.00  0.00    -0.393 OA
HETATM   22  H   UNK N   1      27.509  20.443  -7.586  0.00  0.00     0.210 HD
ENDBRANCH  16  21
ENDBRANCH   2  13
TORSDOF 4
ENDMDL
