MODEL 1
REMARK VINA RESULT:      -6.3      0.000      0.000
REMARK  4 active torsions:
REMARK  status: ('A' for Active; 'I' for Inactive)
REMARK    1  A    between atoms: C_8  and  O_2 
REMARK    2  A    between atoms: O_3  and  C_12 
REMARK    3  A    between atoms: C_9  and  N_6 
REMARK    4  A    between atoms: C_11  and  C_12 
ROOT
HETATM    1  O   UNK N   1      22.737  17.015   5.469  0.00  0.00    -0.246 OA
HETATM    2  O   UNK N   1      27.088  18.022   5.342  0.00  0.00    -0.267 OA
HETATM    3  N   UNK N   1      23.352  18.755   4.139  0.00  0.00    -0.282 N 
HETATM    4  N   UNK N   1      24.917  17.482   5.423  0.00  0.00    -0.275 N 
HETATM    5  C   UNK N   1      24.378  19.534   3.693  0.00  0.00     0.110 A 
HETATM    6  C   UNK N   1      23.626  17.715   5.022  0.00  0.00     0.331 A 
HETATM    7  C   UNK N   1      25.691  19.299   4.084  0.00  0.00     0.022 A 
HETATM    8  C   UNK N   1      25.950  18.252   4.969  0.00  0.00     0.256 A 
HETATM    9  C   UNK N   1      26.783  20.162   3.552  0.00  0.00     0.056 C 
HETATM   10  H   UNK N   1      25.103  16.746   6.050  0.00  0.00     0.173 HD
ENDROOT
BRANCH   3  11
HETATM   11  C   UNK N   1      22.001  19.124   3.668  0.00  0.00     0.235 C 
HETATM   12  O   UNK N   1      22.046  20.192   2.760  0.00  0.00    -0.356 OA
HETATM   13  C   UNK N   1      20.727  20.213   2.306  0.00  0.00     0.176 C 
HETATM   14  C   UNK N   1      20.400  18.784   1.958  0.00  0.00     0.153 C 
HETATM   15  C   UNK N   1      21.160  18.025   3.017  0.00  0.00     0.088 C 
BRANCH  13  16
HETATM   16  C   UNK N   1      20.562  21.148   1.123  0.00  0.00     0.198 C 
BRANCH  16  17
HETATM   17  O   UNK N   1      20.544  20.404  -0.058  0.00  0.00    -0.398 OA
HETATM   18  H   UNK N   1      19.858  19.749  -0.259  0.00  0.00     0.209 HD
ENDBRANCH  16  17
ENDBRANCH  13  16
BRANCH  14  19
HETATM   19  O   UNK N   1      19.028  18.557   2.074  0.00  0.00    -0.393 OA
HETATM   20  H   UNK N   1      18.289  19.103   1.763  0.00  0.00     0.210 HD
ENDBRANCH  14  19
ENDBRANCH   3  11
TORSDOF 4
ENDMDL
MODEL 2
REMARK VINA RESULT:      -6.1      6.267      7.839
REMARK  4 active torsions:
REMARK  status: ('A' for Active; 'I' for Inactive)
REMARK    1  A    between atoms: C_8  and  O_2 
REMARK    2  A    between atoms: O_3  and  C_12 
REMARK    3  A    between atoms: C_9  and  N_6 
REMARK    4  A    between atoms: C_11  and  C_12 
ROOT
HETATM    1  O   UNK N   1      19.625  12.899  10.690  0.00  0.00    -0.246 OA
HETATM    2  O   UNK N   1      23.688  11.418  11.808  0.00  0.00    -0.267 OA
HETATM    3  N   UNK N   1      21.382  13.724   9.504  0.00  0.00    -0.282 N 
HETATM    4  N   UNK N   1      21.636  12.130  11.270  0.00  0.00    -0.275 N 
HETATM    5  C   UNK N   1      22.736  13.731   9.340  0.00  0.00     0.110 A 
HETATM    6  C   UNK N   1      20.825  12.913  10.488  0.00  0.00     0.331 A 
HETATM    7  C   UNK N   1      23.566  12.932  10.119  0.00  0.00     0.022 A 
HETATM    8  C   UNK N   1      22.992  12.125  11.100  0.00  0.00     0.256 A 
HETATM    9  C   UNK N   1      25.038  12.956   9.887  0.00  0.00     0.056 C 
HETATM   10  H   UNK N   1      21.234  11.561  11.965  0.00  0.00     0.173 HD
ENDROOT
BRANCH   3  11
HETATM   11  C   UNK N   1      20.614  14.634   8.630  0.00  0.00     0.235 C 
HETATM   12  O   UNK N   1      20.308  15.838   9.282  0.00  0.00    -0.356 OA
HETATM   13  C   UNK N   1      19.794  16.591   8.227  0.00  0.00     0.176 C 
HETATM   14  C   UNK N   1      20.786  16.434   7.103  0.00  0.00     0.153 C 
HETATM   15  C   UNK N   1      21.237  15.007   7.285  0.00  0.00     0.088 C 
BRANCH  13  16
HETATM   16  C   UNK N   1      19.597  18.041   8.624  0.00  0.00     0.198 C 
BRANCH  16  17
HETATM   17  O   UNK N   1      20.529  18.837   7.957  0.00  0.00    -0.398 OA
HETATM   18  H   UNK N   1      21.063  19.512   8.404  0.00  0.00     0.209 HD
ENDBRANCH  16  17
ENDBRANCH  13  16
BRANCH  14  19
HETATM   19  O   UNK N   1      20.153  16.601   5.870  0.00  0.00    -0.393 OA
HETATM   20  H   UNK N   1      20.244  16.076   5.060  0.00  0.00     0.210 HD
ENDBRANCH  14  19
ENDBRANCH   3  11
TORSDOF 4
ENDMDL
MODEL 3
REMARK VINA RESULT:      -6.0      5.751      8.827
REMARK  4 active torsions:
REMARK  status: ('A' for Active; 'I' for Inactive)
REMARK    1  A    between atoms: C_8  and  O_2 
REMARK    2  A    between atoms: O_3  and  C_12 
REMARK    3  A    between atoms: C_9  and  N_6 
REMARK    4  A    between atoms: C_11  and  C_12 
ROOT
HETATM    1  O   UNK N   1      23.080  14.818   6.358  0.00  0.00    -0.246 OA
HETATM    2  O   UNK N   1      20.756  18.628   6.564  0.00  0.00    -0.267 OA
HETATM    3  N   UNK N   1      21.652  15.058   8.112  0.00  0.00    -0.282 N 
HETATM    4  N   UNK N   1      21.930  16.728   6.422  0.00  0.00    -0.275 N 
HETATM    5  C   UNK N   1      20.756  15.870   8.741  0.00  0.00     0.110 A 
HETATM    6  C   UNK N   1      22.252  15.497   6.935  0.00  0.00     0.331 A 
HETATM    7  C   UNK N   1      20.414  17.114   8.223  0.00  0.00     0.022 A 
HETATM    8  C   UNK N   1      21.023  17.539   7.043  0.00  0.00     0.256 A 
HETATM    9  C   UNK N   1      19.412  17.957   8.934  0.00  0.00     0.056 C 
HETATM   10  H   UNK N   1      22.361  17.032   5.590  0.00  0.00     0.173 HD
ENDROOT
BRANCH   3  11
HETATM   11  C   UNK N   1      21.947  13.772   8.777  0.00  0.00     0.235 C 
HETATM   12  O   UNK N   1      23.306  13.661   9.105  0.00  0.00    -0.356 OA
HETATM   13  C   UNK N   1      23.299  12.507   9.888  0.00  0.00     0.176 C 
HETATM   14  C   UNK N   1      22.175  12.699  10.874  0.00  0.00     0.153 C 
HETATM   15  C   UNK N   1      21.158  13.440  10.044  0.00  0.00     0.088 C 
BRANCH  13  16
HETATM   16  C   UNK N   1      24.635  12.291  10.571  0.00  0.00     0.198 C 
BRANCH  16  17
HETATM   17  O   UNK N   1      24.456  12.293  11.955  0.00  0.00    -0.398 OA
HETATM   18  H   UNK N   1      25.176  12.120  12.582  0.00  0.00     0.209 HD
ENDBRANCH  16  17
ENDBRANCH  13  16
BRANCH  14  19
HETATM   19  O   UNK N   1      21.673  11.463  11.285  0.00  0.00    -0.393 OA
HETATM   20  H   UNK N   1      21.257  11.221  12.127  0.00  0.00     0.210 HD
ENDBRANCH  14  19
ENDBRANCH   3  11
TORSDOF 4
ENDMDL
MODEL 4
REMARK VINA RESULT:      -5.9     14.425     17.543
REMARK  4 active torsions:
REMARK  status: ('A' for Active; 'I' for Inactive)
REMARK    1  A    between atoms: C_8  and  O_2 
REMARK    2  A    between atoms: O_3  and  C_12 
REMARK    3  A    between atoms: C_9  and  N_6 
REMARK    4  A    between atoms: C_11  and  C_12 
ROOT
HETATM    1  O   UNK N   1      35.906  10.498  13.497  0.00  0.00    -0.246 OA
HETATM    2  O   UNK N   1      35.084  10.930  17.867  0.00  0.00    -0.267 OA
HETATM    3  N   UNK N   1      35.800  12.616  14.319  0.00  0.00    -0.282 N 
HETATM    4  N   UNK N   1      35.504  10.673  15.683  0.00  0.00    -0.275 N 
HETATM    5  C   UNK N   1      35.588  13.397  15.417  0.00  0.00     0.110 A 
HETATM    6  C   UNK N   1      35.753  11.232  14.455  0.00  0.00     0.331 A 
HETATM    7  C   UNK N   1      35.347  12.841  16.668  0.00  0.00     0.022 A 
HETATM    8  C   UNK N   1      35.303  11.453  16.788  0.00  0.00     0.256 A 
HETATM    9  C   UNK N   1      35.143  13.735  17.842  0.00  0.00     0.056 C 
HETATM   10  H   UNK N   1      35.470   9.694  15.771  0.00  0.00     0.173 HD
ENDROOT
BRANCH   3  11
HETATM   11  C   UNK N   1      36.023  13.329  13.044  0.00  0.00     0.235 C 
HETATM   12  O   UNK N   1      34.885  13.286  12.225  0.00  0.00    -0.356 OA
HETATM   13  C   UNK N   1      35.249  14.177  11.215  0.00  0.00     0.176 C 
HETATM   14  C   UNK N   1      35.766  15.400  11.928  0.00  0.00     0.153 C 
HETATM   15  C   UNK N   1      36.455  14.793  13.125  0.00  0.00     0.088 C 
BRANCH  13  16
HETATM   16  C   UNK N   1      34.077  14.492  10.305  0.00  0.00     0.198 C 
BRANCH  16  17
HETATM   17  O   UNK N   1      33.041  15.048  11.056  0.00  0.00    -0.398 OA
HETATM   18  H   UNK N   1      33.044  15.969  11.360  0.00  0.00     0.209 HD
ENDBRANCH  16  17
ENDBRANCH  13  16
BRANCH  14  19
HETATM   19  O   UNK N   1      36.681  16.080  11.122  0.00  0.00    -0.393 OA
HETATM   20  H   UNK N   1      37.613  15.877  10.950  0.00  0.00     0.210 HD
ENDBRANCH  14  19
ENDBRANCH   3  11
TORSDOF 4
ENDMDL
MODEL 5
REMARK VINA RESULT:      -5.9      7.800     11.583
REMARK  4 active torsions:
REMARK  status: ('A' for Active; 'I' for Inactive)
REMARK    1  A    between atoms: C_8  and  O_2 
REMARK    2  A    between atoms: O_3  and  C_12 
REMARK    3  A    between atoms: C_9  and  N_6 
REMARK    4  A    between atoms: C_11  and  C_12 
ROOT
HETATM    1  O   UNK N   1      29.566  17.218   7.789  0.00  0.00    -0.246 OA
HETATM    2  O   UNK N   1      29.466  16.895   3.335  0.00  0.00    -0.267 OA
HETATM    3  N   UNK N   1      31.567  17.270   6.709  0.00  0.00    -0.282 N 
HETATM    4  N   UNK N   1      29.476  17.064   5.566  0.00  0.00    -0.275 N 
HETATM    5  C   UNK N   1      32.210  17.204   5.508  0.00  0.00     0.110 A 
HETATM    6  C   UNK N   1      30.178  17.195   6.738  0.00  0.00     0.331 A 
HETATM    7  C   UNK N   1      31.507  17.085   4.314  0.00  0.00     0.022 A 
HETATM    8  C   UNK N   1      30.115  17.010   4.360  0.00  0.00     0.256 A 
HETATM    9  C   UNK N   1      32.252  17.039   3.025  0.00  0.00     0.056 C 
HETATM   10  H   UNK N   1      28.494  17.009   5.595  0.00  0.00     0.173 HD
ENDROOT
BRANCH   3  11
HETATM   11  C   UNK N   1      32.429  17.374   7.905  0.00  0.00     0.235 C 
HETATM   12  O   UNK N   1      32.635  16.121   8.501  0.00  0.00    -0.356 OA
HETATM   13  C   UNK N   1      33.617  16.431   9.442  0.00  0.00     0.176 C 
HETATM   14  C   UNK N   1      34.656  17.222   8.690  0.00  0.00     0.153 C 
HETATM   15  C   UNK N   1      33.807  18.010   7.724  0.00  0.00     0.088 C 
BRANCH  13  16
HETATM   16  C   UNK N   1      34.193  15.179  10.077  0.00  0.00     0.198 C 
BRANCH  16  17
HETATM   17  O   UNK N   1      33.514  14.907  11.265  0.00  0.00    -0.398 OA
HETATM   18  H   UNK N   1      33.968  14.699  12.097  0.00  0.00     0.209 HD
ENDBRANCH  16  17
ENDBRANCH  13  16
BRANCH  14  19
HETATM   19  O   UNK N   1      35.339  18.075   9.559  0.00  0.00    -0.393 OA
HETATM   20  H   UNK N   1      34.997  18.816  10.083  0.00  0.00     0.210 HD
ENDBRANCH  14  19
ENDBRANCH   3  11
TORSDOF 4
ENDMDL
MODEL 6
REMARK VINA RESULT:      -5.8      8.311     11.110
REMARK  4 active torsions:
REMARK  status: ('A' for Active; 'I' for Inactive)
REMARK    1  A    between atoms: C_8  and  O_2 
REMARK    2  A    between atoms: O_3  and  C_12 
REMARK    3  A    between atoms: C_9  and  N_6 
REMARK    4  A    between atoms: C_11  and  C_12 
ROOT
HETATM    1  O   UNK N   1      33.364  18.513   8.108  0.00  0.00    -0.246 OA
HETATM    2  O   UNK N   1      36.397  16.427  10.639  0.00  0.00    -0.267 OA
HETATM    3  N   UNK N   1      32.753  16.517   9.012  0.00  0.00    -0.282 N 
HETATM    4  N   UNK N   1      34.900  17.506   9.373  0.00  0.00    -0.275 N 
HETATM    5  C   UNK N   1      33.135  15.452   9.773  0.00  0.00     0.110 A 
HETATM    6  C   UNK N   1      33.652  17.558   8.806  0.00  0.00     0.331 A 
HETATM    7  C   UNK N   1      34.393  15.395  10.362  0.00  0.00     0.022 A 
HETATM    8  C   UNK N   1      35.283  16.447  10.147  0.00  0.00     0.256 A 
HETATM    9  C   UNK N   1      34.757  14.221  11.205  0.00  0.00     0.056 C 
HETATM   10  H   UNK N   1      35.532  18.246   9.221  0.00  0.00     0.173 HD
ENDROOT
BRANCH   3  11
HETATM   11  C   UNK N   1      31.399  16.446   8.423  0.00  0.00     0.235 C 
HETATM   12  O   UNK N   1      30.553  17.427   8.958  0.00  0.00    -0.356 OA
HETATM   13  C   UNK N   1      29.442  17.307   8.123  0.00  0.00     0.176 C 
HETATM   14  C   UNK N   1      29.994  17.301   6.721  0.00  0.00     0.153 C 
HETATM   15  C   UNK N   1      31.290  16.549   6.901  0.00  0.00     0.088 C 
BRANCH  13  16
HETATM   16  C   UNK N   1      28.453  18.434   8.348  0.00  0.00     0.198 C 
BRANCH  16  17
HETATM   17  O   UNK N   1      27.537  18.059   9.332  0.00  0.00    -0.398 OA
HETATM   18  H   UNK N   1      27.611  17.233   9.835  0.00  0.00     0.209 HD
ENDBRANCH  16  17
ENDBRANCH  13  16
BRANCH  14  19
HETATM   19  O   UNK N   1      29.136  16.610   5.864  0.00  0.00    -0.393 OA
HETATM   20  H   UNK N   1      28.303  16.904   5.465  0.00  0.00     0.210 HD
ENDBRANCH  14  19
ENDBRANCH   3  11
TORSDOF 4
ENDMDL
MODEL 7
REMARK VINA RESULT:      -5.7      9.986     11.049
REMARK  4 active torsions:
REMARK  status: ('A' for Active; 'I' for Inactive)
REMARK    1  A    between atoms: C_8  and  O_2 
REMARK    2  A    between atoms: O_3  and  C_12 
REMARK    3  A    between atoms: C_9  and  N_6 
REMARK    4  A    between atoms: C_11  and  C_12 
ROOT
HETATM    1  O   UNK N   1      30.810  22.848  -1.812  0.00  0.00    -0.246 OA
HETATM    2  O   UNK N   1      32.025  19.447  -4.441  0.00  0.00    -0.267 OA
HETATM    3  N   UNK N   1      29.879  22.767  -3.886  0.00  0.00    -0.282 N 
HETATM    4  N   UNK N   1      31.433  21.131  -3.092  0.00  0.00    -0.275 N 
HETATM    5  C   UNK N   1      29.819  22.106  -5.077  0.00  0.00     0.110 A 
HETATM    6  C   UNK N   1      30.702  22.273  -2.879  0.00  0.00     0.331 A 
HETATM    7  C   UNK N   1      30.545  20.942  -5.299  0.00  0.00     0.022 A 
HETATM    8  C   UNK N   1      31.366  20.459  -4.280  0.00  0.00     0.256 A 
HETATM    9  C   UNK N   1      30.430  20.241  -6.609  0.00  0.00     0.056 C 
HETATM   10  H   UNK N   1      32.015  20.790  -2.376  0.00  0.00     0.173 HD
ENDROOT
BRANCH   3  11
HETATM   11  C   UNK N   1      29.078  24.005  -3.786  0.00  0.00     0.235 C 
HETATM   12  O   UNK N   1      28.779  24.529  -5.052  0.00  0.00    -0.356 OA
HETATM   13  C   UNK N   1      27.867  25.531  -4.719  0.00  0.00     0.176 C 
HETATM   14  C   UNK N   1      26.878  24.878  -3.788  0.00  0.00     0.153 C 
HETATM   15  C   UNK N   1      27.759  23.926  -3.017  0.00  0.00     0.088 C 
BRANCH  13  16
HETATM   16  C   UNK N   1      27.203  26.110  -5.953  0.00  0.00     0.198 C 
BRANCH  16  17
HETATM   17  O   UNK N   1      25.816  26.055  -5.803  0.00  0.00    -0.398 OA
HETATM   18  H   UNK N   1      25.204  26.554  -6.367  0.00  0.00     0.209 HD
ENDBRANCH  16  17
ENDBRANCH  13  16
BRANCH  14  19
HETATM   19  O   UNK N   1      26.312  25.828  -2.937  0.00  0.00    -0.393 OA
HETATM   20  H   UNK N   1      26.218  25.807  -1.972  0.00  0.00     0.210 HD
ENDBRANCH  14  19
ENDBRANCH   3  11
TORSDOF 4
ENDMDL
MODEL 8
REMARK VINA RESULT:      -5.7      9.956     12.159
REMARK  4 active torsions:
REMARK  status: ('A' for Active; 'I' for Inactive)
REMARK    1  A    between atoms: C_8  and  O_2 
REMARK    2  A    between atoms: O_3  and  C_12 
REMARK    3  A    between atoms: C_9  and  N_6 
REMARK    4  A    between atoms: C_11  and  C_12 
ROOT
HETATM    1  O   UNK N   1      27.123  23.795  -2.302  0.00  0.00    -0.246 OA
HETATM    2  O   UNK N   1      26.462  26.754  -5.582  0.00  0.00    -0.267 OA
HETATM    3  N   UNK N   1      28.667  23.842  -3.972  0.00  0.00    -0.282 N 
HETATM    4  N   UNK N   1      26.765  25.291  -3.916  0.00  0.00    -0.275 N 
HETATM    5  C   UNK N   1      29.040  24.405  -5.156  0.00  0.00     0.110 A 
HETATM    6  C   UNK N   1      27.509  24.290  -3.344  0.00  0.00     0.331 A 
HETATM    7  C   UNK N   1      28.300  25.429  -5.738  0.00  0.00     0.022 A 
HETATM    8  C   UNK N   1      27.141  25.867  -5.097  0.00  0.00     0.256 A 
HETATM    9  C   UNK N   1      28.758  26.029  -7.023  0.00  0.00     0.056 C 
HETATM   10  H   UNK N   1      25.945  25.601  -3.468  0.00  0.00     0.173 HD
ENDROOT
BRANCH   3  11
HETATM   11  C   UNK N   1      29.526  22.749  -3.471  0.00  0.00     0.235 C 
HETATM   12  O   UNK N   1      29.876  21.858  -4.496  0.00  0.00    -0.356 OA
HETATM   13  C   UNK N   1      30.828  21.068  -3.851  0.00  0.00     0.176 C 
HETATM   14  C   UNK N   1      31.765  22.039  -3.181  0.00  0.00     0.153 C 
HETATM   15  C   UNK N   1      30.824  23.142  -2.765  0.00  0.00     0.088 C 
BRANCH  13  16
HETATM   16  C   UNK N   1      31.545  20.155  -4.828  0.00  0.00     0.198 C 
BRANCH  16  17
HETATM   17  O   UNK N   1      32.422  19.325  -4.129  0.00  0.00    -0.398 OA
HETATM   18  H   UNK N   1      32.160  18.463  -3.769  0.00  0.00     0.209 HD
ENDBRANCH  16  17
ENDBRANCH  13  16
BRANCH  14  19
HETATM   19  O   UNK N   1      32.359  21.448  -2.065  0.00  0.00    -0.393 OA
HETATM   20  H   UNK N   1      32.103  20.642  -1.590  0.00  0.00     0.210 HD
ENDBRANCH  14  19
ENDBRANCH   3  11
TORSDOF 4
ENDMDL
MODEL 9
REMARK VINA RESULT:      -5.7      9.695     11.951
REMARK  4 active torsions:
REMARK  status: ('A' for Active; 'I' for Inactive)
REMARK    1  A    between atoms: C_8  and  O_2 
REMARK    2  A    between atoms: O_3  and  C_12 
REMARK    3  A    between atoms: C_9  and  N_6 
REMARK    4  A    between atoms: C_11  and  C_12 
ROOT
HETATM    1  O   UNK N   1      34.913  19.136   8.303  0.00  0.00    -0.246 OA
HETATM    2  O   UNK N   1      35.444  15.937  11.377  0.00  0.00    -0.267 OA
HETATM    3  N   UNK N   1      34.057  17.086   7.814  0.00  0.00    -0.282 N 
HETATM    4  N   UNK N   1      35.189  17.568   9.865  0.00  0.00    -0.275 N 
HETATM    5  C   UNK N   1      33.894  15.797   8.227  0.00  0.00     0.110 A 
HETATM    6  C   UNK N   1      34.718  17.984   8.645  0.00  0.00     0.331 A 
HETATM    7  C   UNK N   1      34.356  15.367   9.466  0.00  0.00     0.022 A 
HETATM    8  C   UNK N   1      35.017  16.280  10.288  0.00  0.00     0.256 A 
HETATM    9  C   UNK N   1      34.135  13.954   9.883  0.00  0.00     0.056 C 
HETATM   10  H   UNK N   1      35.658  18.208  10.446  0.00  0.00     0.173 HD
ENDROOT
BRANCH   3  11
HETATM   11  C   UNK N   1      33.541  17.410   6.467  0.00  0.00     0.235 C 
HETATM   12  O   UNK N   1      34.018  16.509   5.503  0.00  0.00    -0.356 OA
HETATM   13  C   UNK N   1      33.251  16.872   4.396  0.00  0.00     0.176 C 
HETATM   14  C   UNK N   1      31.832  16.944   4.898  0.00  0.00     0.153 C 
HETATM   15  C   UNK N   1      32.024  17.481   6.294  0.00  0.00     0.088 C 
BRANCH  13  16
HETATM   16  C   UNK N   1      33.411  15.879   3.260  0.00  0.00     0.198 C 
BRANCH  16  17
HETATM   17  O   UNK N   1      32.203  15.214   3.050  0.00  0.00    -0.398 OA
HETATM   18  H   UNK N   1      31.691  15.296   2.230  0.00  0.00     0.209 HD
ENDBRANCH  16  17
ENDBRANCH  13  16
BRANCH  14  19
HETATM   19  O   UNK N   1      31.088  17.835   4.123  0.00  0.00    -0.393 OA
HETATM   20  H   UNK N   1      31.360  18.678   3.729  0.00  0.00     0.210 HD
ENDBRANCH  14  19
ENDBRANCH   3  11
TORSDOF 4
ENDMDL
