MODEL 1
REMARK VINA RESULT:      -7.2      0.000      0.000
REMARK  7 active torsions:
REMARK  status: ('A' for Active; 'I' for Inactive)
REMARK    1  A    between atoms: N_4  and  C_8 
REMARK    2  A    between atoms: N_4  and  C_14 
REMARK    3  A    between atoms: N_4  and  C_15 
REMARK    4  A    between atoms: N_6  and  C_12 
REMARK       I    between atoms: N_6  and  C_16 
REMARK    5  A    between atoms: C_8  and  C_12 
REMARK    6  A    between atoms: C_9  and  C_16 
REMARK    7  A    between atoms: C_11  and  C_18 
ROOT
HETATM    1  N   UNK N   1      34.409  16.853  10.051  0.00  0.00    -0.359 N 
HETATM    2  C   UNK N   1      34.024  16.177   7.934  0.00  0.00     0.062 A 
HETATM    3  C   UNK N   1      33.822  15.107   8.788  0.00  0.00    -0.018 A 
HETATM    4  C   UNK N   1      34.086  15.549  10.054  0.00  0.00     0.040 A 
HETATM    5  C   UNK N   1      34.364  17.255   8.768  0.00  0.00     0.022 A 
HETATM    6  C   UNK N   1      33.499  13.693   8.423  0.00  0.00     0.052 C 
HETATM    7  C   UNK N   1      34.803  18.625   8.397  0.00  0.00     0.069 C 
HETATM    8  H   UNK N   1      34.634  17.405  10.834  0.00  0.00     0.166 HD
ENDROOT
BRANCH   4   9
HETATM    9  C   UNK N   1      34.249  14.647  11.191  0.00  0.00     0.048 C 
HETATM   10  C   UNK N   1      35.451  14.147  11.509  0.00  0.00     0.047 A 
HETATM   11  C   UNK N   1      35.695  13.120  12.504  0.00  0.00     0.009 A 
HETATM   12  C   UNK N   1      36.773  14.332  10.866  0.00  0.00     0.257 A 
HETATM   13  C   UNK N   1      37.027  12.777  12.421  0.00  0.00     0.046 A 
HETATM   14  C   UNK N   1      34.823  12.465  13.368  0.00  0.00     0.057 A 
HETATM   15  N   UNK N   1      37.693  13.523  11.427  0.00  0.00    -0.322 N 
HETATM   16  C   UNK N   1      37.572  11.769  13.206  0.00  0.00     0.033 A 
HETATM   17  H   UNK N   1      38.647  13.465  11.190  0.00  0.00     0.169 HD
HETATM   18  C   UNK N   1      36.715  11.097  14.096  0.00  0.00     0.044 A 
HETATM   19  C   UNK N   1      35.347  11.441  14.174  0.00  0.00     0.117 A 
HETATM   20  F   UNK N   1      34.531  10.768  15.018  0.00  0.00    -0.206 F 
HETATM   21  O   UNK N   1      37.033  15.070   9.926  0.00  0.00    -0.267 OA
ENDBRANCH   4   9
BRANCH   2  22
HETATM   22  C   UNK N   1      33.986  16.029   6.443  0.00  0.00     0.254 C 
HETATM   23  O   UNK N   1      35.051  16.006   5.846  0.00  0.00    -0.268 OA
HETATM   24  N   UNK N   1      32.863  15.949   5.699  0.00  0.00    -0.355 N 
HETATM   25  H   UNK N   1      32.981  16.017   4.723  0.00  0.00     0.162 HD
BRANCH  24  26
HETATM   26  C   UNK N   1      31.516  15.775   6.164  0.00  0.00     0.153 C 
BRANCH  26  27
HETATM   27  C   UNK N   1      30.846  17.135   6.341  0.00  0.00     0.292 C 
BRANCH  27  28
HETATM   28  N   UNK N   1      30.071  17.202   7.584  0.00  0.00     0.089 N 
BRANCH  28  29
HETATM   29  C   UNK N   1      28.762  17.807   7.335  0.00  0.00     0.268 C 
HETATM   30  C   UNK N   1      28.565  18.237   5.885  0.00  0.00     0.037 C 
ENDBRANCH  28  29
BRANCH  28  31
HETATM   31  C   UNK N   1      30.799  17.943   8.609  0.00  0.00     0.268 C 
HETATM   32  C   UNK N   1      29.828  18.594   9.580  0.00  0.00     0.037 C 
ENDBRANCH  28  31
ENDBRANCH  27  28
ENDBRANCH  26  27
ENDBRANCH  24  26
ENDBRANCH   2  22
TORSDOF 7
ENDMDL
MODEL 2
REMARK VINA RESULT:      -7.2      3.572      9.160
REMARK  7 active torsions:
REMARK  status: ('A' for Active; 'I' for Inactive)
REMARK    1  A    between atoms: N_4  and  C_8 
REMARK    2  A    between atoms: N_4  and  C_14 
REMARK    3  A    between atoms: N_4  and  C_15 
REMARK    4  A    between atoms: N_6  and  C_12 
REMARK       I    between atoms: N_6  and  C_16 
REMARK    5  A    between atoms: C_8  and  C_12 
REMARK    6  A    between atoms: C_9  and  C_16 
REMARK    7  A    between atoms: C_11  and  C_18 
ROOT
HETATM    1  N   UNK N   1      30.750  15.131   6.429  0.00  0.00    -0.359 N 
HETATM    2  C   UNK N   1      32.919  15.561   6.873  0.00  0.00     0.062 A 
HETATM    3  C   UNK N   1      32.147  16.593   7.377  0.00  0.00    -0.018 A 
HETATM    4  C   UNK N   1      30.846  16.308   7.068  0.00  0.00     0.040 A 
HETATM    5  C   UNK N   1      32.003  14.655   6.312  0.00  0.00     0.022 A 
HETATM    6  C   UNK N   1      32.619  17.854   8.027  0.00  0.00     0.052 C 
HETATM    7  C   UNK N   1      32.265  13.421   5.526  0.00  0.00     0.069 C 
HETATM    8  H   UNK N   1      29.924  14.701   6.109  0.00  0.00     0.166 HD
ENDROOT
BRANCH   4   9
HETATM    9  C   UNK N   1      29.770  17.287   7.190  0.00  0.00     0.048 C 
HETATM   10  C   UNK N   1      29.175  17.798   6.103  0.00  0.00     0.047 A 
HETATM   11  C   UNK N   1      28.222  18.892   6.105  0.00  0.00     0.009 A 
HETATM   12  C   UNK N   1      29.426  17.556   4.663  0.00  0.00     0.257 A 
HETATM   13  C   UNK N   1      27.967  19.216   4.790  0.00  0.00     0.046 A 
HETATM   14  C   UNK N   1      27.669  19.615   7.157  0.00  0.00     0.057 A 
HETATM   15  N   UNK N   1      28.693  18.394   3.904  0.00  0.00    -0.322 N 
HETATM   16  C   UNK N   1      27.133  20.272   4.447  0.00  0.00     0.033 A 
HETATM   17  H   UNK N   1      28.669  18.426   2.920  0.00  0.00     0.169 HD
HETATM   18  C   UNK N   1      26.553  21.014   5.490  0.00  0.00     0.044 A 
HETATM   19  C   UNK N   1      26.822  20.689   6.839  0.00  0.00     0.117 A 
HETATM   20  F   UNK N   1      26.274  21.428   7.832  0.00  0.00    -0.206 F 
HETATM   21  O   UNK N   1      30.211  16.750   4.182  0.00  0.00    -0.267 OA
ENDBRANCH   4   9
BRANCH   2  22
HETATM   22  C   UNK N   1      34.417  15.605   6.877  0.00  0.00     0.254 C 
HETATM   23  O   UNK N   1      34.963  16.467   6.208  0.00  0.00    -0.268 OA
HETATM   24  N   UNK N   1      35.217  14.746   7.543  0.00  0.00    -0.355 N 
HETATM   25  H   UNK N   1      36.178  14.791   7.330  0.00  0.00     0.162 HD
BRANCH  24  26
HETATM   26  C   UNK N   1      34.832  13.774   8.527  0.00  0.00     0.153 C 
BRANCH  26  27
HETATM   27  C   UNK N   1      34.501  14.469   9.845  0.00  0.00     0.292 C 
BRANCH  27  28
HETATM   28  N   UNK N   1      35.621  14.406  10.789  0.00  0.00     0.089 N 
BRANCH  28  29
HETATM   29  C   UNK N   1      35.158  13.949  12.100  0.00  0.00     0.268 C 
HETATM   30  C   UNK N   1      36.082  14.361  13.241  0.00  0.00     0.037 C 
ENDBRANCH  28  29
BRANCH  28  31
HETATM   31  C   UNK N   1      36.283  15.703  10.895  0.00  0.00     0.268 C 
HETATM   32  C   UNK N   1      35.307  16.821  10.570  0.00  0.00     0.037 C 
ENDBRANCH  28  31
ENDBRANCH  27  28
ENDBRANCH  26  27
ENDBRANCH  24  26
ENDBRANCH   2  22
TORSDOF 7
ENDMDL
MODEL 3
REMARK VINA RESULT:      -7.1      3.676      8.443
REMARK  7 active torsions:
REMARK  status: ('A' for Active; 'I' for Inactive)
REMARK    1  A    between atoms: N_4  and  C_8 
REMARK    2  A    between atoms: N_4  and  C_14 
REMARK    3  A    between atoms: N_4  and  C_15 
REMARK    4  A    between atoms: N_6  and  C_12 
REMARK       I    between atoms: N_6  and  C_16 
REMARK    5  A    between atoms: C_8  and  C_12 
REMARK    6  A    between atoms: C_9  and  C_16 
REMARK    7  A    between atoms: C_11  and  C_18 
ROOT
HETATM    1  N   UNK N   1      34.306  12.140  11.277  0.00  0.00    -0.359 N 
HETATM    2  C   UNK N   1      36.217  11.084  11.845  0.00  0.00     0.062 A 
HETATM    3  C   UNK N   1      36.503  12.039  10.885  0.00  0.00    -0.018 A 
HETATM    4  C   UNK N   1      35.321  12.639  10.552  0.00  0.00     0.040 A 
HETATM    5  C   UNK N   1      34.837  11.199  12.080  0.00  0.00     0.022 A 
HETATM    6  C   UNK N   1      37.817  12.307  10.224  0.00  0.00     0.052 C 
HETATM    7  C   UNK N   1      33.955  10.351  12.924  0.00  0.00     0.069 C 
HETATM    8  H   UNK N   1      33.360  12.410  11.231  0.00  0.00     0.166 HD
ENDROOT
BRANCH   4   9
HETATM    9  C   UNK N   1      35.171  13.502   9.383  0.00  0.00     0.048 C 
HETATM   10  C   UNK N   1      35.048  14.829   9.516  0.00  0.00     0.047 A 
HETATM   11  C   UNK N   1      34.727  15.753   8.445  0.00  0.00     0.009 A 
HETATM   12  C   UNK N   1      35.016  15.678  10.731  0.00  0.00     0.257 A 
HETATM   13  C   UNK N   1      34.542  16.994   9.015  0.00  0.00     0.046 A 
HETATM   14  C   UNK N   1      34.527  15.536   7.086  0.00  0.00     0.057 A 
HETATM   15  N   UNK N   1      34.729  16.955  10.412  0.00  0.00    -0.322 N 
HETATM   16  C   UNK N   1      34.162  18.096   8.260  0.00  0.00     0.033 A 
HETATM   17  H   UNK N   1      34.662  17.715  11.035  0.00  0.00     0.169 HD
HETATM   18  C   UNK N   1      33.962  17.907   6.881  0.00  0.00     0.044 A 
HETATM   19  C   UNK N   1      34.142  16.632   6.297  0.00  0.00     0.117 A 
HETATM   20  F   UNK N   1      33.923  16.462   4.972  0.00  0.00    -0.206 F 
HETATM   21  O   UNK N   1      35.177  15.309  11.886  0.00  0.00    -0.267 OA
ENDBRANCH   4   9
BRANCH   2  22
HETATM   22  C   UNK N   1      37.245  10.110  12.336  0.00  0.00     0.254 C 
HETATM   23  O   UNK N   1      37.478   9.132  11.645  0.00  0.00    -0.268 OA
HETATM   24  N   UNK N   1      37.917  10.213  13.503  0.00  0.00    -0.355 N 
HETATM   25  H   UNK N   1      38.440   9.424  13.774  0.00  0.00     0.162 HD
BRANCH  24  26
HETATM   26  C   UNK N   1      37.956  11.337  14.394  0.00  0.00     0.153 C 
BRANCH  26  27
HETATM   27  C   UNK N   1      36.734  11.321  15.308  0.00  0.00     0.292 C 
BRANCH  27  28
HETATM   28  N   UNK N   1      36.437  12.654  15.843  0.00  0.00     0.089 N 
BRANCH  28  29
HETATM   29  C   UNK N   1      35.084  12.688  16.400  0.00  0.00     0.268 C 
HETATM   30  C   UNK N   1      35.054  13.062  17.879  0.00  0.00     0.037 C 
ENDBRANCH  28  29
BRANCH  28  31
HETATM   31  C   UNK N   1      36.599  13.673  14.810  0.00  0.00     0.268 C 
HETATM   32  C   UNK N   1      37.138  14.958  15.417  0.00  0.00     0.037 C 
ENDBRANCH  28  31
ENDBRANCH  27  28
ENDBRANCH  26  27
ENDBRANCH  24  26
ENDBRANCH   2  22
TORSDOF 7
ENDMDL
MODEL 4
REMARK VINA RESULT:      -6.7      6.051      9.846
REMARK  7 active torsions:
REMARK  status: ('A' for Active; 'I' for Inactive)
REMARK    1  A    between atoms: N_4  and  C_8 
REMARK    2  A    between atoms: N_4  and  C_14 
REMARK    3  A    between atoms: N_4  and  C_15 
REMARK    4  A    between atoms: N_6  and  C_12 
REMARK       I    between atoms: N_6  and  C_16 
REMARK    5  A    between atoms: C_8  and  C_12 
REMARK    6  A    between atoms: C_9  and  C_16 
REMARK    7  A    between atoms: C_11  and  C_18 
ROOT
HETATM    1  N   UNK N   1      25.589  16.720   6.162  0.00  0.00    -0.359 N 
HETATM    2  C   UNK N   1      27.062  16.263   4.516  0.00  0.00     0.062 A 
HETATM    3  C   UNK N   1      26.793  15.097   5.212  0.00  0.00    -0.018 A 
HETATM    4  C   UNK N   1      25.919  15.419   6.212  0.00  0.00     0.040 A 
HETATM    5  C   UNK N   1      26.268  17.248   5.127  0.00  0.00     0.022 A 
HETATM    6  C   UNK N   1      27.417  13.752   5.018  0.00  0.00     0.052 C 
HETATM    7  C   UNK N   1      26.232  18.712   4.876  0.00  0.00     0.069 C 
HETATM    8  H   UNK N   1      24.972  17.195   6.765  0.00  0.00     0.166 HD
ENDROOT
BRANCH   4   9
HETATM    9  C   UNK N   1      25.615  14.519   7.320  0.00  0.00     0.048 C 
HETATM   10  C   UNK N   1      24.366  14.083   7.534  0.00  0.00     0.047 A 
HETATM   11  C   UNK N   1      23.927  13.331   8.694  0.00  0.00     0.009 A 
HETATM   12  C   UNK N   1      23.106  14.374   6.809  0.00  0.00     0.257 A 
HETATM   13  C   UNK N   1      22.557  13.211   8.611  0.00  0.00     0.046 A 
HETATM   14  C   UNK N   1      24.639  12.848   9.787  0.00  0.00     0.057 A 
HETATM   15  N   UNK N   1      22.051  13.839   7.454  0.00  0.00    -0.322 N 
HETATM   16  C   UNK N   1      21.816  12.590   9.608  0.00  0.00     0.033 A 
HETATM   17  H   UNK N   1      21.108  13.878   7.172  0.00  0.00     0.169 HD
HETATM   18  C   UNK N   1      22.511  12.084  10.721  0.00  0.00     0.044 A 
HETATM   19  C   UNK N   1      23.915  12.214  10.811  0.00  0.00     0.117 A 
HETATM   20  F   UNK N   1      24.567  11.743  11.900  0.00  0.00    -0.206 F 
HETATM   21  O   UNK N   1      22.986  15.037   5.789  0.00  0.00    -0.267 OA
ENDBRANCH   4   9
BRANCH   2  22
HETATM   22  C   UNK N   1      28.108  16.333   3.446  0.00  0.00     0.254 C 
HETATM   23  O   UNK N   1      27.841  15.853   2.356  0.00  0.00    -0.268 OA
HETATM   24  N   UNK N   1      29.341  16.863   3.598  0.00  0.00    -0.355 N 
HETATM   25  H   UNK N   1      29.978  16.699   2.866  0.00  0.00     0.162 HD
BRANCH  24  26
HETATM   26  C   UNK N   1      29.829  17.638   4.703  0.00  0.00     0.153 C 
BRANCH  26  27
HETATM   27  C   UNK N   1      30.259  16.713   5.839  0.00  0.00     0.292 C 
BRANCH  27  28
HETATM   28  N   UNK N   1      30.242  17.398   7.135  0.00  0.00     0.089 N 
BRANCH  28  29
HETATM   29  C   UNK N   1      31.291  16.867   8.006  0.00  0.00     0.268 C 
HETATM   30  C   UNK N   1      32.328  17.913   8.403  0.00  0.00     0.037 C 
ENDBRANCH  28  29
BRANCH  28  31
HETATM   31  C   UNK N   1      28.931  17.277   7.767  0.00  0.00     0.268 C 
HETATM   32  C   UNK N   1      28.339  18.653   8.022  0.00  0.00     0.037 C 
ENDBRANCH  28  31
ENDBRANCH  27  28
ENDBRANCH  26  27
ENDBRANCH  24  26
ENDBRANCH   2  22
TORSDOF 7
ENDMDL
MODEL 5
REMARK VINA RESULT:      -6.7      2.640      4.319
REMARK  7 active torsions:
REMARK  status: ('A' for Active; 'I' for Inactive)
REMARK    1  A    between atoms: N_4  and  C_8 
REMARK    2  A    between atoms: N_4  and  C_14 
REMARK    3  A    between atoms: N_4  and  C_15 
REMARK    4  A    between atoms: N_6  and  C_12 
REMARK       I    between atoms: N_6  and  C_16 
REMARK    5  A    between atoms: C_8  and  C_12 
REMARK    6  A    between atoms: C_9  and  C_16 
REMARK    7  A    between atoms: C_11  and  C_18 
ROOT
HETATM    1  N   UNK N   1      37.939  13.451  11.369  0.00  0.00    -0.359 N 
HETATM    2  C   UNK N   1      36.325  13.354   9.796  0.00  0.00     0.062 A 
HETATM    3  C   UNK N   1      35.752  13.715  11.003  0.00  0.00    -0.018 A 
HETATM    4  C   UNK N   1      36.754  13.740  11.932  0.00  0.00     0.040 A 
HETATM    5  C   UNK N   1      37.698  13.225  10.065  0.00  0.00     0.022 A 
HETATM    6  C   UNK N   1      34.301  13.921  11.300  0.00  0.00     0.052 C 
HETATM    7  C   UNK N   1      38.787  12.744   9.175  0.00  0.00     0.069 C 
HETATM    8  H   UNK N   1      38.812  13.413  11.822  0.00  0.00     0.166 HD
ENDROOT
BRANCH   4   9
HETATM    9  C   UNK N   1      36.502  13.810  13.368  0.00  0.00     0.048 C 
HETATM   10  C   UNK N   1      36.507  12.704  14.124  0.00  0.00     0.047 A 
HETATM   11  C   UNK N   1      36.105  12.638  15.517  0.00  0.00     0.009 A 
HETATM   12  C   UNK N   1      36.721  11.284  13.756  0.00  0.00     0.257 A 
HETATM   13  C   UNK N   1      36.106  11.310  15.882  0.00  0.00     0.046 A 
HETATM   14  C   UNK N   1      35.691  13.637  16.392  0.00  0.00     0.057 A 
HETATM   15  N   UNK N   1      36.492  10.478  14.811  0.00  0.00    -0.322 N 
HETATM   16  C   UNK N   1      35.706  10.899  17.147  0.00  0.00     0.033 A 
HETATM   17  H   UNK N   1      36.579   9.497  14.830  0.00  0.00     0.169 HD
HETATM   18  C   UNK N   1      35.292  11.889  18.056  0.00  0.00     0.044 A 
HETATM   19  C   UNK N   1      35.281  13.251  17.679  0.00  0.00     0.117 A 
HETATM   20  F   UNK N   1      34.857  14.190  18.557  0.00  0.00    -0.206 F 
HETATM   21  O   UNK N   1      37.021  10.853  12.651  0.00  0.00    -0.267 OA
ENDBRANCH   4   9
BRANCH   2  22
HETATM   22  C   UNK N   1      35.506  13.064   8.575  0.00  0.00     0.254 C 
HETATM   23  O   UNK N   1      35.304  11.894   8.290  0.00  0.00    -0.268 OA
HETATM   24  N   UNK N   1      34.995  13.996   7.743  0.00  0.00    -0.355 N 
HETATM   25  H   UNK N   1      34.617  13.663   6.897  0.00  0.00     0.162 HD
BRANCH  24  26
HETATM   26  C   UNK N   1      34.939  15.415   7.949  0.00  0.00     0.153 C 
BRANCH  26  27
HETATM   27  C   UNK N   1      34.635  16.122   6.631  0.00  0.00     0.292 C 
BRANCH  27  28
HETATM   28  N   UNK N   1      33.832  17.332   6.834  0.00  0.00     0.089 N 
BRANCH  28  29
HETATM   29  C   UNK N   1      33.477  17.476   8.246  0.00  0.00     0.268 C 
HETATM   30  C   UNK N   1      32.028  17.900   8.461  0.00  0.00     0.037 C 
ENDBRANCH  28  29
BRANCH  28  31
HETATM   31  C   UNK N   1      32.635  17.304   5.998  0.00  0.00     0.268 C 
HETATM   32  C   UNK N   1      33.004  17.525   4.541  0.00  0.00     0.037 C 
ENDBRANCH  28  31
ENDBRANCH  27  28
ENDBRANCH  26  27
ENDBRANCH  24  26
ENDBRANCH   2  22
TORSDOF 7
ENDMDL
MODEL 6
REMARK VINA RESULT:      -6.6      3.510      5.860
REMARK  7 active torsions:
REMARK  status: ('A' for Active; 'I' for Inactive)
REMARK    1  A    between atoms: N_4  and  C_8 
REMARK    2  A    between atoms: N_4  and  C_14 
REMARK    3  A    between atoms: N_4  and  C_15 
REMARK    4  A    between atoms: N_6  and  C_12 
REMARK       I    between atoms: N_6  and  C_16 
REMARK    5  A    between atoms: C_8  and  C_12 
REMARK    6  A    between atoms: C_9  and  C_16 
REMARK    7  A    between atoms: C_11  and  C_18 
ROOT
HETATM    1  N   UNK N   1      34.018  11.003  12.232  0.00  0.00    -0.359 N 
HETATM    2  C   UNK N   1      35.479  11.203  10.526  0.00  0.00     0.062 A 
HETATM    3  C   UNK N   1      36.050  11.738  11.668  0.00  0.00    -0.018 A 
HETATM    4  C   UNK N   1      35.128  11.619  12.670  0.00  0.00     0.040 A 
HETATM    5  C   UNK N   1      34.219  10.731  10.930  0.00  0.00     0.022 A 
HETATM    6  C   UNK N   1      37.367  12.434  11.792  0.00  0.00     0.052 C 
HETATM    7  C   UNK N   1      33.120  10.167  10.104  0.00  0.00     0.069 C 
HETATM    8  H   UNK N   1      33.214  10.792  12.761  0.00  0.00     0.166 HD
ENDROOT
BRANCH   4   9
HETATM    9  C   UNK N   1      35.253  12.312  13.949  0.00  0.00     0.048 C 
HETATM   10  C   UNK N   1      35.426  11.631  15.090  0.00  0.00     0.047 A 
HETATM   11  C   UNK N   1      35.392  12.204  16.422  0.00  0.00     0.009 A 
HETATM   12  C   UNK N   1      35.507  10.172  15.339  0.00  0.00     0.257 A 
HETATM   13  C   UNK N   1      35.457  11.160  17.319  0.00  0.00     0.046 A 
HETATM   14  C   UNK N   1      35.238  13.520  16.843  0.00  0.00     0.057 A 
HETATM   15  N   UNK N   1      35.538   9.915  16.661  0.00  0.00    -0.322 N 
HETATM   16  C   UNK N   1      35.385  11.369  18.690  0.00  0.00     0.033 A 
HETATM   17  H   UNK N   1      35.604   9.029  17.086  0.00  0.00     0.169 HD
HETATM   18  C   UNK N   1      35.238  12.692  19.144  0.00  0.00     0.044 A 
HETATM   19  C   UNK N   1      35.162  13.762  18.224  0.00  0.00     0.117 A 
HETATM   20  F   UNK N   1      34.997  15.027  18.676  0.00  0.00    -0.206 F 
HETATM   21  O   UNK N   1      35.506   9.285  14.497  0.00  0.00    -0.267 OA
ENDBRANCH   4   9
BRANCH   2  22
HETATM   22  C   UNK N   1      36.134  11.303   9.182  0.00  0.00     0.254 C 
HETATM   23  O   UNK N   1      36.843  10.377   8.824  0.00  0.00    -0.268 OA
HETATM   24  N   UNK N   1      36.025  12.354   8.341  0.00  0.00    -0.355 N 
HETATM   25  H   UNK N   1      36.634  12.356   7.567  0.00  0.00     0.162 HD
BRANCH  24  26
HETATM   26  C   UNK N   1      35.125  13.468   8.445  0.00  0.00     0.153 C 
BRANCH  26  27
HETATM   27  C   UNK N   1      35.835  14.652   9.096  0.00  0.00     0.292 C 
BRANCH  27  28
HETATM   28  N   UNK N   1      34.935  15.796   9.271  0.00  0.00     0.089 N 
BRANCH  28  29
HETATM   29  C   UNK N   1      35.326  16.577  10.446  0.00  0.00     0.268 C 
HETATM   30  C   UNK N   1      35.599  15.716  11.675  0.00  0.00     0.037 C 
ENDBRANCH  28  29
BRANCH  28  31
HETATM   31  C   UNK N   1      33.548  15.352   9.382  0.00  0.00     0.268 C 
HETATM   32  C   UNK N   1      32.632  16.287   8.611  0.00  0.00     0.037 C 
ENDBRANCH  28  31
ENDBRANCH  27  28
ENDBRANCH  26  27
ENDBRANCH  24  26
ENDBRANCH   2  22
TORSDOF 7
ENDMDL
MODEL 7
REMARK VINA RESULT:      -6.5     15.199     18.912
REMARK  7 active torsions:
REMARK  status: ('A' for Active; 'I' for Inactive)
REMARK    1  A    between atoms: N_4  and  C_8 
REMARK    2  A    between atoms: N_4  and  C_14 
REMARK    3  A    between atoms: N_4  and  C_15 
REMARK    4  A    between atoms: N_6  and  C_12 
REMARK       I    between atoms: N_6  and  C_16 
REMARK    5  A    between atoms: C_8  and  C_12 
REMARK    6  A    between atoms: C_9  and  C_16 
REMARK    7  A    between atoms: C_11  and  C_18 
ROOT
HETATM    1  N   UNK N   1      31.579  24.506  -4.925  0.00  0.00    -0.359 N 
HETATM    2  C   UNK N   1      31.883  22.594  -3.768  0.00  0.00     0.062 A 
HETATM    3  C   UNK N   1      30.639  23.113  -3.455  0.00  0.00    -0.018 A 
HETATM    4  C   UNK N   1      30.503  24.278  -4.155  0.00  0.00     0.040 A 
HETATM    5  C   UNK N   1      32.426  23.483  -4.711  0.00  0.00     0.022 A 
HETATM    6  C   UNK N   1      29.658  22.594  -2.452  0.00  0.00     0.052 C 
HETATM    7  C   UNK N   1      33.785  23.496  -5.313  0.00  0.00     0.069 C 
HETATM    8  H   UNK N   1      31.721  25.272  -5.528  0.00  0.00     0.166 HD
ENDROOT
BRANCH   4   9
HETATM    9  C   UNK N   1      29.447  25.249  -3.881  0.00  0.00     0.048 C 
HETATM   10  C   UNK N   1      28.274  25.195  -4.526  0.00  0.00     0.047 A 
HETATM   11  C   UNK N   1      27.231  26.201  -4.456  0.00  0.00     0.009 A 
HETATM   12  C   UNK N   1      27.793  24.266  -5.576  0.00  0.00     0.257 A 
HETATM   13  C   UNK N   1      26.263  25.854  -5.373  0.00  0.00     0.046 A 
HETATM   14  C   UNK N   1      27.149  27.375  -3.715  0.00  0.00     0.057 A 
HETATM   15  N   UNK N   1      26.598  24.665  -6.054  0.00  0.00    -0.322 N 
HETATM   16  C   UNK N   1      25.149  26.651  -5.597  0.00  0.00     0.033 A 
HETATM   17  H   UNK N   1      26.062  24.213  -6.745  0.00  0.00     0.169 HD
HETATM   18  C   UNK N   1      25.035  27.840  -4.855  0.00  0.00     0.044 A 
HETATM   19  C   UNK N   1      26.031  28.201  -3.920  0.00  0.00     0.117 A 
HETATM   20  F   UNK N   1      25.919  29.361  -3.231  0.00  0.00    -0.206 F 
HETATM   21  O   UNK N   1      28.381  23.286  -6.011  0.00  0.00    -0.267 OA
ENDBRANCH   4   9
BRANCH   2  22
HETATM   22  C   UNK N   1      32.453  21.400  -3.064  0.00  0.00     0.254 C 
HETATM   23  O   UNK N   1      32.921  21.566  -1.949  0.00  0.00    -0.268 OA
HETATM   24  N   UNK N   1      32.518  20.153  -3.578  0.00  0.00    -0.355 N 
HETATM   25  H   UNK N   1      33.060  19.503  -3.075  0.00  0.00     0.162 HD
BRANCH  24  26
HETATM   26  C   UNK N   1      31.888  19.665  -4.772  0.00  0.00     0.153 C 
BRANCH  26  27
HETATM   27  C   UNK N   1      32.781  19.936  -5.980  0.00  0.00     0.292 C 
BRANCH  27  28
HETATM   28  N   UNK N   1      32.002  20.363  -7.147  0.00  0.00     0.089 N 
BRANCH  28  29
HETATM   29  C   UNK N   1      30.648  20.744  -6.744  0.00  0.00     0.268 C 
HETATM   30  C   UNK N   1      29.575  20.255  -7.711  0.00  0.00     0.037 C 
ENDBRANCH  28  29
BRANCH  28  31
HETATM   31  C   UNK N   1      31.967  19.311  -8.159  0.00  0.00     0.268 C 
HETATM   32  C   UNK N   1      33.360  19.065  -8.713  0.00  0.00     0.037 C 
ENDBRANCH  28  31
ENDBRANCH  27  28
ENDBRANCH  26  27
ENDBRANCH  24  26
ENDBRANCH   2  22
TORSDOF 7
ENDMDL
MODEL 8
REMARK VINA RESULT:      -6.5      3.264      5.526
REMARK  7 active torsions:
REMARK  status: ('A' for Active; 'I' for Inactive)
REMARK    1  A    between atoms: N_4  and  C_8 
REMARK    2  A    between atoms: N_4  and  C_14 
REMARK    3  A    between atoms: N_4  and  C_15 
REMARK    4  A    between atoms: N_6  and  C_12 
REMARK       I    between atoms: N_6  and  C_16 
REMARK    5  A    between atoms: C_8  and  C_12 
REMARK    6  A    between atoms: C_9  and  C_16 
REMARK    7  A    between atoms: C_11  and  C_18 
ROOT
HETATM    1  N   UNK N   1      37.486  12.327  12.810  0.00  0.00    -0.359 N 
HETATM    2  C   UNK N   1      36.140  11.726  11.103  0.00  0.00     0.062 A 
HETATM    3  C   UNK N   1      35.612  11.233  12.284  0.00  0.00    -0.018 A 
HETATM    4  C   UNK N   1      36.465  11.597  13.287  0.00  0.00     0.040 A 
HETATM    5  C   UNK N   1      37.297  12.426  11.481  0.00  0.00     0.022 A 
HETATM    6  C   UNK N   1      34.411  10.359  12.454  0.00  0.00     0.052 C 
HETATM    7  C   UNK N   1      38.330  13.063  10.623  0.00  0.00     0.069 C 
HETATM    8  H   UNK N   1      38.227  12.715  13.330  0.00  0.00     0.166 HD
ENDROOT
BRANCH   4   9
HETATM    9  C   UNK N   1      36.395  11.032  14.632  0.00  0.00     0.048 C 
HETATM   10  C   UNK N   1      35.833  11.714  15.639  0.00  0.00     0.047 A 
HETATM   11  C   UNK N   1      35.863  11.322  17.036  0.00  0.00     0.009 A 
HETATM   12  C   UNK N   1      35.223  13.064  15.667  0.00  0.00     0.257 A 
HETATM   13  C   UNK N   1      35.313  12.356  17.763  0.00  0.00     0.046 A 
HETATM   14  C   UNK N   1      36.393  10.195  17.653  0.00  0.00     0.057 A 
HETATM   15  N   UNK N   1      34.911  13.419  16.929  0.00  0.00    -0.322 N 
HETATM   16  C   UNK N   1      35.248  12.319  19.150  0.00  0.00     0.033 A 
HETATM   17  H   UNK N   1      34.484  14.260  17.214  0.00  0.00     0.169 HD
HETATM   18  C   UNK N   1      35.768  11.186  19.800  0.00  0.00     0.044 A 
HETATM   19  C   UNK N   1      36.340  10.130  19.055  0.00  0.00     0.117 A 
HETATM   20  F   UNK N   1      36.858   9.057  19.697  0.00  0.00    -0.206 F 
HETATM   21  O   UNK N   1      35.046  13.807  14.712  0.00  0.00    -0.267 OA
ENDBRANCH   4   9
BRANCH   2  22
HETATM   22  C   UNK N   1      35.561  11.385   9.763  0.00  0.00     0.254 C 
HETATM   23  O   UNK N   1      35.920  10.344   9.236  0.00  0.00    -0.268 OA
HETATM   24  N   UNK N   1      34.691  12.154   9.074  0.00  0.00    -0.355 N 
HETATM   25  H   UNK N   1      34.519  11.887   8.142  0.00  0.00     0.162 HD
BRANCH  24  26
HETATM   26  C   UNK N   1      33.988  13.314   9.543  0.00  0.00     0.153 C 
BRANCH  26  27
HETATM   27  C   UNK N   1      34.276  14.502   8.629  0.00  0.00     0.292 C 
BRANCH  27  28
HETATM   28  N   UNK N   1      33.807  15.763   9.213  0.00  0.00     0.089 N 
BRANCH  28  29
HETATM   29  C   UNK N   1      32.855  16.417   8.314  0.00  0.00     0.268 C 
HETATM   30  C   UNK N   1      32.979  17.938   8.312  0.00  0.00     0.037 C 
ENDBRANCH  28  29
BRANCH  28  31
HETATM   31  C   UNK N   1      34.931  16.646   9.509  0.00  0.00     0.268 C 
HETATM   32  C   UNK N   1      35.403  16.437  10.939  0.00  0.00     0.037 C 
ENDBRANCH  28  31
ENDBRANCH  27  28
ENDBRANCH  26  27
ENDBRANCH  24  26
ENDBRANCH   2  22
TORSDOF 7
ENDMDL
MODEL 9
REMARK VINA RESULT:      -6.5      3.105      8.477
REMARK  7 active torsions:
REMARK  status: ('A' for Active; 'I' for Inactive)
REMARK    1  A    between atoms: N_4  and  C_8 
REMARK    2  A    between atoms: N_4  and  C_14 
REMARK    3  A    between atoms: N_4  and  C_15 
REMARK    4  A    between atoms: N_6  and  C_12 
REMARK       I    between atoms: N_6  and  C_16 
REMARK    5  A    between atoms: C_8  and  C_12 
REMARK    6  A    between atoms: C_9  and  C_16 
REMARK    7  A    between atoms: C_11  and  C_18 
ROOT
HETATM    1  N   UNK N   1      33.448  12.912   9.569  0.00  0.00    -0.359 N 
HETATM    2  C   UNK N   1      35.267  13.852  10.514  0.00  0.00     0.062 A 
HETATM    3  C   UNK N   1      34.406  14.856  10.107  0.00  0.00    -0.018 A 
HETATM    4  C   UNK N   1      33.331  14.249   9.521  0.00  0.00     0.040 A 
HETATM    5  C   UNK N   1      34.617  12.652  10.182  0.00  0.00     0.022 A 
HETATM    6  C   UNK N   1      34.631  16.333  10.165  0.00  0.00     0.052 C 
HETATM    7  C   UNK N   1      35.119  11.256  10.278  0.00  0.00     0.069 C 
HETATM    8  H   UNK N   1      32.804  12.251   9.224  0.00  0.00     0.166 HD
ENDROOT
BRANCH   4   9
HETATM    9  C   UNK N   1      32.345  14.976   8.727  0.00  0.00     0.048 C 
HETATM   10  C   UNK N   1      32.511  15.151   7.409  0.00  0.00     0.047 A 
HETATM   11  C   UNK N   1      31.688  15.995   6.565  0.00  0.00     0.009 A 
HETATM   12  C   UNK N   1      33.612  14.725   6.512  0.00  0.00     0.257 A 
HETATM   13  C   UNK N   1      32.274  16.025   5.318  0.00  0.00     0.046 A 
HETATM   14  C   UNK N   1      30.557  16.749   6.859  0.00  0.00     0.057 A 
HETATM   15  N   UNK N   1      33.446  15.241   5.278  0.00  0.00    -0.322 N 
HETATM   16  C   UNK N   1      31.760  16.799   4.287  0.00  0.00     0.033 A 
HETATM   17  H   UNK N   1      34.031  15.098   4.499  0.00  0.00     0.169 HD
HETATM   18  C   UNK N   1      30.611  17.565   4.554  0.00  0.00     0.044 A 
HETATM   19  C   UNK N   1      30.014  17.542   5.835  0.00  0.00     0.117 A 
HETATM   20  F   UNK N   1      28.923  18.303   6.082  0.00  0.00    -0.206 F 
HETATM   21  O   UNK N   1      34.578  14.039   6.814  0.00  0.00    -0.267 OA
ENDBRANCH   4   9
BRANCH   2  22
HETATM   22  C   UNK N   1      36.635  14.141  11.055  0.00  0.00     0.254 C 
HETATM   23  O   UNK N   1      37.536  14.330  10.254  0.00  0.00    -0.268 OA
HETATM   24  N   UNK N   1      36.960  14.180  12.365  0.00  0.00    -0.355 N 
HETATM   25  H   UNK N   1      37.921  14.221  12.574  0.00  0.00     0.162 HD
BRANCH  24  26
HETATM   26  C   UNK N   1      36.066  14.170  13.488  0.00  0.00     0.153 C 
BRANCH  26  27
HETATM   27  C   UNK N   1      36.537  13.149  14.520  0.00  0.00     0.292 C 
BRANCH  27  28
HETATM   28  N   UNK N   1      35.415  12.412  15.109  0.00  0.00     0.089 N 
BRANCH  28  29
HETATM   29  C   UNK N   1      35.592  12.285  16.556  0.00  0.00     0.268 C 
HETATM   30  C   UNK N   1      34.972  13.439  17.339  0.00  0.00     0.037 C 
ENDBRANCH  28  29
BRANCH  28  31
HETATM   31  C   UNK N   1      35.274  11.099  14.486  0.00  0.00     0.268 C 
HETATM   32  C   UNK N   1      33.813  10.812  14.185  0.00  0.00     0.037 C 
ENDBRANCH  28  31
ENDBRANCH  27  28
ENDBRANCH  26  27
ENDBRANCH  24  26
ENDBRANCH   2  22
TORSDOF 7
ENDMDL
