REMARK  0 active torsions:
REMARK  status: ('A' for Active; 'I' for Inactive)
ROOT
HETATM    1  N   UNK N   1       7.745   0.925  -1.094  0.00  0.00    -0.420 N 
HETATM    2  N   UNK N   1       2.037  -2.438  -0.016  0.00  0.00    -0.363 N 
ATOM      3  HN  UNK N   1       2.382  -3.382   0.158  1.00  0.00     0.165 HD
HETATM    4  N   UNK N   1       1.097   0.106  -0.486  0.00  0.00    -0.363 N 
ATOM      5  HN  UNK N   1       0.745   1.047  -0.660  1.00  0.00     0.165 HD
HETATM    6  C   UNK N   1       6.540  -0.445   0.660  0.00  0.00     0.037 C 
HETATM    7  C   UNK N   1       5.738   1.751   0.216  0.00  0.00     0.037 C 
HETATM    8  C   UNK N   1       6.543   0.971   1.275  0.00  0.00     0.022 C 
HETATM    9  C   UNK N   1       5.127  -0.501   0.221  0.00  0.00    -0.043 A 
HETATM   10  C   UNK N   1       4.662   0.760  -0.022  0.00  0.00    -0.043 A 
HETATM   11  C   UNK N   1       7.455  -0.430  -0.580  0.00  0.00     0.123 C 
HETATM   12  C   UNK N   1       6.605   1.864  -1.056  0.00  0.00     0.123 C 
HETATM   13  C   UNK N   1       4.270  -1.605   0.236  0.00  0.00     0.040 A 
HETATM   14  C   UNK N   1       3.307   1.006  -0.258  0.00  0.00     0.040 A 
HETATM   15  C   UNK N   1       2.910  -1.396  -0.029  0.00  0.00     0.059 A 
HETATM   16  C   UNK N   1       2.424  -0.085  -0.274  0.00  0.00     0.059 A 
HETATM   17  C   UNK N   1       0.710  -2.237  -0.233  0.00  0.00     0.105 A 
HETATM   18  C   UNK N   1       0.231  -0.944  -0.470  0.00  0.00     0.105 A 
HETATM   19  H   UNK N   1       8.664   1.191  -1.448  0.00  0.00     0.153 HD
ENDROOT
TORSDOF 0
