MODEL 1
REMARK VINA RESULT:      -6.3      0.000      0.000
REMARK  0 active torsions:
REMARK  status: ('A' for Active; 'I' for Inactive)
ROOT
HETATM    1  N   UNK N   1      24.775  12.188  11.300  0.00  0.00    -0.420 N 
HETATM    2  N   UNK N   1      21.291  16.183   7.183  0.00  0.00    -0.363 N 
ATOM      3  HN  UNK N   1      21.987  16.405   6.472  1.00  0.00     0.165 HD
HETATM    4  N   UNK N   1      19.406  15.589   9.100  0.00  0.00    -0.363 N 
ATOM      5  HN  UNK N   1      18.706  15.372   9.808  1.00  0.00     0.165 HD
HETATM    6  C   UNK N   1      23.970  12.368   8.907  0.00  0.00     0.037 C 
HETATM    7  C   UNK N   1      22.362  11.877  10.590  0.00  0.00     0.037 C 
HETATM    8  C   UNK N   1      23.145  11.185   9.457  0.00  0.00     0.022 C 
HETATM    9  C   UNK N   1      22.916  13.407   8.919  0.00  0.00    -0.043 A 
HETATM   10  C   UNK N   1      21.985  13.119   9.876  0.00  0.00    -0.043 A 
HETATM   11  C   UNK N   1      25.046  12.727   9.951  0.00  0.00     0.123 C 
HETATM   12  C   UNK N   1      23.358  12.228  11.715  0.00  0.00     0.123 C 
HETATM   13  C   UNK N   1      22.714  14.431   7.989  0.00  0.00     0.040 A 
HETATM   14  C   UNK N   1      20.785  13.829   9.965  0.00  0.00     0.040 A 
HETATM   15  C   UNK N   1      21.535  15.183   8.072  0.00  0.00     0.059 A 
HETATM   16  C   UNK N   1      20.563  14.880   9.061  0.00  0.00     0.059 A 
HETATM   17  C   UNK N   1      20.130  16.890   7.233  0.00  0.00     0.105 A 
HETATM   18  C   UNK N   1      19.171  16.588   8.205  0.00  0.00     0.105 A 
HETATM   19  H   UNK N   1      25.513  11.815  11.898  0.00  0.00     0.153 HD
ENDROOT
TORSDOF 0
ENDMDL
MODEL 2
REMARK VINA RESULT:      -6.2      8.949     10.656
REMARK  0 active torsions:
REMARK  status: ('A' for Active; 'I' for Inactive)
ROOT
HETATM    1  N   UNK N   1      33.708  15.067   4.397  0.00  0.00    -0.420 N 
HETATM    2  N   UNK N   1      30.551  18.096   9.487  0.00  0.00    -0.363 N 
ATOM      3  HN  UNK N   1      31.330  18.344  10.096  1.00  0.00     0.165 HD
HETATM    4  N   UNK N   1      28.441  17.429   7.850  0.00  0.00    -0.363 N 
ATOM      5  HN  UNK N   1      27.657  17.183   7.246  1.00  0.00     0.165 HD
HETATM    6  C   UNK N   1      33.565  17.278   5.620  0.00  0.00     0.037 C 
HETATM    7  C   UNK N   1      31.747  16.663   4.213  0.00  0.00     0.037 C 
HETATM    8  C   UNK N   1      32.962  17.612   4.239  0.00  0.00     0.022 C 
HETATM    9  C   UNK N   1      32.313  17.217   6.408  0.00  0.00    -0.043 A 
HETATM   10  C   UNK N   1      31.266  16.877   5.599  0.00  0.00    -0.043 A 
HETATM   11  C   UNK N   1      34.183  15.868   5.544  0.00  0.00     0.123 C 
HETATM   12  C   UNK N   1      32.272  15.218   4.082  0.00  0.00     0.123 C 
HETATM   13  C   UNK N   1      32.110  17.638   7.725  0.00  0.00     0.040 A 
HETATM   14  C   UNK N   1      29.945  16.942   6.047  0.00  0.00     0.040 A 
HETATM   15  C   UNK N   1      30.798  17.684   8.215  0.00  0.00     0.059 A 
HETATM   16  C   UNK N   1      29.709  17.338   7.373  0.00  0.00     0.059 A 
HETATM   17  C   UNK N   1      29.278  18.180   9.956  0.00  0.00     0.105 A 
HETATM   18  C   UNK N   1      28.205  17.844   9.124  0.00  0.00     0.105 A 
HETATM   19  H   UNK N   1      34.326  14.456   3.862  0.00  0.00     0.153 HD
ENDROOT
TORSDOF 0
ENDMDL
MODEL 3
REMARK VINA RESULT:      -6.1     10.677     13.006
REMARK  0 active torsions:
REMARK  status: ('A' for Active; 'I' for Inactive)
ROOT
HETATM    1  N   UNK N   1      32.807  17.005   5.859  0.00  0.00    -0.420 N 
HETATM    2  N   UNK N   1      36.155  15.739  11.537  0.00  0.00    -0.363 N 
ATOM      3  HN  UNK N   1      36.848  16.488  11.541  1.00  0.00     0.165 HD
HETATM    4  N   UNK N   1      34.290  13.715  11.534  0.00  0.00    -0.363 N 
ATOM      5  HN  UNK N   1      33.601  12.963  11.537  1.00  0.00     0.165 HD
HETATM    6  C   UNK N   1      33.394  18.030   8.097  0.00  0.00     0.037 C 
HETATM    7  C   UNK N   1      31.800  16.263   8.064  0.00  0.00     0.037 C 
HETATM    8  C   UNK N   1      31.873  17.796   8.217  0.00  0.00     0.022 C 
HETATM    9  C   UNK N   1      33.865  16.907   8.939  0.00  0.00    -0.043 A 
HETATM   10  C   UNK N   1      32.946  15.898   8.931  0.00  0.00    -0.043 A 
HETATM   11  C   UNK N   1      33.804  17.773   6.634  0.00  0.00     0.123 C 
HETATM   12  C   UNK N   1      32.146  15.912   6.602  0.00  0.00     0.123 C 
HETATM   13  C   UNK N   1      34.960  16.891   9.808  0.00  0.00     0.040 A 
HETATM   14  C   UNK N   1      33.051  14.807   9.797  0.00  0.00     0.040 A 
HETATM   15  C   UNK N   1      35.111  15.794  10.667  0.00  0.00     0.059 A 
HETATM   16  C   UNK N   1      34.152  14.748  10.666  0.00  0.00     0.059 A 
HETATM   17  C   UNK N   1      36.286  14.698  12.401  0.00  0.00     0.105 A 
HETATM   18  C   UNK N   1      35.338  13.669  12.402  0.00  0.00     0.105 A 
HETATM   19  H   UNK N   1      32.591  17.215   4.884  0.00  0.00     0.153 HD
ENDROOT
TORSDOF 0
ENDMDL
MODEL 4
REMARK VINA RESULT:      -6.0      8.974     10.661
REMARK  0 active torsions:
REMARK  status: ('A' for Active; 'I' for Inactive)
ROOT
HETATM    1  N   UNK N   1      34.514  15.731   8.253  0.00  0.00    -0.420 N 
HETATM    2  N   UNK N   1      28.321  17.329   6.219  0.00  0.00    -0.363 N 
ATOM      3  HN  UNK N   1      27.806  17.326   7.099  1.00  0.00     0.165 HD
HETATM    4  N   UNK N   1      29.702  17.338   3.838  0.00  0.00    -0.363 N 
ATOM      5  HN  UNK N   1      30.210  17.342   2.954  1.00  0.00     0.165 HD
HETATM    6  C   UNK N   1      32.710  17.480   8.547  0.00  0.00     0.037 C 
HETATM    7  C   UNK N   1      33.907  17.449   6.491  0.00  0.00     0.037 C 
HETATM    8  C   UNK N   1      33.819  18.255   7.803  0.00  0.00     0.022 C 
HETATM    9  C   UNK N   1      31.773  17.281   7.418  0.00  0.00    -0.043 A 
HETATM   10  C   UNK N   1      32.458  17.275   6.237  0.00  0.00    -0.043 A 
HETATM   11  C   UNK N   1      33.284  16.116   8.976  0.00  0.00     0.123 C 
HETATM   12  C   UNK N   1      34.527  16.073   6.816  0.00  0.00     0.123 C 
HETATM   13  C   UNK N   1      30.376  17.304   7.452  0.00  0.00     0.040 A 
HETATM   14  C   UNK N   1      31.794  17.301   5.007  0.00  0.00     0.040 A 
HETATM   15  C   UNK N   1      29.680  17.298   6.236  0.00  0.00     0.059 A 
HETATM   16  C   UNK N   1      30.391  17.300   5.007  0.00  0.00     0.059 A 
HETATM   17  C   UNK N   1      27.640  17.364   5.042  0.00  0.00     0.105 A 
HETATM   18  C   UNK N   1      28.341  17.370   3.832  0.00  0.00     0.105 A 
HETATM   19  H   UNK N   1      35.295  15.263   8.714  0.00  0.00     0.153 HD
ENDROOT
TORSDOF 0
ENDMDL
MODEL 5
REMARK VINA RESULT:      -5.9      8.328     10.830
REMARK  0 active torsions:
REMARK  status: ('A' for Active; 'I' for Inactive)
ROOT
HETATM    1  N   UNK N   1      27.478  19.281   6.084  0.00  0.00    -0.420 N 
HETATM    2  N   UNK N   1      33.231  17.670   9.145  0.00  0.00    -0.363 N 
ATOM      3  HN  UNK N   1      33.134  18.155  10.037  1.00  0.00     0.165 HD
HETATM    4  N   UNK N   1      33.500  16.358   6.740  0.00  0.00    -0.363 N 
ATOM      5  HN  UNK N   1      33.604  15.870   5.850  1.00  0.00     0.165 HD
HETATM    6  C   UNK N   1      28.383  18.117   8.141  0.00  0.00     0.037 C 
HETATM    7  C   UNK N   1      28.620  17.018   6.044  0.00  0.00     0.037 C 
HETATM    8  C   UNK N   1      27.773  16.954   7.331  0.00  0.00     0.022 C 
HETATM    9  C   UNK N   1      29.815  17.866   7.860  0.00  0.00    -0.043 A 
HETATM   10  C   UNK N   1      29.951  17.223   6.662  0.00  0.00    -0.043 A 
HETATM   11  C   UNK N   1      27.960  19.440   7.472  0.00  0.00     0.123 C 
HETATM   12  C   UNK N   1      28.223  18.295   5.273  0.00  0.00     0.123 C 
HETATM   13  C   UNK N   1      30.899  18.031   8.727  0.00  0.00     0.040 A 
HETATM   14  C   UNK N   1      31.177  16.694   6.252  0.00  0.00     0.040 A 
HETATM   15  C   UNK N   1      32.150  17.540   8.331  0.00  0.00     0.059 A 
HETATM   16  C   UNK N   1      32.291  16.865   7.090  0.00  0.00     0.059 A 
HETATM   17  C   UNK N   1      34.438  17.161   8.784  0.00  0.00     0.105 A 
HETATM   18  C   UNK N   1      34.576  16.492   7.563  0.00  0.00     0.105 A 
HETATM   19  H   UNK N   1      26.690  19.813   5.714  0.00  0.00     0.153 HD
ENDROOT
TORSDOF 0
ENDMDL
MODEL 6
REMARK VINA RESULT:      -5.8      8.259     10.566
REMARK  0 active torsions:
REMARK  status: ('A' for Active; 'I' for Inactive)
ROOT
HETATM    1  N   UNK N   1      26.937  16.509   7.424  0.00  0.00    -0.420 N 
HETATM    2  N   UNK N   1      33.608  16.512   6.683  0.00  0.00    -0.363 N 
ATOM      3  HN  UNK N   1      33.714  16.092   5.760  1.00  0.00     0.165 HD
HETATM    4  N   UNK N   1      33.330  17.644   9.176  0.00  0.00    -0.363 N 
ATOM      5  HN  UNK N   1      33.231  18.064  10.100  1.00  0.00     0.165 HD
HETATM    6  C   UNK N   1      28.777  17.417   5.942  0.00  0.00     0.037 C 
HETATM    7  C   UNK N   1      28.525  18.361   8.112  0.00  0.00     0.037 C 
HETATM    8  C   UNK N   1      28.236  18.687   6.633  0.00  0.00     0.022 C 
HETATM    9  C   UNK N   1      30.029  17.252   6.715  0.00  0.00    -0.043 A 
HETATM   10  C   UNK N   1      29.890  17.805   7.956  0.00  0.00    -0.043 A 
HETATM   11  C   UNK N   1      27.823  16.252   6.270  0.00  0.00     0.123 C 
HETATM   12  C   UNK N   1      27.569  17.230   8.548  0.00  0.00     0.123 C 
HETATM   13  C   UNK N   1      31.270  16.808   6.249  0.00  0.00     0.040 A 
HETATM   14  C   UNK N   1      30.982  17.961   8.813  0.00  0.00     0.040 A 
HETATM   15  C   UNK N   1      32.379  16.921   7.097  0.00  0.00     0.059 A 
HETATM   16  C   UNK N   1      32.237  17.503   8.384  0.00  0.00     0.059 A 
HETATM   17  C   UNK N   1      34.696  16.655   7.486  0.00  0.00     0.105 A 
HETATM   18  C   UNK N   1      34.556  17.232   8.752  0.00  0.00     0.105 A 
HETATM   19  H   UNK N   1      25.961  16.211   7.442  0.00  0.00     0.153 HD
ENDROOT
TORSDOF 0
ENDMDL
MODEL 7
REMARK VINA RESULT:      -5.6     19.701     21.246
REMARK  0 active torsions:
REMARK  status: ('A' for Active; 'I' for Inactive)
ROOT
HETATM    1  N   UNK N   1      27.470  24.041  -7.447  0.00  0.00    -0.420 N 
HETATM    2  N   UNK N   1      28.018  30.349  -5.221  0.00  0.00    -0.363 N 
ATOM      3  HN  UNK N   1      28.788  30.703  -5.788  1.00  0.00     0.165 HD
HETATM    4  N   UNK N   1      25.939  29.401  -3.685  0.00  0.00    -0.363 N 
ATOM      5  HN  UNK N   1      25.169  29.054  -3.114  1.00  0.00     0.165 HD
HETATM    6  C   UNK N   1      27.330  26.446  -8.221  0.00  0.00     0.037 C 
HETATM    7  C   UNK N   1      25.558  25.604  -6.874  0.00  0.00     0.037 C 
HETATM    8  C   UNK N   1      25.869  25.963  -8.341  0.00  0.00     0.022 C 
HETATM    9  C   UNK N   1      27.203  27.255  -6.987  0.00  0.00    -0.043 A 
HETATM   10  C   UNK N   1      26.178  26.780  -6.219  0.00  0.00    -0.043 A 
HETATM   11  C   UNK N   1      28.217  25.220  -7.932  0.00  0.00     0.123 C 
HETATM   12  C   UNK N   1      26.370  24.342  -6.509  0.00  0.00     0.123 C 
HETATM   13  C   UNK N   1      27.845  28.459  -6.684  0.00  0.00     0.040 A 
HETATM   14  C   UNK N   1      25.719  27.480  -5.101  0.00  0.00     0.040 A 
HETATM   15  C   UNK N   1      27.429  29.169  -5.550  0.00  0.00     0.059 A 
HETATM   16  C   UNK N   1      26.359  28.680  -4.755  0.00  0.00     0.059 A 
HETATM   17  C   UNK N   1      27.592  31.062  -4.144  0.00  0.00     0.105 A 
HETATM   18  C   UNK N   1      26.535  30.583  -3.364  0.00  0.00     0.105 A 
HETATM   19  H   UNK N   1      27.698  23.090  -7.739  0.00  0.00     0.153 HD
ENDROOT
TORSDOF 0
ENDMDL
MODEL 8
REMARK VINA RESULT:      -5.6     14.063     15.511
REMARK  0 active torsions:
REMARK  status: ('A' for Active; 'I' for Inactive)
ROOT
HETATM    1  N   UNK N   1      35.747   8.647  14.620  0.00  0.00    -0.420 N 
HETATM    2  N   UNK N   1      37.353  15.144  15.139  0.00  0.00    -0.363 N 
ATOM      3  HN  UNK N   1      37.808  15.317  14.242  1.00  0.00     0.165 HD
HETATM    4  N   UNK N   1      36.127  14.684  17.560  0.00  0.00    -0.363 N 
ATOM      5  HN  UNK N   1      35.674  14.518  18.458  1.00  0.00     0.165 HD
HETATM    6  C   UNK N   1      35.340  10.894  13.528  0.00  0.00     0.037 C 
HETATM    7  C   UNK N   1      34.311  10.474  15.632  0.00  0.00     0.037 C 
HETATM    8  C   UNK N   1      33.961  10.553  14.132  0.00  0.00     0.022 C 
HETATM    9  C   UNK N   1      35.780  11.904  14.517  0.00  0.00    -0.043 A 
HETATM   10  C   UNK N   1      35.181  11.671  15.722  0.00  0.00    -0.043 A 
HETATM   11  C   UNK N   1      36.236   9.646  13.646  0.00  0.00     0.123 C 
HETATM   12  C   UNK N   1      35.171   9.213  15.857  0.00  0.00     0.123 C 
HETATM   13  C   UNK N   1      36.518  13.067  14.281  0.00  0.00     0.040 A 
HETATM   14  C   UNK N   1      35.269  12.590  16.771  0.00  0.00     0.040 A 
HETATM   15  C   UNK N   1      36.653  13.993  15.324  0.00  0.00     0.059 A 
HETATM   16  C   UNK N   1      36.023  13.757  16.574  0.00  0.00     0.059 A 
HETATM   17  C   UNK N   1      37.455  16.065  16.133  0.00  0.00     0.105 A 
HETATM   18  C   UNK N   1      36.830  15.833  17.364  0.00  0.00     0.105 A 
HETATM   19  H   UNK N   1      35.803   7.643  14.449  0.00  0.00     0.153 HD
ENDROOT
TORSDOF 0
ENDMDL
MODEL 9
REMARK VINA RESULT:      -5.5      2.291      4.953
REMARK  0 active torsions:
REMARK  status: ('A' for Active; 'I' for Inactive)
ROOT
HETATM    1  N   UNK N   1      24.848  16.198   5.964  0.00  0.00    -0.420 N 
HETATM    2  N   UNK N   1      21.530  12.672  10.613  0.00  0.00    -0.363 N 
ATOM      3  HN  UNK N   1      20.560  12.829  10.339  1.00  0.00     0.165 HD
HETATM    4  N   UNK N   1      24.144  12.245  11.360  0.00  0.00    -0.363 N 
ATOM      5  HN  UNK N   1      25.112  12.085  11.641  1.00  0.00     0.165 HD
HETATM    6  C   UNK N   1      23.242  14.259   6.225  0.00  0.00     0.037 C 
HETATM    7  C   UNK N   1      25.505  13.928   6.882  0.00  0.00     0.037 C 
HETATM    8  C   UNK N   1      24.535  13.569   5.739  0.00  0.00     0.022 C 
HETATM    9  C   UNK N   1      23.304  13.880   7.655  0.00  0.00    -0.043 A 
HETATM   10  C   UNK N   1      24.602  13.677   8.030  0.00  0.00    -0.043 A 
HETATM   11  C   UNK N   1      23.436  15.783   6.097  0.00  0.00     0.123 C 
HETATM   12  C   UNK N   1      25.802  15.441   6.800  0.00  0.00     0.123 C 
HETATM   13  C   UNK N   1      22.240  13.548   8.498  0.00  0.00     0.040 A 
HETATM   14  C   UNK N   1      24.925  13.121   9.270  0.00  0.00     0.040 A 
HETATM   15  C   UNK N   1      22.532  13.018   9.762  0.00  0.00     0.059 A 
HETATM   16  C   UNK N   1      23.880  12.800  10.150  0.00  0.00     0.059 A 
HETATM   17  C   UNK N   1      21.805  12.120  11.825  0.00  0.00     0.105 A 
HETATM   18  C   UNK N   1      23.134  11.901  12.205  0.00  0.00     0.105 A 
HETATM   19  H   UNK N   1      25.141  16.951   5.342  0.00  0.00     0.153 HD
ENDROOT
TORSDOF 0
ENDMDL
