MODEL 1
REMARK VINA RESULT:      -7.1      0.000      0.000
REMARK  11 active torsions:
REMARK  status: ('A' for Active; 'I' for Inactive)
REMARK    1  A    between atoms: C_10  and  O_1 
REMARK    2  A    between atoms: O_2  and  C_23 
REMARK    3  A    between atoms: O_3  and  C_22 
REMARK    4  A    between atoms: C_7  and  N_5 
REMARK    5  A    between atoms: N_5  and  C_9 
REMARK    6  A    between atoms: N_6  and  C_18 
REMARK    7  A    between atoms: N_6  and  C_24 
REMARK    8  A    between atoms: C_7  and  C_8 
REMARK    9  A    between atoms: C_8  and  C_12 
REMARK   10  A    between atoms: C_9  and  C_10 
REMARK   11  A    between atoms: C_10  and  C_13 
ROOT
HETATM    1  C   UNK N   1      29.100  17.327   7.964  0.00  0.00     0.168 C 
ENDROOT
BRANCH   1   2
HETATM    2  O   UNK N   1      28.323  16.617   7.044  0.00  0.00    -0.389 OA
HETATM    3  H   UNK N   1      28.133  16.998   6.172  0.00  0.00     0.210 HD
ENDBRANCH   1   2
BRANCH   1   4
HETATM    4  C   UNK N   1      28.502  18.720   8.116  0.00  0.00     0.150 C 
BRANCH   4   5
HETATM    5  N   UNK N   1      27.346  18.909   7.251  0.00  0.00    -0.414 N 
HETATM    6  H   UNK N   1      26.397  18.570   7.405  0.00  0.00     0.153 HD
BRANCH   5   7
HETATM    7  C   UNK N   1      27.833  19.682   6.122  0.00  0.00     0.076 C 
HETATM    8  C   UNK N   1      27.492  21.156   6.267  0.00  0.00     0.032 C 
BRANCH   7   9
HETATM    9  C   UNK N   1      27.410  19.078   4.776  0.00  0.00     0.062 C 
BRANCH   9  10
HETATM   10  C   UNK N   1      26.128  19.565   4.154  0.00  0.00    -0.056 A 
HETATM   11  C   UNK N   1      24.929  19.005   4.603  0.00  0.00     0.010 A 
HETATM   12  C   UNK N   1      23.718  19.345   3.996  0.00  0.00     0.037 A 
HETATM   13  C   UNK N   1      23.693  20.258   2.928  0.00  0.00     0.068 A 
HETATM   14  C   UNK N   1      24.889  20.843   2.499  0.00  0.00     0.037 A 
HETATM   15  C   UNK N   1      26.102  20.497   3.105  0.00  0.00     0.010 A 
BRANCH  13  16
HETATM   16  O   UNK N   1      22.540  20.573   2.292  0.00  0.00    -0.356 OA
HETATM   17  C   UNK N   1      21.296  20.393   2.856  0.00  0.00     0.210 C 
ENDBRANCH  13  16
ENDBRANCH   9  10
ENDBRANCH   7   9
ENDBRANCH   5   7
ENDBRANCH   4   5
ENDBRANCH   1   4
BRANCH   1  18
HETATM   18  C   UNK N   1      30.549  17.357   7.534  0.00  0.00    -0.026 A 
HETATM   19  C   UNK N   1      31.573  17.599   8.465  0.00  0.00     0.042 A 
HETATM   20  C   UNK N   1      32.917  17.662   8.061  0.00  0.00     0.068 A 
HETATM   21  C   UNK N   1      33.231  17.481   6.705  0.00  0.00     0.092 A 
HETATM   22  C   UNK N   1      32.217  17.242   5.774  0.00  0.00     0.039 A 
HETATM   23  C   UNK N   1      30.883  17.185   6.185  0.00  0.00     0.012 A 
BRANCH  20  24
HETATM   24  N   UNK N   1      33.972  17.910   8.991  0.00  0.00    -0.332 N 
HETATM   25  H   UNK N   1      34.210  18.851   9.154  0.00  0.00     0.168 HD
BRANCH  24  26
HETATM   26  C   UNK N   1      34.679  16.969   9.673  0.00  0.00     0.353 C 
HETATM   27  O   UNK N   1      35.625  17.264  10.386  0.00  0.00    -0.283 OA
ENDBRANCH  24  26
ENDBRANCH  20  24
BRANCH  21  28
HETATM   28  O   UNK N   1      34.508  17.542   6.290  0.00  0.00    -0.358 OA
HETATM   29  H   UNK N   1      35.226  17.245   6.812  0.00  0.00     0.217 HD
ENDBRANCH  21  28
ENDBRANCH   1  18
TORSDOF 11
ENDMDL
MODEL 2
REMARK VINA RESULT:      -6.9      8.319     12.039
REMARK  11 active torsions:
REMARK  status: ('A' for Active; 'I' for Inactive)
REMARK    1  A    between atoms: C_10  and  O_1 
REMARK    2  A    between atoms: O_2  and  C_23 
REMARK    3  A    between atoms: O_3  and  C_22 
REMARK    4  A    between atoms: C_7  and  N_5 
REMARK    5  A    between atoms: N_5  and  C_9 
REMARK    6  A    between atoms: N_6  and  C_18 
REMARK    7  A    between atoms: N_6  and  C_24 
REMARK    8  A    between atoms: C_7  and  C_8 
REMARK    9  A    between atoms: C_8  and  C_12 
REMARK   10  A    between atoms: C_9  and  C_10 
REMARK   11  A    between atoms: C_10  and  C_13 
ROOT
HETATM    1  C   UNK N   1      19.680  15.850   5.002  0.00  0.00     0.168 C 
ENDROOT
BRANCH   1   2
HETATM    2  O   UNK N   1      18.347  15.999   5.396  0.00  0.00    -0.389 OA
HETATM    3  H   UNK N   1      18.017  15.531   6.180  0.00  0.00     0.210 HD
ENDBRANCH   1   2
BRANCH   1   4
HETATM    4  C   UNK N   1      20.555  16.619   5.983  0.00  0.00     0.150 C 
BRANCH   4   5
HETATM    5  N   UNK N   1      21.512  15.748   6.652  0.00  0.00    -0.414 N 
HETATM    6  H   UNK N   1      22.523  15.724   6.521  0.00  0.00     0.153 HD
BRANCH   5   7
HETATM    7  C   UNK N   1      20.720  14.921   7.546  0.00  0.00     0.076 C 
HETATM    8  C   UNK N   1      20.593  15.551   8.923  0.00  0.00     0.032 C 
BRANCH   7   9
HETATM    9  C   UNK N   1      21.202  13.464   7.572  0.00  0.00     0.062 C 
BRANCH   9  10
HETATM   10  C   UNK N   1      21.998  13.005   8.765  0.00  0.00    -0.056 A 
HETATM   11  C   UNK N   1      21.296  12.585   9.898  0.00  0.00     0.010 A 
HETATM   12  C   UNK N   1      21.979  12.242  11.067  0.00  0.00     0.037 A 
HETATM   13  C   UNK N   1      23.382  12.313  11.114  0.00  0.00     0.068 A 
HETATM   14  C   UNK N   1      24.087  12.702   9.971  0.00  0.00     0.037 A 
HETATM   15  C   UNK N   1      23.401  13.051   8.802  0.00  0.00     0.010 A 
BRANCH  13  16
HETATM   16  O   UNK N   1      24.067  12.029  12.247  0.00  0.00    -0.356 OA
HETATM   17  C   UNK N   1      23.475  11.959  13.488  0.00  0.00     0.210 C 
ENDBRANCH  13  16
ENDBRANCH   9  10
ENDBRANCH   7   9
ENDBRANCH   5   7
ENDBRANCH   4   5
ENDBRANCH   1   4
BRANCH   1  18
HETATM   18  C   UNK N   1      19.871  16.299   3.572  0.00  0.00    -0.026 A 
HETATM   19  C   UNK N   1      19.859  17.662   3.236  0.00  0.00     0.042 A 
HETATM   20  C   UNK N   1      20.001  18.080   1.902  0.00  0.00     0.068 A 
HETATM   21  C   UNK N   1      20.157  17.113   0.897  0.00  0.00     0.092 A 
HETATM   22  C   UNK N   1      20.168  15.754   1.225  0.00  0.00     0.039 A 
HETATM   23  C   UNK N   1      20.022  15.349   2.554  0.00  0.00     0.012 A 
BRANCH  20  24
HETATM   24  N   UNK N   1      19.988  19.462   1.540  0.00  0.00    -0.332 N 
HETATM   25  H   UNK N   1      19.108  19.868   1.364  0.00  0.00     0.168 HD
BRANCH  24  26
HETATM   26  C   UNK N   1      21.075  20.270   1.415  0.00  0.00     0.353 C 
HETATM   27  O   UNK N   1      21.431  20.709   0.333  0.00  0.00    -0.283 OA
ENDBRANCH  24  26
ENDBRANCH  20  24
BRANCH  21  28
HETATM   28  O   UNK N   1      20.289  17.484  -0.388  0.00  0.00    -0.358 OA
HETATM   29  H   UNK N   1      20.501  18.359  -0.644  0.00  0.00     0.217 HD
ENDBRANCH  21  28
ENDBRANCH   1  18
TORSDOF 11
ENDMDL
MODEL 3
REMARK VINA RESULT:      -6.7      7.993     11.819
REMARK  11 active torsions:
REMARK  status: ('A' for Active; 'I' for Inactive)
REMARK    1  A    between atoms: C_10  and  O_1 
REMARK    2  A    between atoms: O_2  and  C_23 
REMARK    3  A    between atoms: O_3  and  C_22 
REMARK    4  A    between atoms: C_7  and  N_5 
REMARK    5  A    between atoms: N_5  and  C_9 
REMARK    6  A    between atoms: N_6  and  C_18 
REMARK    7  A    between atoms: N_6  and  C_24 
REMARK    8  A    between atoms: C_7  and  C_8 
REMARK    9  A    between atoms: C_8  and  C_12 
REMARK   10  A    between atoms: C_9  and  C_10 
REMARK   11  A    between atoms: C_10  and  C_13 
ROOT
HETATM    1  C   UNK N   1      21.204  17.800   5.570  0.00  0.00     0.168 C 
ENDROOT
BRANCH   1   2
HETATM    2  O   UNK N   1      22.079  18.604   6.306  0.00  0.00    -0.389 OA
HETATM    3  H   UNK N   1      22.100  18.539   7.275  0.00  0.00     0.210 HD
ENDBRANCH   1   2
BRANCH   1   4
HETATM    4  C   UNK N   1      21.746  16.376   5.576  0.00  0.00     0.150 C 
BRANCH   4   5
HETATM    5  N   UNK N   1      22.061  15.924   6.924  0.00  0.00    -0.414 N 
HETATM    6  H   UNK N   1      22.963  15.971   7.397  0.00  0.00     0.153 HD
BRANCH   5   7
HETATM    7  C   UNK N   1      20.817  15.389   7.451  0.00  0.00     0.076 C 
HETATM    8  C   UNK N   1      20.335  16.182   8.654  0.00  0.00     0.032 C 
BRANCH   7   9
HETATM    9  C   UNK N   1      20.890  13.876   7.694  0.00  0.00     0.062 C 
BRANCH   9  10
HETATM   10  C   UNK N   1      21.616  13.391   8.921  0.00  0.00    -0.056 A 
HETATM   11  C   UNK N   1      23.011  13.317   8.870  0.00  0.00     0.010 A 
HETATM   12  C   UNK N   1      23.730  12.783   9.941  0.00  0.00     0.037 A 
HETATM   13  C   UNK N   1      23.058  12.318  11.085  0.00  0.00     0.068 A 
HETATM   14  C   UNK N   1      21.665  12.422  11.150  0.00  0.00     0.037 A 
HETATM   15  C   UNK N   1      20.945  12.952  10.073  0.00  0.00     0.010 A 
BRANCH  13  16
HETATM   16  O   UNK N   1      23.727  11.756  12.119  0.00  0.00    -0.356 OA
HETATM   17  C   UNK N   1      23.380  11.956  13.437  0.00  0.00     0.210 C 
ENDBRANCH  13  16
ENDBRANCH   9  10
ENDBRANCH   7   9
ENDBRANCH   5   7
ENDBRANCH   4   5
ENDBRANCH   1   4
BRANCH   1  18
HETATM   18  C   UNK N   1      21.016  18.348   4.174  0.00  0.00    -0.026 A 
HETATM   19  C   UNK N   1      20.176  17.702   3.253  0.00  0.00     0.042 A 
HETATM   20  C   UNK N   1      20.027  18.190   1.944  0.00  0.00     0.068 A 
HETATM   21  C   UNK N   1      20.734  19.340   1.560  0.00  0.00     0.092 A 
HETATM   22  C   UNK N   1      21.573  19.986   2.472  0.00  0.00     0.039 A 
HETATM   23  C   UNK N   1      21.717  19.491   3.770  0.00  0.00     0.012 A 
BRANCH  20  24
HETATM   24  N   UNK N   1      19.180  17.545   0.991  0.00  0.00    -0.332 N 
HETATM   25  H   UNK N   1      18.261  17.889   0.907  0.00  0.00     0.168 HD
BRANCH  24  26
HETATM   26  C   UNK N   1      19.522  16.501   0.189  0.00  0.00     0.353 C 
HETATM   27  O   UNK N   1      19.831  15.412   0.646  0.00  0.00    -0.283 OA
ENDBRANCH  24  26
ENDBRANCH  20  24
BRANCH  21  28
HETATM   28  O   UNK N   1      20.616  19.825   0.312  0.00  0.00    -0.358 OA
HETATM   29  H   UNK N   1      20.568  19.275  -0.444  0.00  0.00     0.217 HD
ENDBRANCH  21  28
ENDBRANCH   1  18
TORSDOF 11
ENDMDL
MODEL 4
REMARK VINA RESULT:      -6.6     10.532     13.386
REMARK  11 active torsions:
REMARK  status: ('A' for Active; 'I' for Inactive)
REMARK    1  A    between atoms: C_10  and  O_1 
REMARK    2  A    between atoms: O_2  and  C_23 
REMARK    3  A    between atoms: O_3  and  C_22 
REMARK    4  A    between atoms: C_7  and  N_5 
REMARK    5  A    between atoms: N_5  and  C_9 
REMARK    6  A    between atoms: N_6  and  C_18 
REMARK    7  A    between atoms: N_6  and  C_24 
REMARK    8  A    between atoms: C_7  and  C_8 
REMARK    9  A    between atoms: C_8  and  C_12 
REMARK   10  A    between atoms: C_9  and  C_10 
REMARK   11  A    between atoms: C_10  and  C_13 
ROOT
HETATM    1  C   UNK N   1      27.404  24.242  -4.574  0.00  0.00     0.168 C 
ENDROOT
BRANCH   1   2
HETATM    2  O   UNK N   1      26.369  24.316  -3.637  0.00  0.00    -0.389 OA
HETATM    3  H   UNK N   1      25.957  25.171  -3.435  0.00  0.00     0.210 HD
ENDBRANCH   1   2
BRANCH   1   4
HETATM    4  C   UNK N   1      26.874  23.536  -5.815  0.00  0.00     0.150 C 
BRANCH   4   5
HETATM    5  N   UNK N   1      27.180  24.276  -7.031  0.00  0.00    -0.414 N 
HETATM    6  H   UNK N   1      28.097  24.408  -7.459  0.00  0.00     0.153 HD
BRANCH   5   7
HETATM    7  C   UNK N   1      25.906  24.789  -7.502  0.00  0.00     0.076 C 
HETATM    8  C   UNK N   1      25.415  24.026  -8.721  0.00  0.00     0.032 C 
BRANCH   7   9
HETATM    9  C   UNK N   1      25.923  26.312  -7.688  0.00  0.00     0.062 C 
BRANCH   9  10
HETATM   10  C   UNK N   1      26.019  27.173  -6.456  0.00  0.00    -0.056 A 
HETATM   11  C   UNK N   1      27.140  27.996  -6.319  0.00  0.00     0.010 A 
HETATM   12  C   UNK N   1      27.331  28.742  -5.153  0.00  0.00     0.037 A 
HETATM   13  C   UNK N   1      26.395  28.675  -4.107  0.00  0.00     0.068 A 
HETATM   14  C   UNK N   1      25.257  27.876  -4.257  0.00  0.00     0.037 A 
HETATM   15  C   UNK N   1      25.069  27.125  -5.423  0.00  0.00     0.010 A 
BRANCH  13  16
HETATM   16  O   UNK N   1      26.577  29.352  -2.950  0.00  0.00    -0.356 OA
HETATM   17  C   UNK N   1      27.816  29.747  -2.495  0.00  0.00     0.210 C 
ENDBRANCH  13  16
ENDBRANCH   9  10
ENDBRANCH   7   9
ENDBRANCH   5   7
ENDBRANCH   4   5
ENDBRANCH   1   4
BRANCH   1  18
HETATM   18  C   UNK N   1      28.615  23.557  -3.984  0.00  0.00    -0.026 A 
HETATM   19  C   UNK N   1      29.495  22.822  -4.796  0.00  0.00     0.042 A 
HETATM   20  C   UNK N   1      30.602  22.156  -4.244  0.00  0.00     0.068 A 
HETATM   21  C   UNK N   1      30.822  22.229  -2.860  0.00  0.00     0.092 A 
HETATM   22  C   UNK N   1      29.949  22.957  -2.047  0.00  0.00     0.039 A 
HETATM   23  C   UNK N   1      28.849  23.614  -2.605  0.00  0.00     0.012 A 
BRANCH  20  24
HETATM   24  N   UNK N   1      31.506  21.401  -5.052  0.00  0.00    -0.332 N 
HETATM   25  H   UNK N   1      32.413  21.767  -5.167  0.00  0.00     0.168 HD
BRANCH  24  26
HETATM   26  C   UNK N   1      31.233  20.224  -5.678  0.00  0.00     0.353 C 
HETATM   27  O   UNK N   1      30.707  20.186  -6.779  0.00  0.00    -0.283 OA
ENDBRANCH  24  26
ENDBRANCH  20  24
BRANCH  21  28
HETATM   28  O   UNK N   1      31.870  21.596  -2.304  0.00  0.00    -0.358 OA
HETATM   29  H   UNK N   1      32.353  20.929  -2.749  0.00  0.00     0.217 HD
ENDBRANCH  21  28
ENDBRANCH   1  18
TORSDOF 11
ENDMDL
MODEL 5
REMARK VINA RESULT:      -6.5      3.155      7.801
REMARK  11 active torsions:
REMARK  status: ('A' for Active; 'I' for Inactive)
REMARK    1  A    between atoms: C_10  and  O_1 
REMARK    2  A    between atoms: O_2  and  C_23 
REMARK    3  A    between atoms: O_3  and  C_22 
REMARK    4  A    between atoms: C_7  and  N_5 
REMARK    5  A    between atoms: N_5  and  C_9 
REMARK    6  A    between atoms: N_6  and  C_18 
REMARK    7  A    between atoms: N_6  and  C_24 
REMARK    8  A    between atoms: C_7  and  C_8 
REMARK    9  A    between atoms: C_8  and  C_12 
REMARK   10  A    between atoms: C_9  and  C_10 
REMARK   11  A    between atoms: C_10  and  C_13 
ROOT
HETATM    1  C   UNK N   1      30.492  17.192   8.656  0.00  0.00     0.168 C 
ENDROOT
BRANCH   1   2
HETATM    2  O   UNK N   1      29.849  17.508   9.857  0.00  0.00    -0.389 OA
HETATM    3  H   UNK N   1      29.756  18.435  10.129  0.00  0.00     0.210 HD
ENDBRANCH   1   2
BRANCH   1   4
HETATM    4  C   UNK N   1      31.856  17.870   8.654  0.00  0.00     0.150 C 
BRANCH   4   5
HETATM    5  N   UNK N   1      32.940  16.903   8.765  0.00  0.00    -0.414 N 
HETATM    6  H   UNK N   1      32.966  16.069   9.352  0.00  0.00     0.153 HD
BRANCH   5   7
HETATM    7  C   UNK N   1      33.975  17.380   7.865  0.00  0.00     0.076 C 
HETATM    8  C   UNK N   1      34.886  18.388   8.547  0.00  0.00     0.032 C 
BRANCH   7   9
HETATM    9  C   UNK N   1      33.405  17.865   6.526  0.00  0.00     0.062 C 
BRANCH   9  10
HETATM   10  C   UNK N   1      33.527  16.953   5.334  0.00  0.00    -0.056 A 
HETATM   11  C   UNK N   1      32.876  17.326   4.154  0.00  0.00     0.010 A 
HETATM   12  C   UNK N   1      32.872  16.473   3.049  0.00  0.00     0.037 A 
HETATM   13  C   UNK N   1      33.526  15.230   3.110  0.00  0.00     0.068 A 
HETATM   14  C   UNK N   1      34.205  14.870   4.279  0.00  0.00     0.037 A 
HETATM   15  C   UNK N   1      34.203  15.724   5.388  0.00  0.00     0.010 A 
BRANCH  13  16
HETATM   16  O   UNK N   1      33.501  14.365   2.069  0.00  0.00    -0.356 OA
HETATM   17  C   UNK N   1      32.975  13.095   2.158  0.00  0.00     0.210 C 
ENDBRANCH  13  16
ENDBRANCH   9  10
ENDBRANCH   7   9
ENDBRANCH   5   7
ENDBRANCH   4   5
ENDBRANCH   1   4
BRANCH   1  18
HETATM   18  C   UNK N   1      29.641  17.588   7.471  0.00  0.00    -0.026 A 
HETATM   19  C   UNK N   1      28.581  18.497   7.615  0.00  0.00     0.042 A 
HETATM   20  C   UNK N   1      27.767  18.839   6.522  0.00  0.00     0.068 A 
HETATM   21  C   UNK N   1      28.025  18.258   5.271  0.00  0.00     0.092 A 
HETATM   22  C   UNK N   1      29.078  17.351   5.122  0.00  0.00     0.039 A 
HETATM   23  C   UNK N   1      29.879  17.015   6.216  0.00  0.00     0.012 A 
BRANCH  20  24
HETATM   24  N   UNK N   1      26.682  19.759   6.650  0.00  0.00    -0.332 N 
HETATM   25  H   UNK N   1      25.822  19.393   6.963  0.00  0.00     0.168 HD
BRANCH  24  26
HETATM   26  C   UNK N   1      26.722  21.091   6.380  0.00  0.00     0.353 C 
HETATM   27  O   UNK N   1      27.774  21.707   6.329  0.00  0.00    -0.283 OA
ENDBRANCH  24  26
ENDBRANCH  20  24
BRANCH  21  28
HETATM   28  O   UNK N   1      27.259  18.562   4.209  0.00  0.00    -0.358 OA
HETATM   29  H   UNK N   1      27.540  18.428   3.326  0.00  0.00     0.217 HD
ENDBRANCH  21  28
ENDBRANCH   1  18
TORSDOF 11
ENDMDL
MODEL 6
REMARK VINA RESULT:      -6.5     10.907     12.725
REMARK  11 active torsions:
REMARK  status: ('A' for Active; 'I' for Inactive)
REMARK    1  A    between atoms: C_10  and  O_1 
REMARK    2  A    between atoms: O_2  and  C_23 
REMARK    3  A    between atoms: O_3  and  C_22 
REMARK    4  A    between atoms: C_7  and  N_5 
REMARK    5  A    between atoms: N_5  and  C_9 
REMARK    6  A    between atoms: N_6  and  C_18 
REMARK    7  A    between atoms: N_6  and  C_24 
REMARK    8  A    between atoms: C_7  and  C_8 
REMARK    9  A    between atoms: C_8  and  C_12 
REMARK   10  A    between atoms: C_9  and  C_10 
REMARK   11  A    between atoms: C_10  and  C_13 
ROOT
HETATM    1  C   UNK N   1      29.379  21.201  -6.842  0.00  0.00     0.168 C 
ENDROOT
BRANCH   1   2
HETATM    2  O   UNK N   1      30.175  21.293  -7.987  0.00  0.00    -0.389 OA
HETATM    3  H   UNK N   1      29.781  21.165  -8.865  0.00  0.00     0.210 HD
ENDBRANCH   1   2
BRANCH   1   4
HETATM    4  C   UNK N   1      28.344  22.318  -6.892  0.00  0.00     0.150 C 
BRANCH   4   5
HETATM    5  N   UNK N   1      27.151  21.917  -7.626  0.00  0.00    -0.414 N 
HETATM    6  H   UNK N   1      27.106  21.317  -8.450  0.00  0.00     0.153 HD
BRANCH   5   7
HETATM    7  C   UNK N   1      26.043  22.552  -6.937  0.00  0.00     0.076 C 
HETATM    8  C   UNK N   1      24.788  21.696  -6.992  0.00  0.00     0.032 C 
BRANCH   7   9
HETATM    9  C   UNK N   1      25.826  24.001  -7.393  0.00  0.00     0.062 C 
BRANCH   9  10
HETATM   10  C   UNK N   1      25.878  25.086  -6.350  0.00  0.00    -0.056 A 
HETATM   11  C   UNK N   1      26.266  24.730  -5.054  0.00  0.00     0.010 A 
HETATM   12  C   UNK N   1      26.238  25.673  -4.024  0.00  0.00     0.037 A 
HETATM   13  C   UNK N   1      25.823  26.991  -4.280  0.00  0.00     0.068 A 
HETATM   14  C   UNK N   1      25.465  27.355  -5.582  0.00  0.00     0.037 A 
HETATM   15  C   UNK N   1      25.488  26.409  -6.612  0.00  0.00     0.010 A 
BRANCH  13  16
HETATM   16  O   UNK N   1      25.744  27.913  -3.292  0.00  0.00    -0.356 OA
HETATM   17  C   UNK N   1      26.338  29.153  -3.371  0.00  0.00     0.210 C 
ENDBRANCH  13  16
ENDBRANCH   9  10
ENDBRANCH   7   9
ENDBRANCH   5   7
ENDBRANCH   4   5
ENDBRANCH   1   4
BRANCH   1  18
HETATM   18  C   UNK N   1      30.227  21.246  -5.592  0.00  0.00    -0.026 A 
HETATM   19  C   UNK N   1      31.257  20.314  -5.385  0.00  0.00     0.042 A 
HETATM   20  C   UNK N   1      32.024  20.332  -4.208  0.00  0.00     0.068 A 
HETATM   21  C   UNK N   1      31.746  21.298  -3.229  0.00  0.00     0.092 A 
HETATM   22  C   UNK N   1      30.720  22.227  -3.427  0.00  0.00     0.039 A 
HETATM   23  C   UNK N   1      29.962  22.198  -4.600  0.00  0.00     0.012 A 
BRANCH  20  24
HETATM   24  N   UNK N   1      33.074  19.392  -3.978  0.00  0.00    -0.332 N 
HETATM   25  H   UNK N   1      32.859  18.614  -3.414  0.00  0.00     0.168 HD
BRANCH  24  26
HETATM   26  C   UNK N   1      34.342  19.470  -4.464  0.00  0.00     0.353 C 
HETATM   27  O   UNK N   1      35.154  18.574  -4.291  0.00  0.00    -0.283 OA
ENDBRANCH  24  26
ENDBRANCH  20  24
BRANCH  21  28
HETATM   28  O   UNK N   1      32.460  21.335  -2.090  0.00  0.00    -0.358 OA
HETATM   29  H   UNK N   1      32.301  21.962  -1.412  0.00  0.00     0.217 HD
ENDBRANCH  21  28
ENDBRANCH   1  18
TORSDOF 11
ENDMDL
MODEL 7
REMARK VINA RESULT:      -6.5     10.605     13.546
REMARK  11 active torsions:
REMARK  status: ('A' for Active; 'I' for Inactive)
REMARK    1  A    between atoms: C_10  and  O_1 
REMARK    2  A    between atoms: O_2  and  C_23 
REMARK    3  A    between atoms: O_3  and  C_22 
REMARK    4  A    between atoms: C_7  and  N_5 
REMARK    5  A    between atoms: N_5  and  C_9 
REMARK    6  A    between atoms: N_6  and  C_18 
REMARK    7  A    between atoms: N_6  and  C_24 
REMARK    8  A    between atoms: C_7  and  C_8 
REMARK    9  A    between atoms: C_8  and  C_12 
REMARK   10  A    between atoms: C_9  and  C_10 
REMARK   11  A    between atoms: C_10  and  C_13 
ROOT
HETATM    1  C   UNK N   1      30.269  28.102  -3.594  0.00  0.00     0.168 C 
ENDROOT
BRANCH   1   2
HETATM    2  O   UNK N   1      31.125  27.873  -2.513  0.00  0.00    -0.389 OA
HETATM    3  H   UNK N   1      31.596  27.027  -2.437  0.00  0.00     0.210 HD
ENDBRANCH   1   2
BRANCH   1   4
HETATM    4  C   UNK N   1      29.030  28.821  -3.075  0.00  0.00     0.150 C 
BRANCH   4   5
HETATM    5  N   UNK N   1      28.585  29.861  -3.993  0.00  0.00    -0.414 N 
HETATM    6  H   UNK N   1      29.169  30.494  -4.539  0.00  0.00     0.153 HD
BRANCH   5   7
HETATM    7  C   UNK N   1      27.134  29.805  -3.964  0.00  0.00     0.076 C 
HETATM    8  C   UNK N   1      26.540  31.062  -3.352  0.00  0.00     0.032 C 
BRANCH   7   9
HETATM    9  C   UNK N   1      26.613  28.504  -3.339  0.00  0.00     0.062 C 
BRANCH   9  10
HETATM   10  C   UNK N   1      26.223  27.382  -4.264  0.00  0.00    -0.056 A 
HETATM   11  C   UNK N   1      26.302  26.074  -3.777  0.00  0.00     0.010 A 
HETATM   12  C   UNK N   1      26.047  24.989  -4.619  0.00  0.00     0.037 A 
HETATM   13  C   UNK N   1      25.705  25.202  -5.966  0.00  0.00     0.068 A 
HETATM   14  C   UNK N   1      25.595  26.512  -6.446  0.00  0.00     0.037 A 
HETATM   15  C   UNK N   1      25.856  27.598  -5.602  0.00  0.00     0.010 A 
BRANCH  13  16
HETATM   16  O   UNK N   1      25.496  24.169  -6.815  0.00  0.00    -0.356 OA
HETATM   17  C   UNK N   1      25.574  22.849  -6.429  0.00  0.00     0.210 C 
ENDBRANCH  13  16
ENDBRANCH   9  10
ENDBRANCH   7   9
ENDBRANCH   5   7
ENDBRANCH   4   5
ENDBRANCH   1   4
BRANCH   1  18
HETATM   18  C   UNK N   1      29.940  26.809  -4.304  0.00  0.00    -0.026 A 
HETATM   19  C   UNK N   1      29.976  25.582  -3.621  0.00  0.00     0.042 A 
HETATM   20  C   UNK N   1      29.705  24.375  -4.287  0.00  0.00     0.068 A 
HETATM   21  C   UNK N   1      29.396  24.406  -5.656  0.00  0.00     0.092 A 
HETATM   22  C   UNK N   1      29.360  25.624  -6.341  0.00  0.00     0.039 A 
HETATM   23  C   UNK N   1      29.634  26.818  -5.670  0.00  0.00     0.012 A 
BRANCH  20  24
HETATM   24  N   UNK N   1      29.740  23.118  -3.611  0.00  0.00    -0.332 N 
HETATM   25  H   UNK N   1      29.916  22.320  -4.162  0.00  0.00     0.168 HD
BRANCH  24  26
HETATM   26  C   UNK N   1      29.553  22.916  -2.279  0.00  0.00     0.353 C 
HETATM   27  O   UNK N   1      30.448  23.096  -1.468  0.00  0.00    -0.283 OA
ENDBRANCH  24  26
ENDBRANCH  20  24
BRANCH  21  28
HETATM   28  O   UNK N   1      29.138  23.266  -6.320  0.00  0.00    -0.358 OA
HETATM   29  H   UNK N   1      28.594  22.588  -5.971  0.00  0.00     0.217 HD
ENDBRANCH  21  28
ENDBRANCH   1  18
TORSDOF 11
ENDMDL
MODEL 8
REMARK VINA RESULT:      -6.5      3.372     10.133
REMARK  11 active torsions:
REMARK  status: ('A' for Active; 'I' for Inactive)
REMARK    1  A    between atoms: C_10  and  O_1 
REMARK    2  A    between atoms: O_2  and  C_23 
REMARK    3  A    between atoms: O_3  and  C_22 
REMARK    4  A    between atoms: C_7  and  N_5 
REMARK    5  A    between atoms: N_5  and  C_9 
REMARK    6  A    between atoms: N_6  and  C_18 
REMARK    7  A    between atoms: N_6  and  C_24 
REMARK    8  A    between atoms: C_7  and  C_8 
REMARK    9  A    between atoms: C_8  and  C_12 
REMARK   10  A    between atoms: C_9  and  C_10 
REMARK   11  A    between atoms: C_10  and  C_13 
ROOT
HETATM    1  C   UNK N   1      23.682  17.273   4.382  0.00  0.00     0.168 C 
ENDROOT
BRANCH   1   2
HETATM    2  O   UNK N   1      23.680  17.078   5.767  0.00  0.00    -0.389 OA
HETATM    3  H   UNK N   1      23.211  16.319   6.150  0.00  0.00     0.210 HD
ENDBRANCH   1   2
BRANCH   1   4
HETATM    4  C   UNK N   1      24.717  18.341   4.053  0.00  0.00     0.150 C 
BRANCH   4   5
HETATM    5  N   UNK N   1      25.104  19.100   5.234  0.00  0.00    -0.414 N 
HETATM    6  H   UNK N   1      25.016  18.813   6.209  0.00  0.00     0.153 HD
BRANCH   5   7
HETATM    7  C   UNK N   1      25.642  20.350   4.729  0.00  0.00     0.076 C 
HETATM    8  C   UNK N   1      25.697  20.361   3.211  0.00  0.00     0.032 C 
BRANCH   7   9
HETATM    9  C   UNK N   1      26.969  20.728   5.401  0.00  0.00     0.062 C 
BRANCH   9  10
HETATM   10  C   UNK N   1      27.881  19.613   5.840  0.00  0.00    -0.056 A 
HETATM   11  C   UNK N   1      28.525  18.866   4.849  0.00  0.00     0.010 A 
HETATM   12  C   UNK N   1      29.305  17.759   5.192  0.00  0.00     0.037 A 
HETATM   13  C   UNK N   1      29.453  17.387   6.540  0.00  0.00     0.068 A 
HETATM   14  C   UNK N   1      28.835  18.154   7.534  0.00  0.00     0.037 A 
HETATM   15  C   UNK N   1      28.050  19.259   7.187  0.00  0.00     0.010 A 
BRANCH  13  16
HETATM   16  O   UNK N   1      30.166  16.294   6.898  0.00  0.00    -0.356 OA
HETATM   17  C   UNK N   1      30.621  15.362   5.992  0.00  0.00     0.210 C 
ENDBRANCH  13  16
ENDBRANCH   9  10
ENDBRANCH   7   9
ENDBRANCH   5   7
ENDBRANCH   4   5
ENDBRANCH   1   4
BRANCH   1  18
HETATM   18  C   UNK N   1      22.299  17.628   3.887  0.00  0.00    -0.026 A 
HETATM   19  C   UNK N   1      21.558  16.726   3.106  0.00  0.00     0.042 A 
HETATM   20  C   UNK N   1      20.287  17.068   2.616  0.00  0.00     0.068 A 
HETATM   21  C   UNK N   1      19.758  18.333   2.915  0.00  0.00     0.092 A 
HETATM   22  C   UNK N   1      20.491  19.236   3.690  0.00  0.00     0.039 A 
HETATM   23  C   UNK N   1      21.756  18.887   4.170  0.00  0.00     0.012 A 
BRANCH  20  24
HETATM   24  N   UNK N   1      19.520  16.165   1.818  0.00  0.00    -0.332 N 
HETATM   25  H   UNK N   1      18.790  15.681   2.268  0.00  0.00     0.168 HD
BRANCH  24  26
HETATM   26  C   UNK N   1      19.702  15.911   0.494  0.00  0.00     0.353 C 
HETATM   27  O   UNK N   1      19.902  16.804  -0.313  0.00  0.00    -0.283 OA
ENDBRANCH  24  26
ENDBRANCH  20  24
BRANCH  21  28
HETATM   28  O   UNK N   1      18.547  18.689   2.454  0.00  0.00    -0.358 OA
HETATM   29  H   UNK N   1      17.770  18.197   2.635  0.00  0.00     0.217 HD
ENDBRANCH  21  28
ENDBRANCH   1  18
TORSDOF 11
ENDMDL
MODEL 9
REMARK VINA RESULT:      -6.4      6.424     10.558
REMARK  11 active torsions:
REMARK  status: ('A' for Active; 'I' for Inactive)
REMARK    1  A    between atoms: C_10  and  O_1 
REMARK    2  A    between atoms: O_2  and  C_23 
REMARK    3  A    between atoms: O_3  and  C_22 
REMARK    4  A    between atoms: C_7  and  N_5 
REMARK    5  A    between atoms: N_5  and  C_9 
REMARK    6  A    between atoms: N_6  and  C_18 
REMARK    7  A    between atoms: N_6  and  C_24 
REMARK    8  A    between atoms: C_7  and  C_8 
REMARK    9  A    between atoms: C_8  and  C_12 
REMARK   10  A    between atoms: C_9  and  C_10 
REMARK   11  A    between atoms: C_10  and  C_13 
ROOT
HETATM    1  C   UNK N   1      19.623  15.963   5.204  0.00  0.00     0.168 C 
ENDROOT
BRANCH   1   2
HETATM    2  O   UNK N   1      18.263  15.930   5.524  0.00  0.00    -0.389 OA
HETATM    3  H   UNK N   1      17.790  15.083   5.550  0.00  0.00     0.210 HD
ENDBRANCH   1   2
BRANCH   1   4
HETATM    4  C   UNK N   1      20.326  16.871   6.206  0.00  0.00     0.150 C 
BRANCH   4   5
HETATM    5  N   UNK N   1      21.196  16.119   7.099  0.00  0.00    -0.414 N 
HETATM    6  H   UNK N   1      21.062  15.952   8.096  0.00  0.00     0.153 HD
BRANCH   5   7
HETATM    7  C   UNK N   1      22.294  15.657   6.268  0.00  0.00     0.076 C 
HETATM    8  C   UNK N   1      23.180  14.672   7.013  0.00  0.00     0.032 C 
BRANCH   7   9
HETATM    9  C   UNK N   1      23.064  16.817   5.622  0.00  0.00     0.062 C 
BRANCH   9  10
HETATM   10  C   UNK N   1      24.076  16.486   4.557  0.00  0.00    -0.056 A 
HETATM   11  C   UNK N   1      23.671  15.666   3.500  0.00  0.00     0.010 A 
HETATM   12  C   UNK N   1      24.591  15.246   2.537  0.00  0.00     0.037 A 
HETATM   13  C   UNK N   1      25.936  15.647   2.620  0.00  0.00     0.068 A 
HETATM   14  C   UNK N   1      26.335  16.493   3.659  0.00  0.00     0.037 A 
HETATM   15  C   UNK N   1      25.413  16.909   4.626  0.00  0.00     0.010 A 
BRANCH  13  16
HETATM   16  O   UNK N   1      26.858  15.220   1.726  0.00  0.00    -0.356 OA
HETATM   17  C   UNK N   1      28.169  14.963   2.062  0.00  0.00     0.210 C 
ENDBRANCH  13  16
ENDBRANCH   9  10
ENDBRANCH   7   9
ENDBRANCH   5   7
ENDBRANCH   4   5
ENDBRANCH   1   4
BRANCH   1  18
HETATM   18  C   UNK N   1      19.829  16.402   3.773  0.00  0.00    -0.026 A 
HETATM   19  C   UNK N   1      19.782  17.761   3.422  0.00  0.00     0.042 A 
HETATM   20  C   UNK N   1      19.938  18.169   2.086  0.00  0.00     0.068 A 
HETATM   21  C   UNK N   1      20.141  17.197   1.095  0.00  0.00     0.092 A 
HETATM   22  C   UNK N   1      20.186  15.842   1.438  0.00  0.00     0.039 A 
HETATM   23  C   UNK N   1      20.027  15.447   2.769  0.00  0.00     0.012 A 
BRANCH  20  24
HETATM   24  N   UNK N   1      19.890  19.546   1.709  0.00  0.00    -0.332 N 
HETATM   25  H   UNK N   1      19.011  19.988   1.746  0.00  0.00     0.168 HD
BRANCH  24  26
HETATM   26  C   UNK N   1      20.944  20.304   1.303  0.00  0.00     0.353 C 
HETATM   27  O   UNK N   1      21.124  20.581   0.127  0.00  0.00    -0.283 OA
ENDBRANCH  24  26
ENDBRANCH  20  24
BRANCH  21  28
HETATM   28  O   UNK N   1      20.287  17.558  -0.191  0.00  0.00    -0.358 OA
HETATM   29  H   UNK N   1      19.951  18.362  -0.534  0.00  0.00     0.217 HD
ENDBRANCH  21  28
ENDBRANCH   1  18
TORSDOF 11
ENDMDL
