REMARK  6 active torsions:
REMARK  status: ('A' for Active; 'I' for Inactive)
REMARK    1  A    between atoms: C_14  and  O_2 
REMARK    2  A    between atoms: C_16  and  O_3 
REMARK    3  A    between atoms: O_4  and  C_18 
REMARK    4  A    between atoms: O_5  and  C_22 
REMARK    5  A    between atoms: C_15  and  N_6 
REMARK       I    between atoms: N_13  and  C_23 
REMARK    6  A    between atoms: C_17  and  C_18 
ROOT
HETATM    1  N   UNK N   1       5.364  -0.748  -0.189  0.00  0.00    -0.297 N 
HETATM    2  N   UNK N   1       5.304  -2.991  -0.013  0.00  0.00    -0.346 N 
ATOM      3  HN  UNK N   1       5.592  -3.968   0.051  1.00  0.00     0.167 HD
HETATM    4  N   UNK N   1       2.972  -0.390  -0.078  0.00  0.00    -0.174 N 
ATOM      5  HN  UNK N   1       3.029   0.625  -0.161  1.00  0.00     0.186 HD
HETATM    6  N   UNK N   1       1.698  -2.390   0.105  0.00  0.00    -0.168 N 
ATOM      7  HN  UNK N   1       0.788  -2.846   0.166  1.00  0.00     0.186 HD
HETATM    8  N   UNK N   1       0.575  -0.263  -0.003  0.00  0.00    -0.234 N 
HETATM    9  C   UNK N   1       4.094  -1.152  -0.058  0.00  0.00     0.157 A 
HETATM   10  C   UNK N   1       6.098  -1.894  -0.169  0.00  0.00     0.188 A 
HETATM   11  C   UNK N   1       4.053  -2.494   0.038  0.00  0.00     0.130 A 
HETATM   12  C   UNK N   1       2.838  -3.154   0.116  0.00  0.00     0.188 A 
HETATM   13  C   UNK N   1       1.763  -1.021   0.015  0.00  0.00     0.679 A 
HETATM   14  H   UNK N   1       0.619   0.720  -0.016  0.00  0.00     0.174 HD
HETATM   15  H   UNK N   1      -0.298  -0.717  -0.003  0.00  0.00     0.174 HD
ENDROOT
BRANCH   1  16
HETATM   16  C   UNK N   1       5.851   0.607  -0.466  0.00  0.00     0.262 C 
HETATM   17  O   UNK N   1       4.894   1.590  -0.137  0.00  0.00    -0.353 OA
HETATM   18  C   UNK N   1       5.640   2.713   0.279  0.00  0.00     0.179 C 
HETATM   19  C   UNK N   1       7.092   2.428  -0.043  0.00  0.00     0.182 C 
HETATM   20  C   UNK N   1       7.131   0.970   0.245  0.00  0.00     0.198 C 
BRANCH  18  21
HETATM   21  C   UNK N   1       5.144   3.957  -0.441  0.00  0.00     0.198 C 
BRANCH  21  22
HETATM   22  O   UNK N   1       5.756   5.098   0.077  0.00  0.00    -0.398 OA
HETATM   23  H   UNK N   1       6.656   5.126   0.438  0.00  0.00     0.209 HD
ENDBRANCH  21  22
ENDBRANCH  18  21
BRANCH  19  24
HETATM   24  O   UNK N   1       7.964   3.147   0.773  0.00  0.00    -0.390 OA
HETATM   25  H   UNK N   1       8.701   2.871   1.341  0.00  0.00     0.210 HD
ENDBRANCH  19  24
BRANCH  20  26
HETATM   26  O   UNK N   1       8.232   0.375  -0.372  0.00  0.00    -0.388 OA
HETATM   27  H   UNK N   1       8.257  -0.495  -0.801  0.00  0.00     0.210 HD
ENDBRANCH  20  26
ENDBRANCH   1  16
BRANCH  12  28
HETATM   28  O   UNK N   1       2.783  -4.503   0.167  0.00  0.00    -0.339 OA
HETATM   29  C   UNK N   1       1.591  -5.189   0.155  0.00  0.00     0.211 C 
ENDBRANCH  12  28
TORSDOF 6
