MODEL 1
REMARK VINA RESULT:      -6.4      0.000      0.000
REMARK  6 active torsions:
REMARK  status: ('A' for Active; 'I' for Inactive)
REMARK    1  A    between atoms: C_14  and  O_2 
REMARK    2  A    between atoms: C_16  and  O_3 
REMARK    3  A    between atoms: O_4  and  C_18 
REMARK    4  A    between atoms: O_5  and  C_22 
REMARK    5  A    between atoms: C_15  and  N_6 
REMARK       I    between atoms: N_13  and  C_23 
REMARK    6  A    between atoms: C_17  and  C_18 
ROOT
HETATM    1  N   UNK N   1      32.996  15.035   8.668  0.00  0.00    -0.297 N 
HETATM    2  N   UNK N   1      32.126  14.680   6.623  0.00  0.00    -0.346 N 
ATOM      3  HN  UNK N   1      31.954  14.292   5.695  1.00  0.00     0.167 HD
HETATM    4  N   UNK N   1      31.522  16.852   9.293  0.00  0.00    -0.174 N 
ATOM      5  HN  UNK N   1      31.937  16.991  10.214  1.00  0.00     0.186 HD
HETATM    6  N   UNK N   1      29.958  17.458   7.607  0.00  0.00    -0.168 N 
ATOM      7  HN  UNK N   1      29.198  18.060   7.294  1.00  0.00     0.186 HD
HETATM    8  N   UNK N   1      29.998  18.664   9.689  0.00  0.00    -0.234 N 
HETATM    9  C   UNK N   1      31.975  15.877   8.465  0.00  0.00     0.157 A 
HETATM   10  C   UNK N   1      33.083  14.310   7.520  0.00  0.00     0.188 A 
HETATM   11  C   UNK N   1      31.458  15.675   7.239  0.00  0.00     0.130 A 
HETATM   12  C   UNK N   1      30.428  16.475   6.772  0.00  0.00     0.188 A 
HETATM   13  C   UNK N   1      30.495  17.641   8.857  0.00  0.00     0.679 A 
HETATM   14  H   UNK N   1      30.345  18.766  10.605  0.00  0.00     0.174 HD
HETATM   15  H   UNK N   1      29.304  19.277   9.355  0.00  0.00     0.174 HD
ENDROOT
BRANCH   1  16
HETATM   16  C   UNK N   1      33.927  15.010   9.801  0.00  0.00     0.262 C 
HETATM   17  O   UNK N   1      34.554  13.754   9.941  0.00  0.00    -0.353 OA
HETATM   18  C   UNK N   1      35.838  14.033  10.455  0.00  0.00     0.179 C 
HETATM   19  C   UNK N   1      35.858  15.499  10.833  0.00  0.00     0.182 C 
HETATM   20  C   UNK N   1      35.016  16.052   9.740  0.00  0.00     0.198 C 
BRANCH  18  21
HETATM   21  C   UNK N   1      36.117  13.144  11.656  0.00  0.00     0.198 C 
BRANCH  21  22
HETATM   22  O   UNK N   1      37.157  13.670  12.423  0.00  0.00    -0.398 OA
HETATM   23  H   UNK N   1      37.470  13.294  13.260  0.00  0.00     0.209 HD
ENDBRANCH  21  22
ENDBRANCH  18  21
BRANCH  19  24
HETATM   24  O   UNK N   1      37.147  16.029  10.821  0.00  0.00    -0.390 OA
HETATM   25  H   UNK N   1      38.011  15.637  10.614  0.00  0.00     0.210 HD
ENDBRANCH  19  24
BRANCH  20  26
HETATM   26  O   UNK N   1      34.524  17.311  10.085  0.00  0.00    -0.388 OA
HETATM   27  H   UNK N   1      33.980  17.529  10.859  0.00  0.00     0.210 HD
ENDBRANCH  20  26
ENDBRANCH   1  16
BRANCH  12  28
HETATM   28  O   UNK N   1      29.932  16.310   5.526  0.00  0.00    -0.339 OA
HETATM   29  C   UNK N   1      30.329  17.096   4.469  0.00  0.00     0.211 C 
ENDBRANCH  12  28
TORSDOF 6
ENDMDL
MODEL 2
REMARK VINA RESULT:      -6.3      2.606      6.550
REMARK  6 active torsions:
REMARK  status: ('A' for Active; 'I' for Inactive)
REMARK    1  A    between atoms: C_14  and  O_2 
REMARK    2  A    between atoms: C_16  and  O_3 
REMARK    3  A    between atoms: O_4  and  C_18 
REMARK    4  A    between atoms: O_5  and  C_22 
REMARK    5  A    between atoms: C_15  and  N_6 
REMARK       I    between atoms: N_13  and  C_23 
REMARK    6  A    between atoms: C_17  and  C_18 
ROOT
HETATM    1  N   UNK N   1      31.289  16.436   7.387  0.00  0.00    -0.297 N 
HETATM    2  N   UNK N   1      32.128  14.491   6.627  0.00  0.00    -0.346 N 
ATOM      3  HN  UNK N   1      32.245  13.622   6.104  1.00  0.00     0.167 HD
HETATM    4  N   UNK N   1      33.075  16.928   8.945  0.00  0.00    -0.174 N 
ATOM      5  HN  UNK N   1      32.671  17.805   9.272  1.00  0.00     0.186 HD
HETATM    6  N   UNK N   1      34.775  15.266   9.029  0.00  0.00    -0.168 N 
ATOM      7  HN  UNK N   1      35.649  14.927   9.431  1.00  0.00     0.186 HD
HETATM    8  N   UNK N   1      34.918  17.196  10.462  0.00  0.00    -0.234 N 
HETATM    9  C   UNK N   1      32.462  16.192   7.985  0.00  0.00     0.157 A 
HETATM   10  C   UNK N   1      31.091  15.374   6.559  0.00  0.00     0.188 A 
HETATM   11  C   UNK N   1      32.963  15.024   7.540  0.00  0.00     0.130 A 
HETATM   12  C   UNK N   1      34.143  14.524   8.063  0.00  0.00     0.188 A 
HETATM   13  C   UNK N   1      34.251  16.460   9.462  0.00  0.00     0.679 A 
HETATM   14  H   UNK N   1      34.572  18.075  10.738  0.00  0.00     0.174 HD
HETATM   15  H   UNK N   1      35.728  16.830  10.884  0.00  0.00     0.174 HD
ENDROOT
BRANCH   1  16
HETATM   16  C   UNK N   1      30.340  17.516   7.678  0.00  0.00     0.262 C 
HETATM   17  O   UNK N   1      29.486  17.777   6.586  0.00  0.00    -0.353 OA
HETATM   18  C   UNK N   1      28.263  18.188   7.158  0.00  0.00     0.179 C 
HETATM   19  C   UNK N   1      28.508  18.383   8.640  0.00  0.00     0.182 C 
HETATM   20  C   UNK N   1      29.466  17.273   8.884  0.00  0.00     0.198 C 
BRANCH  18  21
HETATM   21  C   UNK N   1      27.791  19.474   6.499  0.00  0.00     0.198 C 
BRANCH  21  22
HETATM   22  O   UNK N   1      26.936  20.174   7.349  0.00  0.00    -0.398 OA
HETATM   23  H   UNK N   1      26.127  20.629   7.066  0.00  0.00     0.209 HD
ENDBRANCH  21  22
ENDBRANCH  18  21
BRANCH  19  24
HETATM   24  O   UNK N   1      27.341  18.241   9.390  0.00  0.00    -0.390 OA
HETATM   25  H   UNK N   1      27.033  18.673  10.203  0.00  0.00     0.210 HD
ENDBRANCH  19  24
BRANCH  20  26
HETATM   26  O   UNK N   1      30.176  17.485  10.066  0.00  0.00    -0.388 OA
HETATM   27  H   UNK N   1      30.698  18.270  10.297  0.00  0.00     0.210 HD
ENDBRANCH  20  26
ENDBRANCH   1  16
BRANCH  12  28
HETATM   28  O   UNK N   1      34.631  13.331   7.658  0.00  0.00    -0.339 OA
HETATM   29  C   UNK N   1      35.814  12.821   8.140  0.00  0.00     0.211 C 
ENDBRANCH  12  28
TORSDOF 6
ENDMDL
MODEL 3
REMARK VINA RESULT:      -6.2      2.841      4.184
REMARK  6 active torsions:
REMARK  status: ('A' for Active; 'I' for Inactive)
REMARK    1  A    between atoms: C_14  and  O_2 
REMARK    2  A    between atoms: C_16  and  O_3 
REMARK    3  A    between atoms: O_4  and  C_18 
REMARK    4  A    between atoms: O_5  and  C_22 
REMARK    5  A    between atoms: C_15  and  N_6 
REMARK       I    between atoms: N_13  and  C_23 
REMARK    6  A    between atoms: C_17  and  C_18 
ROOT
HETATM    1  N   UNK N   1      31.090  17.000   5.930  0.00  0.00    -0.297 N 
HETATM    2  N   UNK N   1      29.883  17.528   4.105  0.00  0.00    -0.346 N 
ATOM      3  HN  UNK N   1      29.593  17.648   3.134  1.00  0.00     0.167 HD
HETATM    4  N   UNK N   1      29.462  17.726   7.568  0.00  0.00    -0.174 N 
ATOM      5  HN  UNK N   1      30.031  17.478   8.377  1.00  0.00     0.186 HD
HETATM    6  N   UNK N   1      27.481  18.647   6.627  0.00  0.00    -0.168 N 
ATOM      7  HN  UNK N   1      26.568  19.080   6.760  1.00  0.00     0.186 HD
HETATM    8  N   UNK N   1      27.735  18.552   9.019  0.00  0.00    -0.234 N 
HETATM    9  C   UNK N   1      29.905  17.497   6.307  0.00  0.00     0.157 A 
HETATM   10  C   UNK N   1      31.066  17.035   4.570  0.00  0.00     0.188 A 
HETATM   11  C   UNK N   1      29.184  17.823   5.218  0.00  0.00     0.130 A 
HETATM   12  C   UNK N   1      27.941  18.420   5.354  0.00  0.00     0.188 A 
HETATM   13  C   UNK N   1      28.230  18.298   7.724  0.00  0.00     0.679 A 
HETATM   14  H   UNK N   1      28.246  18.258   9.807  0.00  0.00     0.174 HD
HETATM   15  H   UNK N   1      26.880  19.024   9.135  0.00  0.00     0.174 HD
ENDROOT
BRANCH   1  16
HETATM   16  C   UNK N   1      32.232  16.656   6.784  0.00  0.00     0.262 C 
HETATM   17  O   UNK N   1      32.795  17.794   7.398  0.00  0.00    -0.353 OA
HETATM   18  C   UNK N   1      33.277  17.345   8.646  0.00  0.00     0.179 C 
HETATM   19  C   UNK N   1      33.182  15.834   8.643  0.00  0.00     0.182 C 
HETATM   20  C   UNK N   1      31.919  15.664   7.876  0.00  0.00     0.198 C 
BRANCH  18  21
HETATM   21  C   UNK N   1      34.710  17.813   8.843  0.00  0.00     0.198 C 
BRANCH  21  22
HETATM   22  O   UNK N   1      34.893  19.077   8.284  0.00  0.00    -0.398 OA
HETATM   23  H   UNK N   1      35.130  19.873   8.785  0.00  0.00     0.209 HD
ENDBRANCH  21  22
ENDBRANCH  18  21
BRANCH  19  24
HETATM   24  O   UNK N   1      33.088  15.309   9.931  0.00  0.00    -0.390 OA
HETATM   25  H   UNK N   1      32.648  14.518  10.282  0.00  0.00     0.210 HD
ENDBRANCH  19  24
BRANCH  20  26
HETATM   26  O   UNK N   1      31.825  14.369   7.365  0.00  0.00    -0.388 OA
HETATM   27  H   UNK N   1      31.809  14.115   6.428  0.00  0.00     0.210 HD
ENDBRANCH  20  26
ENDBRANCH   1  16
BRANCH  12  28
HETATM   28  O   UNK N   1      27.228  18.792   4.269  0.00  0.00    -0.339 OA
HETATM   29  C   UNK N   1      26.983  20.113   3.971  0.00  0.00     0.211 C 
ENDBRANCH  12  28
TORSDOF 6
ENDMDL
MODEL 4
REMARK VINA RESULT:      -6.1     14.025     16.249
REMARK  6 active torsions:
REMARK  status: ('A' for Active; 'I' for Inactive)
REMARK    1  A    between atoms: C_14  and  O_2 
REMARK    2  A    between atoms: C_16  and  O_3 
REMARK    3  A    between atoms: O_4  and  C_18 
REMARK    4  A    between atoms: O_5  and  C_22 
REMARK    5  A    between atoms: C_15  and  N_6 
REMARK       I    between atoms: N_13  and  C_23 
REMARK    6  A    between atoms: C_17  and  C_18 
ROOT
HETATM    1  N   UNK N   1      29.361  24.194  -4.141  0.00  0.00    -0.297 N 
HETATM    2  N   UNK N   1      28.970  26.410  -4.103  0.00  0.00    -0.346 N 
ATOM      3  HN  UNK N   1      29.079  27.413  -3.944  1.00  0.00     0.167 HD
HETATM    4  N   UNK N   1      27.311  23.564  -5.267  0.00  0.00    -0.174 N 
ATOM      5  HN  UNK N   1      27.514  22.564  -5.269  1.00  0.00     0.186 HD
HETATM    6  N   UNK N   1      25.873  25.393  -5.760  0.00  0.00    -0.168 N 
ATOM      7  HN  UNK N   1      24.994  25.736  -6.146  1.00  0.00     0.186 HD
HETATM    8  N   UNK N   1      25.202  23.154  -6.338  0.00  0.00    -0.234 N 
HETATM    9  C   UNK N   1      28.194  24.453  -4.745  0.00  0.00     0.157 A 
HETATM   10  C   UNK N   1      29.823  25.410  -3.742  0.00  0.00     0.188 A 
HETATM   11  C   UNK N   1      27.952  25.777  -4.715  0.00  0.00     0.130 A 
HETATM   12  C   UNK N   1      26.767  26.284  -5.223  0.00  0.00     0.188 A 
HETATM   13  C   UNK N   1      26.144  24.046  -5.788  0.00  0.00     0.679 A 
HETATM   14  H   UNK N   1      25.414  22.195  -6.406  0.00  0.00     0.174 HD
HETATM   15  H   UNK N   1      24.332  23.489  -6.654  0.00  0.00     0.174 HD
ENDROOT
BRANCH   1  16
HETATM   16  C   UNK N   1      29.936  22.883  -3.824  0.00  0.00     0.262 C 
HETATM   17  O   UNK N   1      30.576  22.303  -4.939  0.00  0.00    -0.353 OA
HETATM   18  C   UNK N   1      31.645  21.551  -4.407  0.00  0.00     0.179 C 
HETATM   19  C   UNK N   1      31.465  21.523  -2.904  0.00  0.00     0.182 C 
HETATM   20  C   UNK N   1      30.931  22.894  -2.690  0.00  0.00     0.198 C 
BRANCH  18  21
HETATM   21  C   UNK N   1      31.631  20.149  -4.995  0.00  0.00     0.198 C 
BRANCH  21  22
HETATM   22  O   UNK N   1      32.107  19.224  -4.065  0.00  0.00    -0.398 OA
HETATM   23  H   UNK N   1      32.824  18.593  -4.232  0.00  0.00     0.209 HD
ENDBRANCH  21  22
ENDBRANCH  18  21
BRANCH  19  24
HETATM   24  O   UNK N   1      32.670  21.320  -2.233  0.00  0.00    -0.390 OA
HETATM   25  H   UNK N   1      33.029  21.693  -1.412  0.00  0.00     0.210 HD
ENDBRANCH  19  24
BRANCH  20  26
HETATM   26  O   UNK N   1      30.283  22.984  -1.457  0.00  0.00    -0.388 OA
HETATM   27  H   UNK N   1      29.359  23.239  -1.304  0.00  0.00     0.210 HD
ENDBRANCH  20  26
ENDBRANCH   1  16
BRANCH  12  28
HETATM   28  O   UNK N   1      26.494  27.605  -5.158  0.00  0.00    -0.339 OA
HETATM   29  C   UNK N   1      25.681  28.139  -4.185  0.00  0.00     0.211 C 
ENDBRANCH  12  28
TORSDOF 6
ENDMDL
MODEL 5
REMARK VINA RESULT:      -6.0      2.597      3.578
REMARK  6 active torsions:
REMARK  status: ('A' for Active; 'I' for Inactive)
REMARK    1  A    between atoms: C_14  and  O_2 
REMARK    2  A    between atoms: C_16  and  O_3 
REMARK    3  A    between atoms: O_4  and  C_18 
REMARK    4  A    between atoms: O_5  and  C_22 
REMARK    5  A    between atoms: C_15  and  N_6 
REMARK       I    between atoms: N_13  and  C_23 
REMARK    6  A    between atoms: C_17  and  C_18 
ROOT
HETATM    1  N   UNK N   1      31.228  16.992   6.234  0.00  0.00    -0.297 N 
HETATM    2  N   UNK N   1      30.192  17.570   4.321  0.00  0.00    -0.346 N 
ATOM      3  HN  UNK N   1      29.996  17.725   3.332  1.00  0.00     0.167 HD
HETATM    4  N   UNK N   1      29.423  17.599   7.730  0.00  0.00    -0.174 N 
ATOM      5  HN  UNK N   1      29.917  17.330   8.580  1.00  0.00     0.186 HD
HETATM    6  N   UNK N   1      27.518  18.509   6.634  0.00  0.00    -0.168 N 
ATOM      7  HN  UNK N   1      26.584  18.912   6.693  1.00  0.00     0.186 HD
HETATM    8  N   UNK N   1      27.537  18.314   9.034  0.00  0.00    -0.234 N 
HETATM    9  C   UNK N   1      29.996  17.439   6.511  0.00  0.00     0.157 A 
HETATM   10  C   UNK N   1      31.337  17.087   4.881  0.00  0.00     0.188 A 
HETATM   11  C   UNK N   1      29.377  17.795   5.370  0.00  0.00     0.130 A 
HETATM   12  C   UNK N   1      28.109  18.352   5.405  0.00  0.00     0.188 A 
HETATM   13  C   UNK N   1      28.165  18.132   7.785  0.00  0.00     0.679 A 
HETATM   14  H   UNK N   1      27.976  17.998   9.856  0.00  0.00     0.174 HD
HETATM   15  H   UNK N   1      26.660  18.757   9.083  0.00  0.00     0.174 HD
ENDROOT
BRANCH   1  16
HETATM   16  C   UNK N   1      32.289  16.639   7.182  0.00  0.00     0.262 C 
HETATM   17  O   UNK N   1      33.358  15.967   6.553  0.00  0.00    -0.353 OA
HETATM   18  C   UNK N   1      34.512  16.348   7.270  0.00  0.00     0.179 C 
HETATM   19  C   UNK N   1      34.046  17.095   8.501  0.00  0.00     0.182 C 
HETATM   20  C   UNK N   1      32.873  17.810   7.932  0.00  0.00     0.198 C 
BRANCH  18  21
HETATM   21  C   UNK N   1      35.320  15.114   7.640  0.00  0.00     0.198 C 
BRANCH  21  22
HETATM   22  O   UNK N   1      35.510  15.051   9.020  0.00  0.00    -0.398 OA
HETATM   23  H   UNK N   1      36.168  15.568   9.511  0.00  0.00     0.209 HD
ENDBRANCH  21  22
ENDBRANCH  18  21
BRANCH  19  24
HETATM   24  O   UNK N   1      35.014  17.976   8.982  0.00  0.00    -0.390 OA
HETATM   25  H   UNK N   1      35.973  18.029   8.842  0.00  0.00     0.210 HD
ENDBRANCH  19  24
BRANCH  20  26
HETATM   26  O   UNK N   1      32.014  18.234   8.946  0.00  0.00    -0.388 OA
HETATM   27  H   UNK N   1      31.103  18.550   8.841  0.00  0.00     0.210 HD
ENDBRANCH  20  26
ENDBRANCH   1  16
BRANCH  12  28
HETATM   28  O   UNK N   1      27.496  18.755   4.271  0.00  0.00    -0.339 OA
HETATM   29  C   UNK N   1      27.235  20.079   4.009  0.00  0.00     0.211 C 
ENDBRANCH  12  28
TORSDOF 6
ENDMDL
MODEL 6
REMARK VINA RESULT:      -6.0      1.949      2.331
REMARK  6 active torsions:
REMARK  status: ('A' for Active; 'I' for Inactive)
REMARK    1  A    between atoms: C_14  and  O_2 
REMARK    2  A    between atoms: C_16  and  O_3 
REMARK    3  A    between atoms: O_4  and  C_18 
REMARK    4  A    between atoms: O_5  and  C_22 
REMARK    5  A    between atoms: C_15  and  N_6 
REMARK       I    between atoms: N_13  and  C_23 
REMARK    6  A    between atoms: C_17  and  C_18 
ROOT
HETATM    1  N   UNK N   1      34.829  15.100   8.799  0.00  0.00    -0.297 N 
HETATM    2  N   UNK N   1      35.140  15.514   6.608  0.00  0.00    -0.346 N 
ATOM      3  HN  UNK N   1      35.518  15.494   5.661  1.00  0.00     0.167 HD
HETATM    4  N   UNK N   1      32.899  16.532   9.088  0.00  0.00    -0.174 N 
ATOM      5  HN  UNK N   1      32.783  16.327  10.080  1.00  0.00     0.186 HD
HETATM    6  N   UNK N   1      32.248  17.695   7.118  0.00  0.00    -0.168 N 
ATOM      7  HN  UNK N   1      31.625  18.358   6.658  1.00  0.00     0.186 HD
HETATM    8  N   UNK N   1      31.035  18.045   9.168  0.00  0.00    -0.234 N 
HETATM    9  C   UNK N   1      33.882  15.941   8.365  0.00  0.00     0.157 A 
HETATM   10  C   UNK N   1      35.603  14.852   7.707  0.00  0.00     0.188 A 
HETATM   11  C   UNK N   1      34.070  16.199   7.057  0.00  0.00     0.130 A 
HETATM   12  C   UNK N   1      33.251  17.099   6.396  0.00  0.00     0.188 A 
HETATM   13  C   UNK N   1      32.069  17.411   8.450  0.00  0.00     0.679 A 
HETATM   14  H   UNK N   1      30.872  17.806  10.109  0.00  0.00     0.174 HD
HETATM   15  H   UNK N   1      30.478  18.727   8.729  0.00  0.00     0.174 HD
ENDROOT
BRANCH   1  16
HETATM   16  C   UNK N   1      35.086  14.671  10.177  0.00  0.00     0.262 C 
HETATM   17  O   UNK N   1      34.585  13.377  10.431  0.00  0.00    -0.353 OA
HETATM   18  C   UNK N   1      35.469  12.812  11.374  0.00  0.00     0.179 C 
HETATM   19  C   UNK N   1      36.386  13.921  11.845  0.00  0.00     0.182 C 
HETATM   20  C   UNK N   1      36.542  14.675  10.574  0.00  0.00     0.198 C 
BRANCH  18  21
HETATM   21  C   UNK N   1      34.678  12.215  12.528  0.00  0.00     0.198 C 
BRANCH  21  22
HETATM   22  O   UNK N   1      34.723  13.058  13.638  0.00  0.00    -0.398 OA
HETATM   23  H   UNK N   1      33.946  13.461  14.057  0.00  0.00     0.209 HD
ENDBRANCH  21  22
ENDBRANCH  18  21
BRANCH  19  24
HETATM   24  O   UNK N   1      37.603  13.433  12.318  0.00  0.00    -0.390 OA
HETATM   25  H   UNK N   1      38.513  13.759  12.231  0.00  0.00     0.210 HD
ENDBRANCH  19  24
BRANCH  20  26
HETATM   26  O   UNK N   1      36.989  15.973  10.822  0.00  0.00    -0.388 OA
HETATM   27  H   UNK N   1      36.587  16.621  11.422  0.00  0.00     0.210 HD
ENDBRANCH  20  26
ENDBRANCH   1  16
BRANCH  12  28
HETATM   28  O   UNK N   1      33.458  17.399   5.095  0.00  0.00    -0.339 OA
HETATM   29  C   UNK N   1      32.892  16.671   4.075  0.00  0.00     0.211 C 
ENDBRANCH  12  28
TORSDOF 6
ENDMDL
MODEL 7
REMARK VINA RESULT:      -6.0      3.629      6.692
REMARK  6 active torsions:
REMARK  status: ('A' for Active; 'I' for Inactive)
REMARK    1  A    between atoms: C_14  and  O_2 
REMARK    2  A    between atoms: C_16  and  O_3 
REMARK    3  A    between atoms: O_4  and  C_18 
REMARK    4  A    between atoms: O_5  and  C_22 
REMARK    5  A    between atoms: C_15  and  N_6 
REMARK       I    between atoms: N_13  and  C_23 
REMARK    6  A    between atoms: C_17  and  C_18 
ROOT
HETATM    1  N   UNK N   1      35.068  13.864  10.418  0.00  0.00    -0.297 N 
HETATM    2  N   UNK N   1      34.419  11.861  11.212  0.00  0.00    -0.346 N 
ATOM      3  HN  UNK N   1      34.015  10.926  11.275  1.00  0.00     0.167 HD
HETATM    4  N   UNK N   1      36.136  14.642  12.447  0.00  0.00    -0.174 N 
ATOM      5  HN  UNK N   1      36.416  15.544  12.061  1.00  0.00     0.186 HD
HETATM    6  N   UNK N   1      36.009  13.108  14.261  0.00  0.00    -0.168 N 
ATOM      7  HN  UNK N   1      36.215  12.884  15.234  1.00  0.00     0.186 HD
HETATM    8  N   UNK N   1      37.090  15.238  14.569  0.00  0.00    -0.234 N 
HETATM    9  C   UNK N   1      35.480  13.732  11.685  0.00  0.00     0.157 A 
HETATM   10  C   UNK N   1      34.408  12.707  10.143  0.00  0.00     0.188 A 
HETATM   11  C   UNK N   1      35.085  12.538  12.167  0.00  0.00     0.130 A 
HETATM   12  C   UNK N   1      35.338  12.196  13.485  0.00  0.00     0.188 A 
HETATM   13  C   UNK N   1      36.410  14.317  13.746  0.00  0.00     0.679 A 
HETATM   14  H   UNK N   1      37.424  16.083  14.190  0.00  0.00     0.174 HD
HETATM   15  H   UNK N   1      37.231  15.035  15.521  0.00  0.00     0.174 HD
ENDROOT
BRANCH   1  16
HETATM   16  C   UNK N   1      35.155  15.055   9.566  0.00  0.00     0.262 C 
HETATM   17  O   UNK N   1      34.713  14.797   8.251  0.00  0.00    -0.353 OA
HETATM   18  C   UNK N   1      34.139  16.006   7.806  0.00  0.00     0.179 C 
HETATM   19  C   UNK N   1      34.473  17.064   8.837  0.00  0.00     0.182 C 
HETATM   20  C   UNK N   1      34.382  16.246  10.075  0.00  0.00     0.198 C 
BRANCH  18  21
HETATM   21  C   UNK N   1      34.695  16.368   6.438  0.00  0.00     0.198 C 
BRANCH  21  22
HETATM   22  O   UNK N   1      34.325  17.666   6.087  0.00  0.00    -0.398 OA
HETATM   23  H   UNK N   1      33.448  17.920   5.759  0.00  0.00     0.209 HD
ENDBRANCH  21  22
ENDBRANCH  18  21
BRANCH  19  24
HETATM   24  O   UNK N   1      33.555  18.113   8.832  0.00  0.00    -0.390 OA
HETATM   25  H   UNK N   1      32.726  18.255   9.317  0.00  0.00     0.210 HD
ENDBRANCH  19  24
BRANCH  20  26
HETATM   26  O   UNK N   1      35.055  16.867  11.127  0.00  0.00    -0.388 OA
HETATM   27  H   UNK N   1      36.001  17.077  11.167  0.00  0.00     0.210 HD
ENDBRANCH  20  26
ENDBRANCH   1  16
BRANCH  12  28
HETATM   28  O   UNK N   1      34.907  11.021  13.992  0.00  0.00    -0.339 OA
HETATM   29  C   UNK N   1      33.699  10.900  14.638  0.00  0.00     0.211 C 
ENDBRANCH  12  28
TORSDOF 6
ENDMDL
MODEL 8
REMARK VINA RESULT:      -6.0      2.665      4.369
REMARK  6 active torsions:
REMARK  status: ('A' for Active; 'I' for Inactive)
REMARK    1  A    between atoms: C_14  and  O_2 
REMARK    2  A    between atoms: C_16  and  O_3 
REMARK    3  A    between atoms: O_4  and  C_18 
REMARK    4  A    between atoms: O_5  and  C_22 
REMARK    5  A    between atoms: C_15  and  N_6 
REMARK       I    between atoms: N_13  and  C_23 
REMARK    6  A    between atoms: C_17  and  C_18 
ROOT
HETATM    1  N   UNK N   1      35.369  15.123  11.383  0.00  0.00    -0.297 N 
HETATM    2  N   UNK N   1      34.793  17.013  10.303  0.00  0.00    -0.346 N 
ATOM      3  HN  UNK N   1      34.728  17.994  10.031  1.00  0.00     0.167 HD
HETATM    4  N   UNK N   1      34.076  13.606  10.009  0.00  0.00    -0.174 N 
ATOM      5  HN  UNK N   1      34.352  12.766  10.518  1.00  0.00     0.186 HD
HETATM    6  N   UNK N   1      32.826  14.676   8.291  0.00  0.00    -0.168 N 
ATOM      7  HN  UNK N   1      32.172  14.607   7.512  1.00  0.00     0.186 HD
HETATM    8  N   UNK N   1      32.685  12.288   8.562  0.00  0.00    -0.234 N 
HETATM    9  C   UNK N   1      34.558  14.824  10.360  0.00  0.00     0.157 A 
HETATM   10  C   UNK N   1      35.497  16.478  11.341  0.00  0.00     0.188 A 
HETATM   11  C   UNK N   1      34.204  15.953   9.717  0.00  0.00     0.130 A 
HETATM   12  C   UNK N   1      33.313  15.906   8.658  0.00  0.00     0.188 A 
HETATM   13  C   UNK N   1      33.208  13.536   8.955  0.00  0.00     0.679 A 
HETATM   14  H   UNK N   1      32.994  11.464   9.002  0.00  0.00     0.174 HD
HETATM   15  H   UNK N   1      32.009  12.241   7.848  0.00  0.00     0.174 HD
ENDROOT
BRANCH   1  16
HETATM   16  C   UNK N   1      35.871  14.221  12.424  0.00  0.00     0.262 C 
HETATM   17  O   UNK N   1      34.828  13.688  13.209  0.00  0.00    -0.353 OA
HETATM   18  C   UNK N   1      35.263  12.398  13.582  0.00  0.00     0.179 C 
HETATM   19  C   UNK N   1      36.716  12.283  13.174  0.00  0.00     0.182 C 
HETATM   20  C   UNK N   1      36.684  13.060  11.907  0.00  0.00     0.198 C 
BRANCH  18  21
HETATM   21  C   UNK N   1      35.088  12.208  15.080  0.00  0.00     0.198 C 
BRANCH  21  22
HETATM   22  O   UNK N   1      34.123  13.085  15.575  0.00  0.00    -0.398 OA
HETATM   23  H   UNK N   1      33.195  13.102  15.291  0.00  0.00     0.209 HD
ENDBRANCH  21  22
ENDBRANCH  18  21
BRANCH  19  24
HETATM   24  O   UNK N   1      37.102  10.959  12.967  0.00  0.00    -0.390 OA
HETATM   25  H   UNK N   1      37.963  10.514  13.031  0.00  0.00     0.210 HD
ENDBRANCH  19  24
BRANCH  20  26
HETATM   26  O   UNK N   1      37.968  13.469  11.547  0.00  0.00    -0.388 OA
HETATM   27  H   UNK N   1      38.424  14.274  11.838  0.00  0.00     0.210 HD
ENDBRANCH  20  26
ENDBRANCH   1  16
BRANCH  12  28
HETATM   28  O   UNK N   1      32.915  17.036   8.035  0.00  0.00    -0.339 OA
HETATM   29  C   UNK N   1      33.526  17.497   6.892  0.00  0.00     0.211 C 
ENDBRANCH  12  28
TORSDOF 6
ENDMDL
MODEL 9
REMARK VINA RESULT:      -5.9      1.315      2.120
REMARK  6 active torsions:
REMARK  status: ('A' for Active; 'I' for Inactive)
REMARK    1  A    between atoms: C_14  and  O_2 
REMARK    2  A    between atoms: C_16  and  O_3 
REMARK    3  A    between atoms: O_4  and  C_18 
REMARK    4  A    between atoms: O_5  and  C_22 
REMARK    5  A    between atoms: C_15  and  N_6 
REMARK       I    between atoms: N_13  and  C_23 
REMARK    6  A    between atoms: C_17  and  C_18 
ROOT
HETATM    1  N   UNK N   1      32.566  15.484   7.731  0.00  0.00    -0.297 N 
HETATM    2  N   UNK N   1      31.427  15.714   5.804  0.00  0.00    -0.346 N 
ATOM      3  HN  UNK N   1      31.125  15.603   4.835  1.00  0.00     0.167 HD
HETATM    4  N   UNK N   1      31.234  17.029   9.035  0.00  0.00    -0.174 N 
ATOM      5  HN  UNK N   1      31.770  16.907   9.894  1.00  0.00     0.186 HD
HETATM    6  N   UNK N   1      29.479  18.069   7.813  0.00  0.00    -0.168 N 
ATOM      7  HN  UNK N   1      28.699  18.726   7.787  1.00  0.00     0.186 HD
HETATM    8  N   UNK N   1      29.822  18.635  10.128  0.00  0.00    -0.234 N 
HETATM    9  C   UNK N   1      31.549  16.336   7.912  0.00  0.00     0.157 A 
HETATM   10  C   UNK N   1      32.483  15.116   6.423  0.00  0.00     0.188 A 
HETATM   11  C   UNK N   1      30.871  16.484   6.759  0.00  0.00     0.130 A 
HETATM   12  C   UNK N   1      29.810  17.370   6.679  0.00  0.00     0.188 A 
HETATM   13  C   UNK N   1      30.179  17.897   8.981  0.00  0.00     0.679 A 
HETATM   14  H   UNK N   1      30.288  18.477  10.980  0.00  0.00     0.174 HD
HETATM   15  H   UNK N   1      29.107  19.309  10.075  0.00  0.00     0.174 HD
ENDROOT
BRANCH   1  16
HETATM   16  C   UNK N   1      33.636  15.150   8.676  0.00  0.00     0.262 C 
HETATM   17  O   UNK N   1      34.182  16.299   9.285  0.00  0.00    -0.353 OA
HETATM   18  C   UNK N   1      34.565  15.890  10.580  0.00  0.00     0.179 C 
HETATM   19  C   UNK N   1      34.434  14.383  10.628  0.00  0.00     0.182 C 
HETATM   20  C   UNK N   1      33.225  14.208   9.781  0.00  0.00     0.198 C 
BRANCH  18  21
HETATM   21  C   UNK N   1      35.991  16.335  10.860  0.00  0.00     0.198 C 
BRANCH  21  22
HETATM   22  O   UNK N   1      36.801  15.234  11.137  0.00  0.00    -0.398 OA
HETATM   23  H   UNK N   1      37.680  15.085  10.755  0.00  0.00     0.209 HD
ENDBRANCH  21  22
ENDBRANCH  18  21
BRANCH  19  24
HETATM   24  O   UNK N   1      34.238  13.911  11.925  0.00  0.00    -0.390 OA
HETATM   25  H   UNK N   1      34.852  13.561  12.590  0.00  0.00     0.210 HD
ENDBRANCH  19  24
BRANCH  20  26
HETATM   26  O   UNK N   1      33.136  12.897   9.313  0.00  0.00    -0.388 OA
HETATM   27  H   UNK N   1      32.835  12.613   8.435  0.00  0.00     0.210 HD
ENDBRANCH  20  26
ENDBRANCH   1  16
BRANCH  12  28
HETATM   28  O   UNK N   1      29.151  17.560   5.515  0.00  0.00    -0.339 OA
HETATM   29  C   UNK N   1      28.176  18.520   5.373  0.00  0.00     0.211 C 
ENDBRANCH  12  28
TORSDOF 6
ENDMDL
