MODEL 1
REMARK VINA RESULT:      -6.2      0.000      0.000
REMARK  8 active torsions:
REMARK  status: ('A' for Active; 'I' for Inactive)
REMARK    1  A    between atoms: O_1  and  C_10 
REMARK    2  A    between atoms: O_1  and  C_15 
REMARK    3  A    between atoms: C_13  and  O_2 
REMARK    4  A    between atoms: N_3  and  C_12 
REMARK    5  A    between atoms: N_3  and  C_14 
REMARK    6  A    between atoms: C_4  and  C_9 
REMARK    7  A    between atoms: C_13  and  C_14 
REMARK    8  A    between atoms: C_13  and  C_15 
ROOT
HETATM    1  O   UNK N   1      30.275  17.370   8.232  0.00  0.00    -0.348 OA
ENDROOT
BRANCH   1   2
HETATM    2  C   UNK N   1      31.528  17.378   7.693  0.00  0.00     0.075 A 
HETATM    3  C   UNK N   1      31.804  17.151   6.307  0.00  0.00    -0.021 A 
HETATM    4  C   UNK N   1      33.132  17.248   5.854  0.00  0.00     0.010 A 
HETATM    5  C   UNK N   1      34.172  17.543   6.735  0.00  0.00     0.001 A 
HETATM    6  C   UNK N   1      33.905  17.733   8.088  0.00  0.00     0.003 A 
HETATM    7  C   UNK N   1      32.594  17.651   8.560  0.00  0.00     0.037 A 
BRANCH   3   8
HETATM    8  C   UNK N   1      30.716  16.796   5.318  0.00  0.00     0.021 C 
HETATM    9  C   UNK N   1      31.039  17.004   3.854  0.00  0.00     0.009 C 
HETATM   10  C   UNK N   1      30.007  16.159   3.130  0.00  0.00     0.001 C 
HETATM   11  C   UNK N   1      29.548  15.098   4.121  0.00  0.00     0.001 C 
HETATM   12  C   UNK N   1      30.351  15.331   5.385  0.00  0.00     0.009 C 
ENDBRANCH   3   8
ENDBRANCH   1   2
BRANCH   1  13
HETATM   13  C   UNK N   1      29.791  18.328   9.096  0.00  0.00     0.209 C 
BRANCH  13  14
HETATM   14  C   UNK N   1      28.404  18.801   8.694  0.00  0.00     0.159 C 
BRANCH  14  15
HETATM   15  O   UNK N   1      27.464  17.990   9.327  0.00  0.00    -0.392 OA
HETATM   16  H   UNK N   1      26.514  18.026   9.131  0.00  0.00     0.210 HD
ENDBRANCH  14  15
BRANCH  14  17
HETATM   17  C   UNK N   1      28.220  18.659   7.197  0.00  0.00     0.148 C 
BRANCH  17  18
HETATM   18  N   UNK N   1      26.944  19.224   6.768  0.00  0.00    -0.411 N 
HETATM   19  H   UNK N   1      26.044  19.013   7.200  0.00  0.00     0.154 HD
BRANCH  18  20
HETATM   20  C   UNK N   1      27.127  20.136   5.632  0.00  0.00     0.014 C 
HETATM   21  C   UNK N   1      27.458  21.535   6.123  0.00  0.00     0.037 C 
HETATM   22  C   UNK N   1      28.216  19.652   4.681  0.00  0.00     0.037 C 
HETATM   23  C   UNK N   1      25.830  20.201   4.856  0.00  0.00     0.037 C 
ENDBRANCH  18  20
ENDBRANCH  17  18
ENDBRANCH  14  17
ENDBRANCH  13  14
ENDBRANCH   1  13
TORSDOF 8
ENDMDL
MODEL 2
REMARK VINA RESULT:      -6.2      7.688     10.521
REMARK  8 active torsions:
REMARK  status: ('A' for Active; 'I' for Inactive)
REMARK    1  A    between atoms: O_1  and  C_10 
REMARK    2  A    between atoms: O_1  and  C_15 
REMARK    3  A    between atoms: C_13  and  O_2 
REMARK    4  A    between atoms: N_3  and  C_12 
REMARK    5  A    between atoms: N_3  and  C_14 
REMARK    6  A    between atoms: C_4  and  C_9 
REMARK    7  A    between atoms: C_13  and  C_14 
REMARK    8  A    between atoms: C_13  and  C_15 
ROOT
HETATM    1  O   UNK N   1      35.312  13.836  13.032  0.00  0.00    -0.348 OA
ENDROOT
BRANCH   1   2
HETATM    2  C   UNK N   1      36.011  12.766  13.507  0.00  0.00     0.075 A 
HETATM    3  C   UNK N   1      36.146  12.452  14.897  0.00  0.00    -0.021 A 
HETATM    4  C   UNK N   1      36.838  11.284  15.265  0.00  0.00     0.010 A 
HETATM    5  C   UNK N   1      37.399  10.448  14.301  0.00  0.00     0.001 A 
HETATM    6  C   UNK N   1      37.292  10.771  12.952  0.00  0.00     0.003 A 
HETATM    7  C   UNK N   1      36.604  11.920  12.561  0.00  0.00     0.037 A 
BRANCH   3   8
HETATM    8  C   UNK N   1      35.584  13.344  15.981  0.00  0.00     0.021 C 
HETATM    9  C   UNK N   1      35.223  12.673  17.288  0.00  0.00     0.009 C 
HETATM   10  C   UNK N   1      35.148  13.820  18.279  0.00  0.00     0.001 C 
HETATM   11  C   UNK N   1      35.996  14.944  17.699  0.00  0.00     0.001 C 
HETATM   12  C   UNK N   1      36.570  14.408  16.403  0.00  0.00     0.009 C 
ENDBRANCH   3   8
ENDBRANCH   1   2
BRANCH   1  13
HETATM   13  C   UNK N   1      35.876  15.040  12.669  0.00  0.00     0.209 C 
BRANCH  13  14
HETATM   14  C   UNK N   1      35.953  15.195  11.160  0.00  0.00     0.159 C 
BRANCH  14  15
HETATM   15  O   UNK N   1      36.852  16.220  10.870  0.00  0.00    -0.392 OA
HETATM   16  H   UNK N   1      37.807  16.076  10.774  0.00  0.00     0.210 HD
ENDBRANCH  14  15
BRANCH  14  17
HETATM   17  C   UNK N   1      34.597  15.587  10.609  0.00  0.00     0.148 C 
BRANCH  17  18
HETATM   18  N   UNK N   1      34.600  16.970  10.139  0.00  0.00    -0.411 N 
HETATM   19  H   UNK N   1      34.904  17.769  10.697  0.00  0.00     0.154 HD
BRANCH  18  20
HETATM   20  C   UNK N   1      34.109  17.059   8.759  0.00  0.00     0.014 C 
HETATM   21  C   UNK N   1      34.684  15.932   7.917  0.00  0.00     0.037 C 
HETATM   22  C   UNK N   1      32.586  17.027   8.692  0.00  0.00     0.037 C 
HETATM   23  C   UNK N   1      34.571  18.373   8.170  0.00  0.00     0.037 C 
ENDBRANCH  18  20
ENDBRANCH  17  18
ENDBRANCH  14  17
ENDBRANCH  13  14
ENDBRANCH   1  13
TORSDOF 8
ENDMDL
MODEL 3
REMARK VINA RESULT:      -6.1      1.973      3.590
REMARK  8 active torsions:
REMARK  status: ('A' for Active; 'I' for Inactive)
REMARK    1  A    between atoms: O_1  and  C_10 
REMARK    2  A    between atoms: O_1  and  C_15 
REMARK    3  A    between atoms: C_13  and  O_2 
REMARK    4  A    between atoms: N_3  and  C_12 
REMARK    5  A    between atoms: N_3  and  C_14 
REMARK    6  A    between atoms: C_4  and  C_9 
REMARK    7  A    between atoms: C_13  and  C_14 
REMARK    8  A    between atoms: C_13  and  C_15 
ROOT
HETATM    1  O   UNK N   1      28.401  16.359   6.237  0.00  0.00    -0.348 OA
ENDROOT
BRANCH   1   2
HETATM    2  C   UNK N   1      28.942  17.041   7.287  0.00  0.00     0.075 A 
HETATM    3  C   UNK N   1      30.323  17.406   7.377  0.00  0.00    -0.021 A 
HETATM    4  C   UNK N   1      30.754  18.166   8.479  0.00  0.00     0.010 A 
HETATM    5  C   UNK N   1      29.863  18.549   9.480  0.00  0.00     0.001 A 
HETATM    6  C   UNK N   1      28.527  18.168   9.405  0.00  0.00     0.003 A 
HETATM    7  C   UNK N   1      28.073  17.420   8.318  0.00  0.00     0.037 A 
BRANCH   3   8
HETATM    8  C   UNK N   1      31.335  16.986   6.334  0.00  0.00     0.021 C 
HETATM    9  C   UNK N   1      31.150  17.557   4.945  0.00  0.00     0.009 C 
HETATM   10  C   UNK N   1      32.504  17.359   4.286  0.00  0.00     0.001 C 
HETATM   11  C   UNK N   1      33.519  17.250   5.416  0.00  0.00     0.001 C 
HETATM   12  C   UNK N   1      32.735  17.423   6.701  0.00  0.00     0.009 C 
ENDBRANCH   3   8
ENDBRANCH   1   2
BRANCH   1  13
HETATM   13  C   UNK N   1      27.055  16.107   6.079  0.00  0.00     0.209 C 
BRANCH  13  14
HETATM   14  C   UNK N   1      26.624  16.232   4.627  0.00  0.00     0.159 C 
BRANCH  14  15
HETATM   15  O   UNK N   1      27.765  16.216   3.829  0.00  0.00    -0.392 OA
HETATM   16  H   UNK N   1      28.242  17.021   3.568  0.00  0.00     0.210 HD
ENDBRANCH  14  15
BRANCH  14  17
HETATM   17  C   UNK N   1      25.911  17.552   4.409  0.00  0.00     0.148 C 
BRANCH  17  18
HETATM   18  N   UNK N   1      26.119  18.454   5.538  0.00  0.00    -0.411 N 
HETATM   19  H   UNK N   1      25.935  18.212   6.513  0.00  0.00     0.154 HD
BRANCH  18  20
HETATM   20  C   UNK N   1      26.627  19.755   5.087  0.00  0.00     0.014 C 
HETATM   21  C   UNK N   1      28.107  19.660   4.756  0.00  0.00     0.037 C 
HETATM   22  C   UNK N   1      25.860  20.279   3.878  0.00  0.00     0.037 C 
HETATM   23  C   UNK N   1      26.457  20.752   6.212  0.00  0.00     0.037 C 
ENDBRANCH  18  20
ENDBRANCH  17  18
ENDBRANCH  14  17
ENDBRANCH  13  14
ENDBRANCH   1  13
TORSDOF 8
ENDMDL
MODEL 4
REMARK VINA RESULT:      -6.1      1.371      1.685
REMARK  8 active torsions:
REMARK  status: ('A' for Active; 'I' for Inactive)
REMARK    1  A    between atoms: O_1  and  C_10 
REMARK    2  A    between atoms: O_1  and  C_15 
REMARK    3  A    between atoms: C_13  and  O_2 
REMARK    4  A    between atoms: N_3  and  C_12 
REMARK    5  A    between atoms: N_3  and  C_14 
REMARK    6  A    between atoms: C_4  and  C_9 
REMARK    7  A    between atoms: C_13  and  C_14 
REMARK    8  A    between atoms: C_13  and  C_15 
ROOT
HETATM    1  O   UNK N   1      30.341  17.474   7.598  0.00  0.00    -0.348 OA
ENDROOT
BRANCH   1   2
HETATM    2  C   UNK N   1      31.703  17.417   7.551  0.00  0.00     0.075 A 
HETATM    3  C   UNK N   1      32.455  17.262   6.343  0.00  0.00    -0.021 A 
HETATM    4  C   UNK N   1      33.860  17.282   6.411  0.00  0.00     0.010 A 
HETATM    5  C   UNK N   1      34.518  17.432   7.631  0.00  0.00     0.001 A 
HETATM    6  C   UNK N   1      33.785  17.552   8.807  0.00  0.00     0.003 A 
HETATM    7  C   UNK N   1      32.390  17.544   8.766  0.00  0.00     0.037 A 
BRANCH   3   8
HETATM    8  C   UNK N   1      31.788  17.063   5.001  0.00  0.00     0.021 C 
HETATM    9  C   UNK N   1      32.505  17.639   3.799  0.00  0.00     0.009 C 
HETATM   10  C   UNK N   1      31.886  16.908   2.621  0.00  0.00     0.001 C 
HETATM   11  C   UNK N   1      31.319  15.608   3.172  0.00  0.00     0.001 C 
HETATM   12  C   UNK N   1      31.653  15.599   4.650  0.00  0.00     0.009 C 
ENDBRANCH   3   8
ENDBRANCH   1   2
BRANCH   1  13
HETATM   13  C   UNK N   1      29.601  17.522   8.760  0.00  0.00     0.209 C 
BRANCH  13  14
HETATM   14  C   UNK N   1      28.544  18.613   8.713  0.00  0.00     0.159 C 
BRANCH  14  15
HETATM   15  O   UNK N   1      27.415  18.158   9.390  0.00  0.00    -0.392 OA
HETATM   16  H   UNK N   1      26.673  18.735   9.632  0.00  0.00     0.210 HD
ENDBRANCH  14  15
BRANCH  14  17
HETATM   17  C   UNK N   1      28.153  18.893   7.275  0.00  0.00     0.148 C 
BRANCH  17  18
HETATM   18  N   UNK N   1      27.218  17.888   6.780  0.00  0.00    -0.411 N 
HETATM   19  H   UNK N   1      26.459  17.483   7.330  0.00  0.00     0.154 HD
BRANCH  18  20
HETATM   20  C   UNK N   1      27.512  17.536   5.386  0.00  0.00     0.014 C 
HETATM   21  C   UNK N   1      28.473  18.543   4.775  0.00  0.00     0.037 C 
HETATM   22  C   UNK N   1      28.091  16.131   5.262  0.00  0.00     0.037 C 
HETATM   23  C   UNK N   1      26.221  17.576   4.598  0.00  0.00     0.037 C 
ENDBRANCH  18  20
ENDBRANCH  17  18
ENDBRANCH  14  17
ENDBRANCH  13  14
ENDBRANCH   1  13
TORSDOF 8
ENDMDL
MODEL 5
REMARK VINA RESULT:      -6.0      1.772      5.068
REMARK  8 active torsions:
REMARK  status: ('A' for Active; 'I' for Inactive)
REMARK    1  A    between atoms: O_1  and  C_10 
REMARK    2  A    between atoms: O_1  and  C_15 
REMARK    3  A    between atoms: C_13  and  O_2 
REMARK    4  A    between atoms: N_3  and  C_12 
REMARK    5  A    between atoms: N_3  and  C_14 
REMARK    6  A    between atoms: C_4  and  C_9 
REMARK    7  A    between atoms: C_13  and  C_14 
REMARK    8  A    between atoms: C_13  and  C_15 
ROOT
HETATM    1  O   UNK N   1      28.694  18.444   7.336  0.00  0.00    -0.348 OA
ENDROOT
BRANCH   1   2
HETATM    2  C   UNK N   1      28.087  19.108   6.311  0.00  0.00     0.075 A 
HETATM    3  C   UNK N   1      27.919  18.567   4.997  0.00  0.00    -0.021 A 
HETATM    4  C   UNK N   1      27.218  19.319   4.038  0.00  0.00     0.010 A 
HETATM    5  C   UNK N   1      26.705  20.578   4.347  0.00  0.00     0.001 A 
HETATM    6  C   UNK N   1      26.896  21.115   5.617  0.00  0.00     0.003 A 
HETATM    7  C   UNK N   1      27.581  20.384   6.589  0.00  0.00     0.037 A 
BRANCH   3   8
HETATM    8  C   UNK N   1      28.484  17.221   4.603  0.00  0.00     0.021 C 
HETATM    9  C   UNK N   1      27.824  16.527   3.431  0.00  0.00     0.009 C 
HETATM   10  C   UNK N   1      28.849  15.497   2.992  0.00  0.00     0.001 C 
HETATM   11  C   UNK N   1      30.199  15.995   3.489  0.00  0.00     0.001 C 
HETATM   12  C   UNK N   1      29.930  17.321   4.173  0.00  0.00     0.009 C 
ENDBRANCH   3   8
ENDBRANCH   1   2
BRANCH   1  13
HETATM   13  C   UNK N   1      28.263  18.466   8.645  0.00  0.00     0.209 C 
BRANCH  13  14
HETATM   14  C   UNK N   1      29.230  17.745   9.570  0.00  0.00     0.159 C 
BRANCH  14  15
HETATM   15  O   UNK N   1      29.759  18.676  10.462  0.00  0.00    -0.392 OA
HETATM   16  H   UNK N   1      30.576  19.171  10.289  0.00  0.00     0.210 HD
ENDBRANCH  14  15
BRANCH  14  17
HETATM   17  C   UNK N   1      30.372  17.154   8.769  0.00  0.00     0.148 C 
BRANCH  17  18
HETATM   18  N   UNK N   1      31.548  18.019   8.814  0.00  0.00    -0.411 N 
HETATM   19  H   UNK N   1      31.571  18.941   9.252  0.00  0.00     0.154 HD
BRANCH  18  20
HETATM   20  C   UNK N   1      32.692  17.388   8.147  0.00  0.00     0.014 C 
HETATM   21  C   UNK N   1      33.893  18.319   8.156  0.00  0.00     0.037 C 
HETATM   22  C   UNK N   1      33.067  16.058   8.792  0.00  0.00     0.037 C 
HETATM   23  C   UNK N   1      32.317  17.113   6.707  0.00  0.00     0.037 C 
ENDBRANCH  18  20
ENDBRANCH  17  18
ENDBRANCH  14  17
ENDBRANCH  13  14
ENDBRANCH   1  13
TORSDOF 8
ENDMDL
MODEL 6
REMARK VINA RESULT:      -6.0      2.721      5.253
REMARK  8 active torsions:
REMARK  status: ('A' for Active; 'I' for Inactive)
REMARK    1  A    between atoms: O_1  and  C_10 
REMARK    2  A    between atoms: O_1  and  C_15 
REMARK    3  A    between atoms: C_13  and  O_2 
REMARK    4  A    between atoms: N_3  and  C_12 
REMARK    5  A    between atoms: N_3  and  C_14 
REMARK    6  A    between atoms: C_4  and  C_9 
REMARK    7  A    between atoms: C_13  and  C_14 
REMARK    8  A    between atoms: C_13  and  C_15 
ROOT
HETATM    1  O   UNK N   1      31.823  17.344   7.002  0.00  0.00    -0.348 OA
ENDROOT
BRANCH   1   2
HETATM    2  C   UNK N   1      30.656  17.621   7.652  0.00  0.00     0.075 A 
HETATM    3  C   UNK N   1      29.359  17.312   7.132  0.00  0.00    -0.021 A 
HETATM    4  C   UNK N   1      28.228  17.585   7.922  0.00  0.00     0.010 A 
HETATM    5  C   UNK N   1      28.357  18.163   9.184  0.00  0.00     0.001 A 
HETATM    6  C   UNK N   1      29.617  18.491   9.675  0.00  0.00     0.003 A 
HETATM    7  C   UNK N   1      30.755  18.221   8.914  0.00  0.00     0.037 A 
BRANCH   3   8
HETATM    8  C   UNK N   1      29.166  16.715   5.756  0.00  0.00     0.021 C 
HETATM    9  C   UNK N   1      28.049  15.704   5.609  0.00  0.00     0.009 C 
HETATM   10  C   UNK N   1      27.800  15.651   4.112  0.00  0.00     0.001 C 
HETATM   11  C   UNK N   1      28.313  16.968   3.544  0.00  0.00     0.001 C 
HETATM   12  C   UNK N   1      28.813  17.768   4.730  0.00  0.00     0.009 C 
ENDBRANCH   3   8
ENDBRANCH   1   2
BRANCH   1  13
HETATM   13  C   UNK N   1      32.790  16.479   7.468  0.00  0.00     0.209 C 
BRANCH  13  14
HETATM   14  C   UNK N   1      34.136  16.729   6.808  0.00  0.00     0.159 C 
BRANCH  14  15
HETATM   15  O   UNK N   1      34.384  18.100   6.825  0.00  0.00    -0.392 OA
HETATM   16  H   UNK N   1      35.265  18.482   6.682  0.00  0.00     0.210 HD
ENDBRANCH  14  15
BRANCH  14  17
HETATM   17  C   UNK N   1      34.098  16.273   5.363  0.00  0.00     0.148 C 
BRANCH  17  18
HETATM   18  N   UNK N   1      32.872  15.534   5.078  0.00  0.00    -0.411 N 
HETATM   19  H   UNK N   1      32.324  15.031   5.777  0.00  0.00     0.154 HD
BRANCH  18  20
HETATM   20  C   UNK N   1      32.529  15.612   3.652  0.00  0.00     0.014 C 
HETATM   21  C   UNK N   1      33.708  15.174   2.799  0.00  0.00     0.037 C 
HETATM   22  C   UNK N   1      31.305  14.768   3.313  0.00  0.00     0.037 C 
HETATM   23  C   UNK N   1      32.208  17.051   3.314  0.00  0.00     0.037 C 
ENDBRANCH  18  20
ENDBRANCH  17  18
ENDBRANCH  14  17
ENDBRANCH  13  14
ENDBRANCH   1  13
TORSDOF 8
ENDMDL
MODEL 7
REMARK VINA RESULT:      -5.9     10.051     12.575
REMARK  8 active torsions:
REMARK  status: ('A' for Active; 'I' for Inactive)
REMARK    1  A    between atoms: O_1  and  C_10 
REMARK    2  A    between atoms: O_1  and  C_15 
REMARK    3  A    between atoms: C_13  and  O_2 
REMARK    4  A    between atoms: N_3  and  C_12 
REMARK    5  A    between atoms: N_3  and  C_14 
REMARK    6  A    between atoms: C_4  and  C_9 
REMARK    7  A    between atoms: C_13  and  C_14 
REMARK    8  A    between atoms: C_13  and  C_15 
ROOT
HETATM    1  O   UNK N   1      35.055  12.831  16.537  0.00  0.00    -0.348 OA
ENDROOT
BRANCH   1   2
HETATM    2  C   UNK N   1      35.091  11.788  17.415  0.00  0.00     0.075 A 
HETATM    3  C   UNK N   1      34.965  10.415  17.031  0.00  0.00    -0.021 A 
HETATM    4  C   UNK N   1      35.084   9.421  18.018  0.00  0.00     0.010 A 
HETATM    5  C   UNK N   1      35.304   9.756  19.353  0.00  0.00     0.001 A 
HETATM    6  C   UNK N   1      35.396  11.093  19.729  0.00  0.00     0.003 A 
HETATM    7  C   UNK N   1      35.290  12.098  18.767  0.00  0.00     0.037 A 
BRANCH   3   8
HETATM    8  C   UNK N   1      34.693  10.002  15.602  0.00  0.00     0.021 C 
HETATM    9  C   UNK N   1      33.643  10.796  14.857  0.00  0.00     0.009 C 
HETATM   10  C   UNK N   1      33.920  10.487  13.396  0.00  0.00     0.001 C 
HETATM   11  C   UNK N   1      35.376  10.050  13.318  0.00  0.00     0.001 C 
HETATM   12  C   UNK N   1      35.919  10.151  14.730  0.00  0.00     0.009 C 
ENDBRANCH   3   8
ENDBRANCH   1   2
BRANCH   1  13
HETATM   13  C   UNK N   1      35.951  13.878  16.530  0.00  0.00     0.209 C 
BRANCH  13  14
HETATM   14  C   UNK N   1      36.857  13.837  15.310  0.00  0.00     0.159 C 
BRANCH  14  15
HETATM   15  O   UNK N   1      37.666  14.972  15.328  0.00  0.00    -0.392 OA
HETATM   16  H   UNK N   1      38.209  15.225  16.091  0.00  0.00     0.210 HD
ENDBRANCH  14  15
BRANCH  14  17
HETATM   17  C   UNK N   1      36.024  13.870  14.044  0.00  0.00     0.148 C 
BRANCH  17  18
HETATM   18  N   UNK N   1      36.730  14.560  12.969  0.00  0.00    -0.411 N 
HETATM   19  H   UNK N   1      37.338  15.370  13.102  0.00  0.00     0.154 HD
BRANCH  18  20
HETATM   20  C   UNK N   1      36.451  13.937  11.670  0.00  0.00     0.014 C 
HETATM   21  C   UNK N   1      35.002  13.483  11.599  0.00  0.00     0.037 C 
HETATM   22  C   UNK N   1      36.755  14.877  10.509  0.00  0.00     0.037 C 
HETATM   23  C   UNK N   1      37.336  12.719  11.523  0.00  0.00     0.037 C 
ENDBRANCH  18  20
ENDBRANCH  17  18
ENDBRANCH  14  17
ENDBRANCH  13  14
ENDBRANCH   1  13
TORSDOF 8
ENDMDL
MODEL 8
REMARK VINA RESULT:      -5.9     11.325     13.996
REMARK  8 active torsions:
REMARK  status: ('A' for Active; 'I' for Inactive)
REMARK    1  A    between atoms: O_1  and  C_10 
REMARK    2  A    between atoms: O_1  and  C_15 
REMARK    3  A    between atoms: C_13  and  O_2 
REMARK    4  A    between atoms: N_3  and  C_12 
REMARK    5  A    between atoms: N_3  and  C_14 
REMARK    6  A    between atoms: C_4  and  C_9 
REMARK    7  A    between atoms: C_13  and  C_14 
REMARK    8  A    between atoms: C_13  and  C_15 
ROOT
HETATM    1  O   UNK N   1      27.650  23.860  -3.532  0.00  0.00    -0.348 OA
ENDROOT
BRANCH   1   2
HETATM    2  C   UNK N   1      26.918  24.780  -4.222  0.00  0.00     0.075 A 
HETATM    3  C   UNK N   1      26.381  24.558  -5.530  0.00  0.00    -0.021 A 
HETATM    4  C   UNK N   1      25.584  25.558  -6.116  0.00  0.00     0.010 A 
HETATM    5  C   UNK N   1      25.330  26.756  -5.450  0.00  0.00     0.001 A 
HETATM    6  C   UNK N   1      25.878  26.982  -4.191  0.00  0.00     0.003 A 
HETATM    7  C   UNK N   1      26.665  26.002  -3.584  0.00  0.00     0.037 A 
BRANCH   3   8
HETATM    8  C   UNK N   1      26.655  23.289  -6.306  0.00  0.00     0.021 C 
HETATM    9  C   UNK N   1      25.446  22.500  -6.758  0.00  0.00     0.009 C 
HETATM   10  C   UNK N   1      25.987  21.602  -7.857  0.00  0.00     0.001 C 
HETATM   11  C   UNK N   1      27.247  22.278  -8.382  0.00  0.00     0.001 C 
HETATM   12  C   UNK N   1      27.386  23.568  -7.599  0.00  0.00     0.009 C 
ENDBRANCH   3   8
ENDBRANCH   1   2
BRANCH   1  13
HETATM   13  C   UNK N   1      28.996  23.978  -3.258  0.00  0.00     0.209 C 
BRANCH  13  14
HETATM   14  C   UNK N   1      29.537  22.750  -2.545  0.00  0.00     0.159 C 
BRANCH  14  15
HETATM   15  O   UNK N   1      30.436  23.173  -1.568  0.00  0.00    -0.392 OA
HETATM   16  H   UNK N   1      31.186  22.634  -1.268  0.00  0.00     0.210 HD
ENDBRANCH  14  15
BRANCH  14  17
HETATM   17  C   UNK N   1      30.285  21.868  -3.525  0.00  0.00     0.148 C 
BRANCH  17  18
HETATM   18  N   UNK N   1      29.673  21.919  -4.850  0.00  0.00    -0.411 N 
HETATM   19  H   UNK N   1      28.738  22.282  -5.042  0.00  0.00     0.154 HD
BRANCH  18  20
HETATM   20  C   UNK N   1      30.579  21.378  -5.870  0.00  0.00     0.014 C 
HETATM   21  C   UNK N   1      31.791  20.736  -5.217  0.00  0.00     0.037 C 
HETATM   22  C   UNK N   1      29.883  20.367  -6.773  0.00  0.00     0.037 C 
HETATM   23  C   UNK N   1      31.059  22.521  -6.738  0.00  0.00     0.037 C 
ENDBRANCH  18  20
ENDBRANCH  17  18
ENDBRANCH  14  17
ENDBRANCH  13  14
ENDBRANCH   1  13
TORSDOF 8
ENDMDL
MODEL 9
REMARK VINA RESULT:      -5.9     12.268     15.038
REMARK  8 active torsions:
REMARK  status: ('A' for Active; 'I' for Inactive)
REMARK    1  A    between atoms: O_1  and  C_10 
REMARK    2  A    between atoms: O_1  and  C_15 
REMARK    3  A    between atoms: C_13  and  O_2 
REMARK    4  A    between atoms: N_3  and  C_12 
REMARK    5  A    between atoms: N_3  and  C_14 
REMARK    6  A    between atoms: C_4  and  C_9 
REMARK    7  A    between atoms: C_13  and  C_14 
REMARK    8  A    between atoms: C_13  and  C_15 
ROOT
HETATM    1  O   UNK N   1      25.586  24.394  -6.333  0.00  0.00    -0.348 OA
ENDROOT
BRANCH   1   2
HETATM    2  C   UNK N   1      25.712  25.454  -5.485  0.00  0.00     0.075 A 
HETATM    3  C   UNK N   1      26.662  25.514  -4.416  0.00  0.00    -0.021 A 
HETATM    4  C   UNK N   1      26.745  26.688  -3.647  0.00  0.00     0.010 A 
HETATM    5  C   UNK N   1      25.910  27.775  -3.902  0.00  0.00     0.001 A 
HETATM    6  C   UNK N   1      24.967  27.703  -4.922  0.00  0.00     0.003 A 
HETATM    7  C   UNK N   1      24.870  26.552  -5.706  0.00  0.00     0.037 A 
BRANCH   3   8
HETATM    8  C   UNK N   1      27.568  24.350  -4.079  0.00  0.00     0.021 C 
HETATM    9  C   UNK N   1      29.051  24.566  -4.287  0.00  0.00     0.009 C 
HETATM   10  C   UNK N   1      29.698  23.471  -3.459  0.00  0.00     0.001 C 
HETATM   11  C   UNK N   1      28.678  23.073  -2.400  0.00  0.00     0.001 C 
HETATM   12  C   UNK N   1      27.478  23.972  -2.618  0.00  0.00     0.009 C 
ENDBRANCH   3   8
ENDBRANCH   1   2
BRANCH   1  13
HETATM   13  C   UNK N   1      25.790  24.454  -7.695  0.00  0.00     0.209 C 
BRANCH  13  14
HETATM   14  C   UNK N   1      25.629  23.093  -8.351  0.00  0.00     0.159 C 
BRANCH  14  15
HETATM   15  O   UNK N   1      24.278  22.750  -8.322  0.00  0.00    -0.392 OA
HETATM   16  H   UNK N   1      23.634  23.077  -8.970  0.00  0.00     0.210 HD
ENDBRANCH  14  15
BRANCH  14  17
HETATM   17  C   UNK N   1      26.399  22.046  -7.570  0.00  0.00     0.148 C 
BRANCH  17  18
HETATM   18  N   UNK N   1      27.707  22.552  -7.163  0.00  0.00    -0.411 N 
HETATM   19  H   UNK N   1      27.855  23.415  -6.638  0.00  0.00     0.154 HD
BRANCH  18  20
HETATM   20  C   UNK N   1      28.780  21.654  -7.606  0.00  0.00     0.014 C 
HETATM   21  C   UNK N   1      28.198  20.382  -8.199  0.00  0.00     0.037 C 
HETATM   22  C   UNK N   1      29.700  22.323  -8.622  0.00  0.00     0.037 C 
HETATM   23  C   UNK N   1      29.616  21.276  -6.403  0.00  0.00     0.037 C 
ENDBRANCH  18  20
ENDBRANCH  17  18
ENDBRANCH  14  17
ENDBRANCH  13  14
ENDBRANCH   1  13
TORSDOF 8
ENDMDL
