MODEL 1
REMARK VINA RESULT:      -6.9      0.000      0.000
REMARK  22 active torsions:
REMARK  status: ('A' for Active; 'I' for Inactive)
REMARK    1  A    between atoms: C_20  and  O_1 
REMARK    2  A    between atoms: C_26  and  O_1 
REMARK    3  A    between atoms: C_21  and  O_2 
REMARK    4  A    between atoms: C_30  and  O_2 
REMARK    5  A    between atoms: C_27  and  O_4 
REMARK    6  A    between atoms: C_33  and  O_4 
REMARK    7  A    between atoms: C_23  and  O_5 
REMARK    8  A    between atoms: C_28  and  O_8 
REMARK    9  A    between atoms: C_32  and  O_9 
REMARK   10  A    between atoms: C_34  and  O_10 
REMARK   11  A    between atoms: C_37  and  O_11 
REMARK   12  A    between atoms: O_12  and  C_38 
REMARK   13  A    between atoms: C_39  and  O_13 
REMARK   14  A    between atoms: O_14  and  C_41 
REMARK   15  A    between atoms: C_22  and  N_15 
REMARK   16  A    between atoms: C_24  and  N_16 
REMARK   17  A    between atoms: C_31  and  N_17 
REMARK   18  A    between atoms: C_35  and  N_18 
REMARK   19  A    between atoms: N_19  and  C_42 
REMARK   20  A    between atoms: C_29  and  C_38 
REMARK   21  A    between atoms: C_36  and  C_41 
REMARK   22  A    between atoms: C_40  and  C_42 
ROOT
HETATM    1  C   UNK N   1      29.227  15.123   3.318  0.00  0.00     0.186 C 
HETATM    2  C   UNK N   1      28.195  16.262   3.402  0.00  0.00     0.178 C 
HETATM    3  C   UNK N   1      26.754  15.881   3.804  0.00  0.00     0.107 C 
HETATM    4  C   UNK N   1      28.630  14.037   2.411  0.00  0.00     0.172 C 
HETATM    5  C   UNK N   1      27.240  13.589   2.886  0.00  0.00     0.107 C 
HETATM    6  C   UNK N   1      26.262  14.767   2.883  0.00  0.00     0.054 C 
ENDROOT
BRANCH   1   7
HETATM    7  O   UNK N   1      29.487  14.628   4.614  0.00  0.00    -0.348 OA
BRANCH   7   8
HETATM    8  C   UNK N   1      30.838  14.226   4.803  0.00  0.00     0.292 C 
HETATM    9  O   UNK N   1      31.692  14.813   3.841  0.00  0.00    -0.348 OA
HETATM   10  C   UNK N   1      32.599  15.642   4.535  0.00  0.00     0.180 C 
HETATM   11  C   UNK N   1      32.231  15.609   6.012  0.00  0.00     0.189 C 
HETATM   12  C   UNK N   1      31.449  14.335   6.201  0.00  0.00     0.205 C 
BRANCH  10  13
HETATM   13  C   UNK N   1      32.549  17.053   3.954  0.00  0.00     0.198 C 
BRANCH  13  14
HETATM   14  O   UNK N   1      31.473  17.787   4.456  0.00  0.00    -0.398 OA
HETATM   15  H   UNK N   1      31.139  18.033   5.332  0.00  0.00     0.209 HD
ENDBRANCH  13  14
ENDBRANCH  10  13
BRANCH  11  16
HETATM   16  O   UNK N   1      33.274  15.896   6.938  0.00  0.00    -0.348 OA
BRANCH  16  17
HETATM   17  C   UNK N   1      32.751  16.136   8.236  0.00  0.00     0.285 C 
HETATM   18  O   UNK N   1      32.702  14.954   9.018  0.00  0.00    -0.350 OA
HETATM   19  C   UNK N   1      34.009  14.433   9.139  0.00  0.00     0.173 C 
HETATM   20  C   UNK N   1      34.871  15.346  10.015  0.00  0.00     0.179 C 
HETATM   21  C   UNK N   1      34.941  16.713   9.327  0.00  0.00     0.176 C 
HETATM   22  C   UNK N   1      33.534  17.223   8.992  0.00  0.00     0.161 C 
BRANCH  19  23
HETATM   23  C   UNK N   1      33.949  13.012   9.675  0.00  0.00     0.145 C 
BRANCH  23  24
HETATM   24  N   UNK N   1      32.712  12.377   9.255  0.00  0.00    -0.428 N 
HETATM   25  H   UNK N   1      32.281  12.153   8.358  0.00  0.00     0.150 HD
HETATM   26  H   UNK N   1      32.138  12.085  10.046  0.00  0.00     0.150 HD
ENDBRANCH  23  24
ENDBRANCH  19  23
BRANCH  20  27
HETATM   27  O   UNK N   1      34.306  15.463  11.290  0.00  0.00    -0.390 OA
HETATM   28  H   UNK N   1      34.200  15.017  12.144  0.00  0.00     0.210 HD
ENDBRANCH  20  27
BRANCH  21  29
HETATM   29  O   UNK N   1      35.621  17.628  10.132  0.00  0.00    -0.391 OA
HETATM   30  H   UNK N   1      36.179  18.331   9.762  0.00  0.00     0.210 HD
ENDBRANCH  21  29
BRANCH  22  31
HETATM   31  N   UNK N   1      33.604  18.447   8.211  0.00  0.00    -0.420 N 
HETATM   32  H   UNK N   1      32.869  19.037   7.820  0.00  0.00     0.150 HD
HETATM   33  H   UNK N   1      34.552  18.772   8.022  0.00  0.00     0.150 HD
ENDBRANCH  22  31
ENDBRANCH  16  17
ENDBRANCH  11  16
BRANCH  12  34
HETATM   34  O   UNK N   1      32.312  13.253   6.381  0.00  0.00    -0.388 OA
HETATM   35  H   UNK N   1      33.214  13.098   6.060  0.00  0.00     0.210 HD
ENDBRANCH  12  34
ENDBRANCH   7   8
ENDBRANCH   1   7
BRANCH   2  36
HETATM   36  O   UNK N   1      28.638  17.592   3.596  0.00  0.00    -0.349 OA
BRANCH  36  37
HETATM   37  C   UNK N   1      28.114  18.222   4.755  0.00  0.00     0.285 C 
HETATM   38  O   UNK N   1      28.776  17.839   5.931  0.00  0.00    -0.349 OA
HETATM   39  C   UNK N   1      27.923  18.131   7.012  0.00  0.00     0.179 C 
HETATM   40  C   UNK N   1      27.787  19.653   7.159  0.00  0.00     0.180 C 
HETATM   41  C   UNK N   1      27.191  20.219   5.869  0.00  0.00     0.176 C 
HETATM   42  C   UNK N   1      27.978  19.744   4.647  0.00  0.00     0.161 C 
BRANCH  39  43
HETATM   43  C   UNK N   1      28.515  17.536   8.280  0.00  0.00     0.198 C 
BRANCH  43  44
HETATM   44  O   UNK N   1      27.518  17.372   9.244  0.00  0.00    -0.398 OA
HETATM   45  H   UNK N   1      27.088  17.991   9.855  0.00  0.00     0.209 HD
ENDBRANCH  43  44
ENDBRANCH  39  43
BRANCH  40  46
HETATM   46  O   UNK N   1      26.943  19.959   8.231  0.00  0.00    -0.390 OA
HETATM   47  H   UNK N   1      26.141  20.497   8.142  0.00  0.00     0.210 HD
ENDBRANCH  40  46
BRANCH  41  48
HETATM   48  O   UNK N   1      27.167  21.613   5.916  0.00  0.00    -0.391 OA
HETATM   49  H   UNK N   1      26.440  22.255   5.945  0.00  0.00     0.210 HD
ENDBRANCH  41  48
BRANCH  42  50
HETATM   50  N   UNK N   1      27.256  20.099   3.438  0.00  0.00    -0.420 N 
HETATM   51  H   UNK N   1      27.235  19.746   2.482  0.00  0.00     0.150 HD
HETATM   52  H   UNK N   1      26.622  20.885   3.579  0.00  0.00     0.150 HD
ENDBRANCH  42  50
ENDBRANCH  36  37
ENDBRANCH   2  36
BRANCH   4  53
HETATM   53  O   UNK N   1      28.578  14.490   1.089  0.00  0.00    -0.391 OA
HETATM   54  H   UNK N   1      28.263  14.937   0.288  0.00  0.00     0.210 HD
ENDBRANCH   4  53
BRANCH   3  55
HETATM   55  N   UNK N   1      26.693  15.410   5.178  0.00  0.00    -0.423 N 
HETATM   56  H   UNK N   1      26.995  15.116   6.108  0.00  0.00     0.150 HD
HETATM   57  H   UNK N   1      25.684  15.300   5.280  0.00  0.00     0.150 HD
ENDBRANCH   3  55
BRANCH   5  58
HETATM   58  N   UNK N   1      26.735  12.526   2.035  0.00  0.00    -0.423 N 
HETATM   59  H   UNK N   1      27.387  11.890   1.573  0.00  0.00     0.150 HD
HETATM   60  H   UNK N   1      25.731  12.415   1.899  0.00  0.00     0.150 HD
ENDBRANCH   5  58
TORSDOF 22
ENDMDL
MODEL 2
REMARK VINA RESULT:      -6.6      4.507      6.310
REMARK  22 active torsions:
REMARK  status: ('A' for Active; 'I' for Inactive)
REMARK    1  A    between atoms: C_20  and  O_1 
REMARK    2  A    between atoms: C_26  and  O_1 
REMARK    3  A    between atoms: C_21  and  O_2 
REMARK    4  A    between atoms: C_30  and  O_2 
REMARK    5  A    between atoms: C_27  and  O_4 
REMARK    6  A    between atoms: C_33  and  O_4 
REMARK    7  A    between atoms: C_23  and  O_5 
REMARK    8  A    between atoms: C_28  and  O_8 
REMARK    9  A    between atoms: C_32  and  O_9 
REMARK   10  A    between atoms: C_34  and  O_10 
REMARK   11  A    between atoms: C_37  and  O_11 
REMARK   12  A    between atoms: O_12  and  C_38 
REMARK   13  A    between atoms: C_39  and  O_13 
REMARK   14  A    between atoms: O_14  and  C_41 
REMARK   15  A    between atoms: C_22  and  N_15 
REMARK   16  A    between atoms: C_24  and  N_16 
REMARK   17  A    between atoms: C_31  and  N_17 
REMARK   18  A    between atoms: C_35  and  N_18 
REMARK   19  A    between atoms: N_19  and  C_42 
REMARK   20  A    between atoms: C_29  and  C_38 
REMARK   21  A    between atoms: C_36  and  C_41 
REMARK   22  A    between atoms: C_40  and  C_42 
ROOT
HETATM    1  C   UNK N   1      25.485  14.898   5.981  0.00  0.00     0.186 C 
HETATM    2  C   UNK N   1      25.089  13.564   6.641  0.00  0.00     0.178 C 
HETATM    3  C   UNK N   1      25.106  12.304   5.750  0.00  0.00     0.107 C 
HETATM    4  C   UNK N   1      24.619  15.055   4.722  0.00  0.00     0.172 C 
HETATM    5  C   UNK N   1      24.730  13.838   3.791  0.00  0.00     0.107 C 
HETATM    6  C   UNK N   1      24.263  12.567   4.505  0.00  0.00     0.054 C 
ENDROOT
BRANCH   1   7
HETATM    7  O   UNK N   1      26.859  14.875   5.663  0.00  0.00    -0.348 OA
BRANCH   7   8
HETATM    8  C   UNK N   1      27.421  16.172   5.496  0.00  0.00     0.292 C 
HETATM    9  O   UNK N   1      26.995  17.054   6.516  0.00  0.00    -0.348 OA
HETATM   10  C   UNK N   1      28.141  17.441   7.242  0.00  0.00     0.180 C 
HETATM   11  C   UNK N   1      29.336  16.693   6.668  0.00  0.00     0.189 C 
HETATM   12  C   UNK N   1      28.929  16.297   5.273  0.00  0.00     0.205 C 
BRANCH  10  13
HETATM   13  C   UNK N   1      27.928  17.149   8.726  0.00  0.00     0.198 C 
BRANCH  13  14
HETATM   14  O   UNK N   1      27.469  18.270   9.418  0.00  0.00    -0.398 OA
HETATM   15  H   UNK N   1      27.852  19.097   9.748  0.00  0.00     0.209 HD
ENDBRANCH  13  14
ENDBRANCH  10  13
BRANCH  11  16
HETATM   16  O   UNK N   1      30.614  17.295   6.846  0.00  0.00    -0.348 OA
BRANCH  16  17
HETATM   17  C   UNK N   1      31.626  16.310   6.992  0.00  0.00     0.285 C 
HETATM   18  O   UNK N   1      32.089  15.832   5.740  0.00  0.00    -0.350 OA
HETATM   19  C   UNK N   1      32.609  16.917   5.000  0.00  0.00     0.173 C 
HETATM   20  C   UNK N   1      33.906  17.425   5.635  0.00  0.00     0.179 C 
HETATM   21  C   UNK N   1      33.571  17.901   7.052  0.00  0.00     0.176 C 
HETATM   22  C   UNK N   1      32.818  16.813   7.825  0.00  0.00     0.161 C 
BRANCH  19  23
HETATM   23  C   UNK N   1      32.800  16.507   3.550  0.00  0.00     0.145 C 
BRANCH  23  24
HETATM   24  N   UNK N   1      31.812  17.167   2.715  0.00  0.00    -0.428 N 
HETATM   25  H   UNK N   1      31.636  18.128   2.422  0.00  0.00     0.150 HD
HETATM   26  H   UNK N   1      31.130  16.513   2.329  0.00  0.00     0.150 HD
ENDBRANCH  23  24
ENDBRANCH  19  23
BRANCH  20  27
HETATM   27  O   UNK N   1      34.857  16.400   5.670  0.00  0.00    -0.390 OA
HETATM   28  H   UNK N   1      35.267  15.692   5.150  0.00  0.00     0.210 HD
ENDBRANCH  20  27
BRANCH  21  29
HETATM   29  O   UNK N   1      34.734  18.274   7.727  0.00  0.00    -0.391 OA
HETATM   30  H   UNK N   1      35.576  18.424   7.267  0.00  0.00     0.210 HD
ENDBRANCH  21  29
BRANCH  22  31
HETATM   31  N   UNK N   1      32.372  17.314   9.114  0.00  0.00    -0.420 N 
HETATM   32  H   UNK N   1      32.017  16.826   9.938  0.00  0.00     0.150 HD
HETATM   33  H   UNK N   1      32.422  18.327   9.213  0.00  0.00     0.150 HD
ENDBRANCH  22  31
ENDBRANCH  16  17
ENDBRANCH  11  16
BRANCH  12  34
HETATM   34  O   UNK N   1      29.146  17.350   4.382  0.00  0.00    -0.388 OA
HETATM   35  H   UNK N   1      28.988  18.303   4.472  0.00  0.00     0.210 HD
ENDBRANCH  12  34
ENDBRANCH   7   8
ENDBRANCH   1   7
BRANCH   2  36
HETATM   36  O   UNK N   1      25.199  13.420   8.044  0.00  0.00    -0.349 OA
BRANCH  36  37
HETATM   37  C   UNK N   1      23.958  13.424   8.733  0.00  0.00     0.285 C 
HETATM   38  O   UNK N   1      22.854  13.454   7.869  0.00  0.00    -0.349 OA
HETATM   39  C   UNK N   1      21.748  13.912   8.609  0.00  0.00     0.179 C 
HETATM   40  C   UNK N   1      21.356  12.854   9.651  0.00  0.00     0.180 C 
HETATM   41  C   UNK N   1      22.542  12.628  10.588  0.00  0.00     0.176 C 
HETATM   42  C   UNK N   1      23.818  12.332   9.798  0.00  0.00     0.161 C 
BRANCH  39  43
HETATM   43  C   UNK N   1      20.588  14.161   7.657  0.00  0.00     0.198 C 
BRANCH  43  44
HETATM   44  O   UNK N   1      19.653  15.010   8.252  0.00  0.00    -0.398 OA
HETATM   45  H   UNK N   1      18.695  15.111   8.142  0.00  0.00     0.209 HD
ENDBRANCH  43  44
ENDBRANCH  39  43
BRANCH  40  46
HETATM   46  O   UNK N   1      20.257  13.295  10.393  0.00  0.00    -0.390 OA
HETATM   47  H   UNK N   1      19.372  13.418  10.015  0.00  0.00     0.210 HD
ENDBRANCH  40  46
BRANCH  41  48
HETATM   48  O   UNK N   1      22.269  11.584  11.474  0.00  0.00    -0.391 OA
HETATM   49  H   UNK N   1      21.510  10.988  11.570  0.00  0.00     0.210 HD
ENDBRANCH  41  48
BRANCH  42  50
HETATM   50  N   UNK N   1      24.960  12.357  10.696  0.00  0.00    -0.420 N 
HETATM   51  H   UNK N   1      25.511  13.090  11.140  0.00  0.00     0.150 HD
HETATM   52  H   UNK N   1      25.286  11.422  10.938  0.00  0.00     0.150 HD
ENDBRANCH  42  50
ENDBRANCH  36  37
ENDBRANCH   2  36
BRANCH   4  53
HETATM   53  O   UNK N   1      23.287  15.282   5.081  0.00  0.00    -0.391 OA
HETATM   54  H   UNK N   1      22.403  15.137   5.453  0.00  0.00     0.210 HD
ENDBRANCH   4  53
BRANCH   3  55
HETATM   55  N   UNK N   1      26.458  11.966   5.333  0.00  0.00    -0.423 N 
HETATM   56  H   UNK N   1      27.364  11.499   5.298  0.00  0.00     0.150 HD
HETATM   57  H   UNK N   1      26.581  12.641   4.578  0.00  0.00     0.150 HD
ENDBRANCH   3  55
BRANCH   5  58
HETATM   58  N   UNK N   1      23.940  14.049   2.590  0.00  0.00    -0.423 N 
HETATM   59  H   UNK N   1      24.330  13.816   1.677  0.00  0.00     0.150 HD
HETATM   60  H   UNK N   1      22.998  14.431   2.660  0.00  0.00     0.150 HD
ENDBRANCH   5  58
TORSDOF 22
ENDMDL
MODEL 3
REMARK VINA RESULT:      -6.6      3.218      6.230
REMARK  22 active torsions:
REMARK  status: ('A' for Active; 'I' for Inactive)
REMARK    1  A    between atoms: C_20  and  O_1 
REMARK    2  A    between atoms: C_26  and  O_1 
REMARK    3  A    between atoms: C_21  and  O_2 
REMARK    4  A    between atoms: C_30  and  O_2 
REMARK    5  A    between atoms: C_27  and  O_4 
REMARK    6  A    between atoms: C_33  and  O_4 
REMARK    7  A    between atoms: C_23  and  O_5 
REMARK    8  A    between atoms: C_28  and  O_8 
REMARK    9  A    between atoms: C_32  and  O_9 
REMARK   10  A    between atoms: C_34  and  O_10 
REMARK   11  A    between atoms: C_37  and  O_11 
REMARK   12  A    between atoms: O_12  and  C_38 
REMARK   13  A    between atoms: C_39  and  O_13 
REMARK   14  A    between atoms: O_14  and  C_41 
REMARK   15  A    between atoms: C_22  and  N_15 
REMARK   16  A    between atoms: C_24  and  N_16 
REMARK   17  A    between atoms: C_31  and  N_17 
REMARK   18  A    between atoms: C_35  and  N_18 
REMARK   19  A    between atoms: N_19  and  C_42 
REMARK   20  A    between atoms: C_29  and  C_38 
REMARK   21  A    between atoms: C_36  and  C_41 
REMARK   22  A    between atoms: C_40  and  C_42 
ROOT
HETATM    1  C   UNK N   1      33.202  14.639   8.214  0.00  0.00     0.186 C 
HETATM    2  C   UNK N   1      32.516  15.674   7.303  0.00  0.00     0.178 C 
HETATM    3  C   UNK N   1      33.296  16.968   6.992  0.00  0.00     0.107 C 
HETATM    4  C   UNK N   1      33.646  15.380   9.486  0.00  0.00     0.172 C 
HETATM    5  C   UNK N   1      34.513  16.605   9.165  0.00  0.00     0.107 C 
HETATM    6  C   UNK N   1      33.737  17.608   8.307  0.00  0.00     0.054 C 
ENDROOT
BRANCH   1   7
HETATM    7  O   UNK N   1      34.302  14.072   7.537  0.00  0.00    -0.348 OA
BRANCH   7   8
HETATM    8  C   UNK N   1      34.812  12.904   8.168  0.00  0.00     0.292 C 
HETATM    9  O   UNK N   1      36.201  12.759   7.945  0.00  0.00    -0.348 OA
HETATM   10  C   UNK N   1      36.838  12.839   9.201  0.00  0.00     0.180 C 
HETATM   11  C   UNK N   1      35.774  13.117  10.252  0.00  0.00     0.189 C 
HETATM   12  C   UNK N   1      34.476  12.657   9.641  0.00  0.00     0.205 C 
BRANCH  10  13
HETATM   13  C   UNK N   1      37.913  13.923   9.159  0.00  0.00     0.198 C 
BRANCH  13  14
HETATM   14  O   UNK N   1      37.706  14.902  10.132  0.00  0.00    -0.398 OA
HETATM   15  H   UNK N   1      37.045  15.080  10.819  0.00  0.00     0.209 HD
ENDBRANCH  13  14
ENDBRANCH  10  13
BRANCH  11  16
HETATM   16  O   UNK N   1      36.067  12.708  11.584  0.00  0.00    -0.348 OA
BRANCH  16  17
HETATM   17  C   UNK N   1      35.171  13.304  12.510  0.00  0.00     0.285 C 
HETATM   18  O   UNK N   1      34.482  12.336  13.284  0.00  0.00    -0.350 OA
HETATM   19  C   UNK N   1      35.427  11.563  13.994  0.00  0.00     0.173 C 
HETATM   20  C   UNK N   1      36.100  12.406  15.081  0.00  0.00     0.179 C 
HETATM   21  C   UNK N   1      36.823  13.564  14.386  0.00  0.00     0.176 C 
HETATM   22  C   UNK N   1      35.872  14.308  13.442  0.00  0.00     0.161 C 
BRANCH  19  23
HETATM   23  C   UNK N   1      34.757  10.323  14.560  0.00  0.00     0.145 C 
BRANCH  23  24
HETATM   24  N   UNK N   1      33.355  10.595  14.824  0.00  0.00    -0.428 N 
HETATM   25  H   UNK N   1      32.731  10.476  15.622  0.00  0.00     0.150 HD
HETATM   26  H   UNK N   1      32.880  11.002  14.017  0.00  0.00     0.150 HD
ENDBRANCH  23  24
ENDBRANCH  19  23
BRANCH  20  27
HETATM   27  O   UNK N   1      35.141  12.889  15.977  0.00  0.00    -0.390 OA
HETATM   28  H   UNK N   1      34.805  13.688  16.411  0.00  0.00     0.210 HD
ENDBRANCH  20  27
BRANCH  21  29
HETATM   29  O   UNK N   1      37.366  14.435  15.331  0.00  0.00    -0.391 OA
HETATM   30  H   UNK N   1      37.094  14.426  16.263  0.00  0.00     0.210 HD
ENDBRANCH  21  29
BRANCH  22  31
HETATM   31  N   UNK N   1      36.590  15.311  12.674  0.00  0.00    -0.420 N 
HETATM   32  H   UNK N   1      37.535  15.683  12.774  0.00  0.00     0.150 HD
HETATM   33  H   UNK N   1      36.059  15.711  11.902  0.00  0.00     0.150 HD
ENDBRANCH  22  31
ENDBRANCH  16  17
ENDBRANCH  11  16
BRANCH  12  34
HETATM   34  O   UNK N   1      34.310  11.283   9.820  0.00  0.00    -0.388 OA
HETATM   35  H   UNK N   1      34.082  10.767  10.610  0.00  0.00     0.210 HD
ENDBRANCH  12  34
ENDBRANCH   7   8
ENDBRANCH   1   7
BRANCH   2  36
HETATM   36  O   UNK N   1      31.491  15.255   6.421  0.00  0.00    -0.349 OA
BRANCH  36  37
HETATM   37  C   UNK N   1      30.342  16.089   6.419  0.00  0.00     0.285 C 
HETATM   38  O   UNK N   1      30.255  16.900   7.560  0.00  0.00    -0.349 OA
HETATM   39  C   UNK N   1      28.915  17.314   7.685  0.00  0.00     0.179 C 
HETATM   40  C   UNK N   1      28.568  18.274   6.537  0.00  0.00     0.180 C 
HETATM   41  C   UNK N   1      28.757  17.539   5.210  0.00  0.00     0.176 C 
HETATM   42  C   UNK N   1      30.141  16.893   5.132  0.00  0.00     0.161 C 
BRANCH  39  43
HETATM   43  C   UNK N   1      28.739  18.016   9.022  0.00  0.00     0.198 C 
BRANCH  43  44
HETATM   44  O   UNK N   1      27.396  17.992   9.404  0.00  0.00    -0.398 OA
HETATM   45  H   UNK N   1      26.649  17.432   9.140  0.00  0.00     0.209 HD
ENDBRANCH  43  44
ENDBRANCH  39  43
BRANCH  40  46
HETATM   46  O   UNK N   1      27.240  18.696   6.648  0.00  0.00    -0.390 OA
HETATM   47  H   UNK N   1      26.951  19.604   6.464  0.00  0.00     0.210 HD
ENDBRANCH  40  46
BRANCH  41  48
HETATM   48  O   UNK N   1      28.571  18.415   4.139  0.00  0.00    -0.391 OA
HETATM   49  H   UNK N   1      28.622  18.295   3.178  0.00  0.00     0.210 HD
ENDBRANCH  41  48
BRANCH  42  50
HETATM   50  N   UNK N   1      30.201  16.015   3.977  0.00  0.00    -0.420 N 
HETATM   51  H   UNK N   1      29.514  15.498   3.428  0.00  0.00     0.150 HD
HETATM   52  H   UNK N   1      31.153  15.885   3.634  0.00  0.00     0.150 HD
ENDBRANCH  42  50
ENDBRANCH  36  37
ENDBRANCH   2  36
BRANCH   4  53
HETATM   53  O   UNK N   1      32.528  15.749  10.241  0.00  0.00    -0.391 OA
HETATM   54  H   UNK N   1      31.831  15.721  10.914  0.00  0.00     0.210 HD
ENDBRANCH   4  53
BRANCH   3  55
HETATM   55  N   UNK N   1      34.478  16.696   6.188  0.00  0.00    -0.423 N 
HETATM   56  H   UNK N   1      35.320  16.853   5.634  0.00  0.00     0.150 HD
HETATM   57  H   UNK N   1      34.439  15.677   6.161  0.00  0.00     0.150 HD
ENDBRANCH   3  55
BRANCH   5  58
HETATM   58  N   UNK N   1      34.955  17.244  10.393  0.00  0.00    -0.423 N 
HETATM   59  H   UNK N   1      34.308  17.824  10.927  0.00  0.00     0.150 HD
HETATM   60  H   UNK N   1      35.912  17.113  10.720  0.00  0.00     0.150 HD
ENDBRANCH   5  58
TORSDOF 22
ENDMDL
MODEL 4
REMARK VINA RESULT:      -6.6      4.617      6.519
REMARK  22 active torsions:
REMARK  status: ('A' for Active; 'I' for Inactive)
REMARK    1  A    between atoms: C_20  and  O_1 
REMARK    2  A    between atoms: C_26  and  O_1 
REMARK    3  A    between atoms: C_21  and  O_2 
REMARK    4  A    between atoms: C_30  and  O_2 
REMARK    5  A    between atoms: C_27  and  O_4 
REMARK    6  A    between atoms: C_33  and  O_4 
REMARK    7  A    between atoms: C_23  and  O_5 
REMARK    8  A    between atoms: C_28  and  O_8 
REMARK    9  A    between atoms: C_32  and  O_9 
REMARK   10  A    between atoms: C_34  and  O_10 
REMARK   11  A    between atoms: C_37  and  O_11 
REMARK   12  A    between atoms: O_12  and  C_38 
REMARK   13  A    between atoms: C_39  and  O_13 
REMARK   14  A    between atoms: O_14  and  C_41 
REMARK   15  A    between atoms: C_22  and  N_15 
REMARK   16  A    between atoms: C_24  and  N_16 
REMARK   17  A    between atoms: C_31  and  N_17 
REMARK   18  A    between atoms: C_35  and  N_18 
REMARK   19  A    between atoms: N_19  and  C_42 
REMARK   20  A    between atoms: C_29  and  C_38 
REMARK   21  A    between atoms: C_36  and  C_41 
REMARK   22  A    between atoms: C_40  and  C_42 
ROOT
HETATM    1  C   UNK N   1      23.625  16.031   3.828  0.00  0.00     0.186 C 
HETATM    2  C   UNK N   1      22.342  15.517   4.505  0.00  0.00     0.178 C 
HETATM    3  C   UNK N   1      22.506  14.477   5.633  0.00  0.00     0.107 C 
HETATM    4  C   UNK N   1      24.426  14.798   3.381  0.00  0.00     0.172 C 
HETATM    5  C   UNK N   1      24.676  13.823   4.540  0.00  0.00     0.107 C 
HETATM    6  C   UNK N   1      23.351  13.316   5.116  0.00  0.00     0.054 C 
ENDROOT
BRANCH   1   7
HETATM    7  O   UNK N   1      24.357  16.817   4.743  0.00  0.00    -0.348 OA
BRANCH   7   8
HETATM    8  C   UNK N   1      25.654  17.167   4.274  0.00  0.00     0.292 C 
HETATM    9  O   UNK N   1      25.742  18.548   3.980  0.00  0.00    -0.348 OA
HETATM   10  C   UNK N   1      26.699  19.103   4.856  0.00  0.00     0.180 C 
HETATM   11  C   UNK N   1      27.177  18.001   5.790  0.00  0.00     0.189 C 
HETATM   12  C   UNK N   1      26.874  16.710   5.075  0.00  0.00     0.205 C 
BRANCH  10  13
HETATM   13  C   UNK N   1      26.080  20.278   5.610  0.00  0.00     0.198 C 
BRANCH  13  14
HETATM   14  O   UNK N   1      26.386  20.245   6.971  0.00  0.00    -0.398 OA
HETATM   15  H   UNK N   1      26.659  19.572   7.613  0.00  0.00     0.209 HD
ENDBRANCH  13  14
ENDBRANCH  10  13
BRANCH  11  16
HETATM   16  O   UNK N   1      28.472  18.161   6.359  0.00  0.00    -0.348 OA
BRANCH  16  17
HETATM   17  C   UNK N   1      28.759  17.116   7.277  0.00  0.00     0.285 C 
HETATM   18  O   UNK N   1      30.011  16.504   7.013  0.00  0.00    -0.350 OA
HETATM   19  C   UNK N   1      31.025  17.483   7.101  0.00  0.00     0.173 C 
HETATM   20  C   UNK N   1      31.204  17.939   8.552  0.00  0.00     0.179 C 
HETATM   21  C   UNK N   1      29.878  18.552   9.011  0.00  0.00     0.176 C 
HETATM   22  C   UNK N   1      28.714  17.591   8.740  0.00  0.00     0.161 C 
BRANCH  19  23
HETATM   23  C   UNK N   1      32.314  16.944   6.505  0.00  0.00     0.145 C 
BRANCH  23  24
HETATM   24  N   UNK N   1      33.446  17.707   7.001  0.00  0.00    -0.428 N 
HETATM   25  H   UNK N   1      34.460  17.635   6.918  0.00  0.00     0.150 HD
HETATM   26  H   UNK N   1      33.158  18.504   7.568  0.00  0.00     0.150 HD
ENDBRANCH  23  24
ENDBRANCH  19  23
BRANCH  20  27
HETATM   27  O   UNK N   1      31.550  16.850   9.359  0.00  0.00    -0.390 OA
HETATM   28  H   UNK N   1      31.777  15.907   9.349  0.00  0.00     0.210 HD
ENDBRANCH  20  27
BRANCH  21  29
HETATM   29  O   UNK N   1      29.939  18.888  10.364  0.00  0.00    -0.391 OA
HETATM   30  H   UNK N   1      30.770  18.874  10.865  0.00  0.00     0.210 HD
ENDBRANCH  21  29
BRANCH  22  31
HETATM   31  N   UNK N   1      27.442  18.227   9.038  0.00  0.00    -0.420 N 
HETATM   32  H   UNK N   1      26.904  18.280   9.903  0.00  0.00     0.150 HD
HETATM   33  H   UNK N   1      27.014  18.704   8.245  0.00  0.00     0.150 HD
ENDBRANCH  22  31
ENDBRANCH  16  17
ENDBRANCH  11  16
BRANCH  12  34
HETATM   34  O   UNK N   1      27.892  16.400   4.172  0.00  0.00    -0.388 OA
HETATM   35  H   UNK N   1      28.813  16.703   4.122  0.00  0.00     0.210 HD
ENDBRANCH  12  34
ENDBRANCH   7   8
ENDBRANCH   1   7
BRANCH   2  36
HETATM   36  O   UNK N   1      21.165  16.301   4.453  0.00  0.00    -0.349 OA
BRANCH  36  37
HETATM   37  C   UNK N   1      21.150  17.269   3.415  0.00  0.00     0.285 C 
HETATM   38  O   UNK N   1      20.265  16.944   2.377  0.00  0.00    -0.349 OA
HETATM   39  C   UNK N   1      20.656  17.678   1.241  0.00  0.00     0.179 C 
HETATM   40  C   UNK N   1      20.390  19.171   1.481  0.00  0.00     0.180 C 
HETATM   41  C   UNK N   1      21.207  19.626   2.691  0.00  0.00     0.176 C 
HETATM   42  C   UNK N   1      20.962  18.712   3.893  0.00  0.00     0.161 C 
BRANCH  39  43
HETATM   43  C   UNK N   1      19.856  17.192   0.042  0.00  0.00     0.198 C 
BRANCH  43  44
HETATM   44  O   UNK N   1      18.533  16.948   0.415  0.00  0.00    -0.398 OA
HETATM   45  H   UNK N   1      17.690  17.048  -0.054  0.00  0.00     0.209 HD
ENDBRANCH  43  44
ENDBRANCH  39  43
BRANCH  40  46
HETATM   46  O   UNK N   1      20.771  19.914   0.359  0.00  0.00    -0.390 OA
HETATM   47  H   UNK N   1      20.203  20.038  -0.417  0.00  0.00     0.210 HD
ENDBRANCH  40  46
BRANCH  41  48
HETATM   48  O   UNK N   1      20.897  20.947   3.016  0.00  0.00    -0.391 OA
HETATM   49  H   UNK N   1      20.875  21.427   3.859  0.00  0.00     0.210 HD
ENDBRANCH  41  48
BRANCH  42  50
HETATM   50  N   UNK N   1      21.919  19.024   4.940  0.00  0.00    -0.420 N 
HETATM   51  H   UNK N   1      22.311  19.882   5.326  0.00  0.00     0.150 HD
HETATM   52  H   UNK N   1      22.284  18.188   5.396  0.00  0.00     0.150 HD
ENDBRANCH  42  50
ENDBRANCH  36  37
ENDBRANCH   2  36
BRANCH   4  53
HETATM   53  O   UNK N   1      23.769  14.156   2.327  0.00  0.00    -0.391 OA
HETATM   54  H   UNK N   1      23.053  13.815   1.769  0.00  0.00     0.210 HD
ENDBRANCH   4  53
BRANCH   3  55
HETATM   55  N   UNK N   1      23.168  15.053   6.794  0.00  0.00    -0.423 N 
HETATM   56  H   UNK N   1      23.516  15.748   7.456  0.00  0.00     0.150 HD
HETATM   57  H   UNK N   1      23.509  14.202   7.240  0.00  0.00     0.150 HD
ENDBRANCH   3  55
BRANCH   5  58
HETATM   58  N   UNK N   1      25.480  12.700   4.089  0.00  0.00    -0.423 N 
HETATM   59  H   UNK N   1      26.481  12.677   4.288  0.00  0.00     0.150 HD
HETATM   60  H   UNK N   1      25.045  11.936   3.573  0.00  0.00     0.150 HD
ENDBRANCH   5  58
TORSDOF 22
ENDMDL
MODEL 5
REMARK VINA RESULT:      -6.6      4.582      6.369
REMARK  22 active torsions:
REMARK  status: ('A' for Active; 'I' for Inactive)
REMARK    1  A    between atoms: C_20  and  O_1 
REMARK    2  A    between atoms: C_26  and  O_1 
REMARK    3  A    between atoms: C_21  and  O_2 
REMARK    4  A    between atoms: C_30  and  O_2 
REMARK    5  A    between atoms: C_27  and  O_4 
REMARK    6  A    between atoms: C_33  and  O_4 
REMARK    7  A    between atoms: C_23  and  O_5 
REMARK    8  A    between atoms: C_28  and  O_8 
REMARK    9  A    between atoms: C_32  and  O_9 
REMARK   10  A    between atoms: C_34  and  O_10 
REMARK   11  A    between atoms: C_37  and  O_11 
REMARK   12  A    between atoms: O_12  and  C_38 
REMARK   13  A    between atoms: C_39  and  O_13 
REMARK   14  A    between atoms: O_14  and  C_41 
REMARK   15  A    between atoms: C_22  and  N_15 
REMARK   16  A    between atoms: C_24  and  N_16 
REMARK   17  A    between atoms: C_31  and  N_17 
REMARK   18  A    between atoms: C_35  and  N_18 
REMARK   19  A    between atoms: N_19  and  C_42 
REMARK   20  A    between atoms: C_29  and  C_38 
REMARK   21  A    between atoms: C_36  and  C_41 
REMARK   22  A    between atoms: C_40  and  C_42 
ROOT
HETATM    1  C   UNK N   1      23.681  15.523   3.625  0.00  0.00     0.186 C 
HETATM    2  C   UNK N   1      22.347  15.427   4.390  0.00  0.00     0.178 C 
HETATM    3  C   UNK N   1      21.883  14.021   4.827  0.00  0.00     0.107 C 
HETATM    4  C   UNK N   1      23.599  14.537   2.449  0.00  0.00     0.172 C 
HETATM    5  C   UNK N   1      23.242  13.117   2.912  0.00  0.00     0.107 C 
HETATM    6  C   UNK N   1      21.879  13.101   3.608  0.00  0.00     0.054 C 
ENDROOT
BRANCH   1   7
HETATM    7  O   UNK N   1      24.745  15.202   4.494  0.00  0.00    -0.348 OA
BRANCH   7   8
HETATM    8  C   UNK N   1      25.978  15.807   4.123  0.00  0.00     0.292 C 
HETATM    9  O   UNK N   1      25.785  17.127   3.653  0.00  0.00    -0.348 OA
HETATM   10  C   UNK N   1      26.460  17.991   4.542  0.00  0.00     0.180 C 
HETATM   11  C   UNK N   1      27.047  17.147   5.664  0.00  0.00     0.189 C 
HETATM   12  C   UNK N   1      27.150  15.752   5.104  0.00  0.00     0.205 C 
BRANCH  10  13
HETATM   13  C   UNK N   1      25.490  19.052   5.058  0.00  0.00     0.198 C 
BRANCH  13  14
HETATM   14  O   UNK N   1      24.332  18.485   5.591  0.00  0.00    -0.398 OA
HETATM   15  H   UNK N   1      23.562  18.799   6.089  0.00  0.00     0.209 HD
ENDBRANCH  13  14
ENDBRANCH  10  13
BRANCH  11  16
HETATM   16  O   UNK N   1      28.181  17.680   6.340  0.00  0.00    -0.348 OA
BRANCH  16  17
HETATM   17  C   UNK N   1      28.649  16.784   7.337  0.00  0.00     0.285 C 
HETATM   18  O   UNK N   1      29.897  16.208   6.993  0.00  0.00    -0.350 OA
HETATM   19  C   UNK N   1      30.846  17.241   6.824  0.00  0.00     0.173 C 
HETATM   20  C   UNK N   1      31.169  17.896   8.170  0.00  0.00     0.179 C 
HETATM   21  C   UNK N   1      29.869  18.495   8.715  0.00  0.00     0.176 C 
HETATM   22  C   UNK N   1      28.750  17.447   8.721  0.00  0.00     0.161 C 
BRANCH  19  23
HETATM   23  C   UNK N   1      32.087  16.694   6.138  0.00  0.00     0.145 C 
BRANCH  23  24
HETATM   24  N   UNK N   1      33.212  17.582   6.369  0.00  0.00    -0.428 N 
HETATM   25  H   UNK N   1      33.352  18.593   6.357  0.00  0.00     0.150 HD
HETATM   26  H   UNK N   1      34.066  17.074   6.600  0.00  0.00     0.150 HD
ENDBRANCH  23  24
ENDBRANCH  19  23
BRANCH  20  27
HETATM   27  O   UNK N   1      31.684  16.944   9.056  0.00  0.00    -0.390 OA
HETATM   28  H   UNK N   1      31.479  16.406   9.837  0.00  0.00     0.210 HD
ENDBRANCH  20  27
BRANCH  21  29
HETATM   29  O   UNK N   1      30.072  19.012   9.996  0.00  0.00    -0.391 OA
HETATM   30  H   UNK N   1      30.433  18.476  10.720  0.00  0.00     0.210 HD
ENDBRANCH  21  29
BRANCH  22  31
HETATM   31  N   UNK N   1      27.483  18.051   9.099  0.00  0.00    -0.420 N 
HETATM   32  H   UNK N   1      27.126  18.998   8.970  0.00  0.00     0.150 HD
HETATM   33  H   UNK N   1      26.840  17.418   9.574  0.00  0.00     0.150 HD
ENDBRANCH  22  31
ENDBRANCH  16  17
ENDBRANCH  11  16
BRANCH  12  34
HETATM   34  O   UNK N   1      28.325  15.606   4.364  0.00  0.00    -0.388 OA
HETATM   35  H   UNK N   1      28.833  14.815   4.126  0.00  0.00     0.210 HD
ENDBRANCH  12  34
ENDBRANCH   7   8
ENDBRANCH   1   7
BRANCH   2  36
HETATM   36  O   UNK N   1      21.855  16.562   5.076  0.00  0.00    -0.349 OA
BRANCH  36  37
HETATM   37  C   UNK N   1      21.314  17.568   4.233  0.00  0.00     0.285 C 
HETATM   38  O   UNK N   1      22.300  18.359   3.625  0.00  0.00    -0.349 OA
HETATM   39  C   UNK N   1      21.687  19.558   3.213  0.00  0.00     0.179 C 
HETATM   40  C   UNK N   1      20.710  19.264   2.066  0.00  0.00     0.180 C 
HETATM   41  C   UNK N   1      19.644  18.290   2.568  0.00  0.00     0.176 C 
HETATM   42  C   UNK N   1      20.284  17.062   3.218  0.00  0.00     0.161 C 
BRANCH  39  43
HETATM   43  C   UNK N   1      22.763  20.525   2.744  0.00  0.00     0.198 C 
BRANCH  43  44
HETATM   44  O   UNK N   1      22.284  21.835   2.789  0.00  0.00    -0.398 OA
HETATM   45  H   UNK N   1      21.787  22.374   2.154  0.00  0.00     0.209 HD
ENDBRANCH  43  44
ENDBRANCH  39  43
BRANCH  40  46
HETATM   46  O   UNK N   1      20.094  20.446   1.643  0.00  0.00    -0.390 OA
HETATM   47  H   UNK N   1      20.551  21.300   1.600  0.00  0.00     0.210 HD
ENDBRANCH  40  46
BRANCH  41  48
HETATM   48  O   UNK N   1      18.808  17.902   1.520  0.00  0.00    -0.391 OA
HETATM   49  H   UNK N   1      17.923  17.505   1.500  0.00  0.00     0.210 HD
ENDBRANCH  41  48
BRANCH  42  50
HETATM   50  N   UNK N   1      19.261  16.280   3.889  0.00  0.00    -0.420 N 
HETATM   51  H   UNK N   1      18.726  16.381   4.750  0.00  0.00     0.150 HD
HETATM   52  H   UNK N   1      19.021  15.430   3.378  0.00  0.00     0.150 HD
ENDBRANCH  42  50
ENDBRANCH  36  37
ENDBRANCH   2  36
BRANCH   4  53
HETATM   53  O   UNK N   1      22.678  14.995   1.503  0.00  0.00    -0.391 OA
HETATM   54  H   UNK N   1      22.122  15.024   0.709  0.00  0.00     0.210 HD
ENDBRANCH   4  53
BRANCH   3  55
HETATM   55  N   UNK N   1      22.770  13.458   5.832  0.00  0.00    -0.423 N 
HETATM   56  H   UNK N   1      23.272  12.769   6.394  0.00  0.00     0.150 HD
HETATM   57  H   UNK N   1      23.124  14.316   6.254  0.00  0.00     0.150 HD
ENDBRANCH   3  55
BRANCH   5  58
HETATM   58  N   UNK N   1      23.229  12.207   1.779  0.00  0.00    -0.423 N 
HETATM   59  H   UNK N   1      24.052  11.642   1.570  0.00  0.00     0.150 HD
HETATM   60  H   UNK N   1      22.397  12.134   1.193  0.00  0.00     0.150 HD
ENDBRANCH   5  58
TORSDOF 22
ENDMDL
MODEL 6
REMARK VINA RESULT:      -6.5      3.500      9.734
REMARK  22 active torsions:
REMARK  status: ('A' for Active; 'I' for Inactive)
REMARK    1  A    between atoms: C_20  and  O_1 
REMARK    2  A    between atoms: C_26  and  O_1 
REMARK    3  A    between atoms: C_21  and  O_2 
REMARK    4  A    between atoms: C_30  and  O_2 
REMARK    5  A    between atoms: C_27  and  O_4 
REMARK    6  A    between atoms: C_33  and  O_4 
REMARK    7  A    between atoms: C_23  and  O_5 
REMARK    8  A    between atoms: C_28  and  O_8 
REMARK    9  A    between atoms: C_32  and  O_9 
REMARK   10  A    between atoms: C_34  and  O_10 
REMARK   11  A    between atoms: C_37  and  O_11 
REMARK   12  A    between atoms: O_12  and  C_38 
REMARK   13  A    between atoms: C_39  and  O_13 
REMARK   14  A    between atoms: O_14  and  C_41 
REMARK   15  A    between atoms: C_22  and  N_15 
REMARK   16  A    between atoms: C_24  and  N_16 
REMARK   17  A    between atoms: C_31  and  N_17 
REMARK   18  A    between atoms: C_35  and  N_18 
REMARK   19  A    between atoms: N_19  and  C_42 
REMARK   20  A    between atoms: C_29  and  C_38 
REMARK   21  A    between atoms: C_36  and  C_41 
REMARK   22  A    between atoms: C_40  and  C_42 
ROOT
HETATM    1  C   UNK N   1      35.094  13.316   9.046  0.00  0.00     0.186 C 
HETATM    2  C   UNK N   1      35.586  13.121  10.493  0.00  0.00     0.178 C 
HETATM    3  C   UNK N   1      37.091  13.333  10.761  0.00  0.00     0.107 C 
HETATM    4  C   UNK N   1      35.982  12.443   8.145  0.00  0.00     0.172 C 
HETATM    5  C   UNK N   1      37.475  12.742   8.345  0.00  0.00     0.107 C 
HETATM    6  C   UNK N   1      37.893  12.467   9.792  0.00  0.00     0.054 C 
ENDROOT
BRANCH   1   7
HETATM    7  O   UNK N   1      35.187  14.679   8.698  0.00  0.00    -0.348 OA
BRANCH   7   8
HETATM    8  C   UNK N   1      34.140  15.473   9.242  0.00  0.00     0.292 C 
HETATM    9  O   UNK N   1      34.266  16.829   8.859  0.00  0.00    -0.348 OA
HETATM   10  C   UNK N   1      33.131  17.153   8.086  0.00  0.00     0.180 C 
HETATM   11  C   UNK N   1      32.291  15.894   7.932  0.00  0.00     0.189 C 
HETATM   12  C   UNK N   1      32.695  15.000   9.076  0.00  0.00     0.205 C 
BRANCH  10  13
HETATM   13  C   UNK N   1      33.577  17.724   6.741  0.00  0.00     0.198 C 
BRANCH  13  14
HETATM   14  O   UNK N   1      34.524  16.912   6.117  0.00  0.00    -0.398 OA
HETATM   15  H   UNK N   1      35.036  16.123   6.351  0.00  0.00     0.209 HD
ENDBRANCH  13  14
ENDBRANCH  10  13
BRANCH  11  16
HETATM   16  O   UNK N   1      30.901  16.078   7.687  0.00  0.00    -0.348 OA
BRANCH  16  17
HETATM   17  C   UNK N   1      30.590  17.453   7.520  0.00  0.00     0.285 C 
HETATM   18  O   UNK N   1      30.043  17.724   6.240  0.00  0.00    -0.350 OA
HETATM   19  C   UNK N   1      28.863  16.964   6.077  0.00  0.00     0.173 C 
HETATM   20  C   UNK N   1      27.760  17.486   7.001  0.00  0.00     0.179 C 
HETATM   21  C   UNK N   1      28.255  17.336   8.443  0.00  0.00     0.176 C 
HETATM   22  C   UNK N   1      29.638  17.976   8.609  0.00  0.00     0.161 C 
BRANCH  19  23
HETATM   23  C   UNK N   1      28.443  16.972   4.617  0.00  0.00     0.145 C 
BRANCH  23  24
HETATM   24  N   UNK N   1      29.578  17.311   3.777  0.00  0.00    -0.428 N 
HETATM   25  H   UNK N   1      30.205  18.112   3.694  0.00  0.00     0.150 HD
HETATM   26  H   UNK N   1      29.803  16.571   3.111  0.00  0.00     0.150 HD
ENDBRANCH  23  24
ENDBRANCH  19  23
BRANCH  20  27
HETATM   27  O   UNK N   1      27.483  18.826   6.710  0.00  0.00    -0.390 OA
HETATM   28  H   UNK N   1      27.488  19.494   6.007  0.00  0.00     0.210 HD
ENDBRANCH  20  27
BRANCH  21  29
HETATM   29  O   UNK N   1      27.338  17.898   9.332  0.00  0.00    -0.391 OA
HETATM   30  H   UNK N   1      27.105  17.474  10.174  0.00  0.00     0.210 HD
ENDBRANCH  21  29
BRANCH  22  31
HETATM   31  N   UNK N   1      30.172  17.708   9.934  0.00  0.00    -0.420 N 
HETATM   32  H   UNK N   1      31.127  17.737  10.291  0.00  0.00     0.150 HD
HETATM   33  H   UNK N   1      29.470  17.447  10.626  0.00  0.00     0.150 HD
ENDBRANCH  22  31
ENDBRANCH  16  17
ENDBRANCH  11  16
BRANCH  12  34
HETATM   34  O   UNK N   1      31.994  15.340  10.233  0.00  0.00    -0.388 OA
HETATM   35  H   UNK N   1      31.579  14.785  10.913  0.00  0.00     0.210 HD
ENDBRANCH  12  34
ENDBRANCH   7   8
ENDBRANCH   1   7
BRANCH   2  36
HETATM   36  O   UNK N   1      34.669  13.243  11.563  0.00  0.00    -0.349 OA
BRANCH  36  37
HETATM   37  C   UNK N   1      35.138  12.726  12.799  0.00  0.00     0.285 C 
HETATM   38  O   UNK N   1      35.467  13.731  13.722  0.00  0.00    -0.349 OA
HETATM   39  C   UNK N   1      36.324  13.161  14.682  0.00  0.00     0.179 C 
HETATM   40  C   UNK N   1      35.541  12.145  15.526  0.00  0.00     0.180 C 
HETATM   41  C   UNK N   1      35.005  11.050  14.603  0.00  0.00     0.176 C 
HETATM   42  C   UNK N   1      34.242  11.653  13.422  0.00  0.00     0.161 C 
BRANCH  39  43
HETATM   43  C   UNK N   1      36.870  14.266  15.573  0.00  0.00     0.198 C 
BRANCH  43  44
HETATM   44  O   UNK N   1      37.260  15.359  14.796  0.00  0.00    -0.398 OA
HETATM   45  H   UNK N   1      37.378  15.476  13.841  0.00  0.00     0.209 HD
ENDBRANCH  43  44
ENDBRANCH  39  43
BRANCH  40  46
HETATM   46  O   UNK N   1      36.378  11.571  16.487  0.00  0.00    -0.390 OA
HETATM   47  H   UNK N   1      36.427  10.615  16.650  0.00  0.00     0.210 HD
ENDBRANCH  40  46
BRANCH  41  48
HETATM   48  O   UNK N   1      34.184  10.174  15.314  0.00  0.00    -0.391 OA
HETATM   49  H   UNK N   1      33.316  10.284  15.733  0.00  0.00     0.210 HD
ENDBRANCH  41  48
BRANCH  42  50
HETATM   50  N   UNK N   1      33.954  10.612  12.450  0.00  0.00    -0.420 N 
HETATM   51  H   UNK N   1      33.797  10.592  11.443  0.00  0.00     0.150 HD
HETATM   52  H   UNK N   1      33.895   9.687  12.874  0.00  0.00     0.150 HD
ENDBRANCH  42  50
ENDBRANCH  36  37
ENDBRANCH   2  36
BRANCH   4  53
HETATM   53  O   UNK N   1      35.714  11.090   8.373  0.00  0.00    -0.391 OA
HETATM   54  H   UNK N   1      35.732  10.211   8.783  0.00  0.00     0.210 HD
ENDBRANCH   4  53
BRANCH   3  55
HETATM   55  N   UNK N   1      37.475  14.723  10.568  0.00  0.00    -0.423 N 
HETATM   56  H   UNK N   1      37.825  15.660  10.770  0.00  0.00     0.150 HD
HETATM   57  H   UNK N   1      37.237  14.834   9.583  0.00  0.00     0.150 HD
ENDBRANCH   3  55
BRANCH   5  58
HETATM   58  N   UNK N   1      38.275  11.937   7.438  0.00  0.00    -0.423 N 
HETATM   59  H   UNK N   1      39.189  12.270   7.132  0.00  0.00     0.150 HD
HETATM   60  H   UNK N   1      37.923  11.039   7.108  0.00  0.00     0.150 HD
ENDBRANCH   5  58
TORSDOF 22
ENDMDL
MODEL 7
REMARK VINA RESULT:      -6.5      3.662      9.808
REMARK  22 active torsions:
REMARK  status: ('A' for Active; 'I' for Inactive)
REMARK    1  A    between atoms: C_20  and  O_1 
REMARK    2  A    between atoms: C_26  and  O_1 
REMARK    3  A    between atoms: C_21  and  O_2 
REMARK    4  A    between atoms: C_30  and  O_2 
REMARK    5  A    between atoms: C_27  and  O_4 
REMARK    6  A    between atoms: C_33  and  O_4 
REMARK    7  A    between atoms: C_23  and  O_5 
REMARK    8  A    between atoms: C_28  and  O_8 
REMARK    9  A    between atoms: C_32  and  O_9 
REMARK   10  A    between atoms: C_34  and  O_10 
REMARK   11  A    between atoms: C_37  and  O_11 
REMARK   12  A    between atoms: O_12  and  C_38 
REMARK   13  A    between atoms: C_39  and  O_13 
REMARK   14  A    between atoms: O_14  and  C_41 
REMARK   15  A    between atoms: C_22  and  N_15 
REMARK   16  A    between atoms: C_24  and  N_16 
REMARK   17  A    between atoms: C_31  and  N_17 
REMARK   18  A    between atoms: C_35  and  N_18 
REMARK   19  A    between atoms: N_19  and  C_42 
REMARK   20  A    between atoms: C_29  and  C_38 
REMARK   21  A    between atoms: C_36  and  C_41 
REMARK   22  A    between atoms: C_40  and  C_42 
ROOT
HETATM    1  C   UNK N   1      35.774  13.501  10.151  0.00  0.00     0.186 C 
HETATM    2  C   UNK N   1      37.110  13.240  10.871  0.00  0.00     0.178 C 
HETATM    3  C   UNK N   1      38.395  13.304  10.019  0.00  0.00     0.107 C 
HETATM    4  C   UNK N   1      35.724  12.561   8.936  0.00  0.00     0.172 C 
HETATM    5  C   UNK N   1      36.960  12.714   8.038  0.00  0.00     0.107 C 
HETATM    6  C   UNK N   1      38.237  12.380   8.814  0.00  0.00     0.054 C 
ENDROOT
BRANCH   1   7
HETATM    7  O   UNK N   1      35.708  14.855   9.760  0.00  0.00    -0.348 OA
BRANCH   7   8
HETATM    8  C   UNK N   1      34.515  15.506  10.181  0.00  0.00     0.292 C 
HETATM    9  O   UNK N   1      34.584  16.902   9.965  0.00  0.00    -0.348 OA
HETATM   10  C   UNK N   1      33.577  17.232   9.034  0.00  0.00     0.180 C 
HETATM   11  C   UNK N   1      32.892  15.943   8.605  0.00  0.00     0.189 C 
HETATM   12  C   UNK N   1      33.169  14.955   9.707  0.00  0.00     0.205 C 
BRANCH  10  13
HETATM   13  C   UNK N   1      34.196  17.983   7.858  0.00  0.00     0.198 C 
BRANCH  13  14
HETATM   14  O   UNK N   1      34.978  19.060   8.278  0.00  0.00    -0.398 OA
HETATM   15  H   UNK N   1      34.915  20.027   8.249  0.00  0.00     0.209 HD
ENDBRANCH  13  14
ENDBRANCH  10  13
BRANCH  11  16
HETATM   16  O   UNK N   1      31.554  16.056   8.130  0.00  0.00    -0.348 OA
BRANCH  16  17
HETATM   17  C   UNK N   1      31.136  17.413   8.102  0.00  0.00     0.285 C 
HETATM   18  O   UNK N   1      30.951  17.886   6.779  0.00  0.00    -0.350 OA
HETATM   19  C   UNK N   1      29.972  17.092   6.142  0.00  0.00     0.173 C 
HETATM   20  C   UNK N   1      28.593  17.347   6.757  0.00  0.00     0.179 C 
HETATM   21  C   UNK N   1      28.667  16.957   8.237  0.00  0.00     0.176 C 
HETATM   22  C   UNK N   1      29.854  17.648   8.919  0.00  0.00     0.161 C 
BRANCH  19  23
HETATM   23  C   UNK N   1      29.991  17.351   4.645  0.00  0.00     0.145 C 
BRANCH  23  24
HETATM   24  N   UNK N   1      31.296  17.847   4.246  0.00  0.00    -0.428 N 
HETATM   25  H   UNK N   1      32.216  17.901   4.684  0.00  0.00     0.150 HD
HETATM   26  H   UNK N   1      31.293  18.233   3.301  0.00  0.00     0.150 HD
ENDBRANCH  23  24
ENDBRANCH  19  23
BRANCH  20  27
HETATM   27  O   UNK N   1      28.246  18.695   6.618  0.00  0.00    -0.390 OA
HETATM   28  H   UNK N   1      28.604  19.591   6.520  0.00  0.00     0.210 HD
ENDBRANCH  20  27
BRANCH  21  29
HETATM   29  O   UNK N   1      27.471  17.271   8.883  0.00  0.00    -0.391 OA
HETATM   30  H   UNK N   1      27.342  18.108   9.358  0.00  0.00     0.210 HD
ENDBRANCH  21  29
BRANCH  22  31
HETATM   31  N   UNK N   1      30.013  17.168  10.281  0.00  0.00    -0.420 N 
HETATM   32  H   UNK N   1      30.759  17.317  10.963  0.00  0.00     0.150 HD
HETATM   33  H   UNK N   1      29.249  16.581  10.614  0.00  0.00     0.150 HD
ENDBRANCH  22  31
ENDBRANCH  16  17
ENDBRANCH  11  16
BRANCH  12  34
HETATM   34  O   UNK N   1      32.250  15.109  10.746  0.00  0.00    -0.388 OA
HETATM   35  H   UNK N   1      32.306  14.874  11.686  0.00  0.00     0.210 HD
ENDBRANCH  12  34
ENDBRANCH   7   8
ENDBRANCH   1   7
BRANCH   2  36
HETATM   36  O   UNK N   1      37.197  13.433  12.271  0.00  0.00    -0.349 OA
BRANCH  36  37
HETATM   37  C   UNK N   1      36.168  12.798  13.015  0.00  0.00     0.285 C 
HETATM   38  O   UNK N   1      35.748  11.588  12.443  0.00  0.00    -0.349 OA
HETATM   39  C   UNK N   1      34.472  11.294  12.961  0.00  0.00     0.179 C 
HETATM   40  C   UNK N   1      34.592  10.960  14.455  0.00  0.00     0.180 C 
HETATM   41  C   UNK N   1      35.175  12.172  15.183  0.00  0.00     0.176 C 
HETATM   42  C   UNK N   1      36.463  12.649  14.510  0.00  0.00     0.161 C 
BRANCH  39  43
HETATM   43  C   UNK N   1      33.896  10.106  12.207  0.00  0.00     0.198 C 
BRANCH  43  44
HETATM   44  O   UNK N   1      33.259  10.540  11.044  0.00  0.00    -0.398 OA
HETATM   45  H   UNK N   1      33.266  11.385  10.567  0.00  0.00     0.209 HD
ENDBRANCH  43  44
ENDBRANCH  39  43
BRANCH  40  46
HETATM   46  O   UNK N   1      33.333  10.664  14.985  0.00  0.00    -0.390 OA
HETATM   47  H   UNK N   1      32.818  11.289  15.519  0.00  0.00     0.210 HD
ENDBRANCH  40  46
BRANCH  41  48
HETATM   48  O   UNK N   1      35.415  11.864  16.523  0.00  0.00    -0.391 OA
HETATM   49  H   UNK N   1      34.852  11.495  17.222  0.00  0.00     0.210 HD
ENDBRANCH  41  48
BRANCH  42  50
HETATM   50  N   UNK N   1      36.858  13.929  15.074  0.00  0.00    -0.420 N 
HETATM   51  H   UNK N   1      37.747  14.371  15.302  0.00  0.00     0.150 HD
HETATM   52  H   UNK N   1      36.058  14.522  15.292  0.00  0.00     0.150 HD
ENDBRANCH  42  50
ENDBRANCH  36  37
ENDBRANCH   2  36
BRANCH   4  53
HETATM   53  O   UNK N   1      35.581  11.237   9.360  0.00  0.00    -0.391 OA
HETATM   54  H   UNK N   1      35.667  10.271   9.384  0.00  0.00     0.210 HD
ENDBRANCH   4  53
BRANCH   3  55
HETATM   55  N   UNK N   1      38.648  14.654   9.541  0.00  0.00    -0.423 N 
HETATM   56  H   UNK N   1      39.150  15.476   9.205  0.00  0.00     0.150 HD
HETATM   57  H   UNK N   1      37.696  15.020   9.541  0.00  0.00     0.150 HD
ENDBRANCH   3  55
BRANCH   5  58
HETATM   58  N   UNK N   1      36.848  11.850   6.876  0.00  0.00    -0.423 N 
HETATM   59  H   UNK N   1      37.612  11.218   6.636  0.00  0.00     0.150 HD
HETATM   60  H   UNK N   1      36.007  11.876   6.301  0.00  0.00     0.150 HD
ENDBRANCH   5  58
TORSDOF 22
ENDMDL
MODEL 8
REMARK VINA RESULT:      -6.5      3.077      8.546
REMARK  22 active torsions:
REMARK  status: ('A' for Active; 'I' for Inactive)
REMARK    1  A    between atoms: C_20  and  O_1 
REMARK    2  A    between atoms: C_26  and  O_1 
REMARK    3  A    between atoms: C_21  and  O_2 
REMARK    4  A    between atoms: C_30  and  O_2 
REMARK    5  A    between atoms: C_27  and  O_4 
REMARK    6  A    between atoms: C_33  and  O_4 
REMARK    7  A    between atoms: C_23  and  O_5 
REMARK    8  A    between atoms: C_28  and  O_8 
REMARK    9  A    between atoms: C_32  and  O_9 
REMARK   10  A    between atoms: C_34  and  O_10 
REMARK   11  A    between atoms: C_37  and  O_11 
REMARK   12  A    between atoms: O_12  and  C_38 
REMARK   13  A    between atoms: C_39  and  O_13 
REMARK   14  A    between atoms: O_14  and  C_41 
REMARK   15  A    between atoms: C_22  and  N_15 
REMARK   16  A    between atoms: C_24  and  N_16 
REMARK   17  A    between atoms: C_31  and  N_17 
REMARK   18  A    between atoms: C_35  and  N_18 
REMARK   19  A    between atoms: N_19  and  C_42 
REMARK   20  A    between atoms: C_29  and  C_38 
REMARK   21  A    between atoms: C_36  and  C_41 
REMARK   22  A    between atoms: C_40  and  C_42 
ROOT
HETATM    1  C   UNK N   1      35.101  14.339   7.173  0.00  0.00     0.186 C 
HETATM    2  C   UNK N   1      36.357  13.594   7.660  0.00  0.00     0.178 C 
HETATM    3  C   UNK N   1      37.410  13.215   6.598  0.00  0.00     0.107 C 
HETATM    4  C   UNK N   1      34.505  13.516   6.021  0.00  0.00     0.172 C 
HETATM    5  C   UNK N   1      35.537  13.238   4.918  0.00  0.00     0.107 C 
HETATM    6  C   UNK N   1      36.723  12.445   5.473  0.00  0.00     0.054 C 
ENDROOT
BRANCH   1   7
HETATM    7  O   UNK N   1      35.458  15.636   6.749  0.00  0.00    -0.348 OA
BRANCH   7   8
HETATM    8  C   UNK N   1      34.561  16.644   7.200  0.00  0.00     0.292 C 
HETATM    9  O   UNK N   1      34.201  17.523   6.152  0.00  0.00    -0.348 OA
HETATM   10  C   UNK N   1      32.811  17.391   5.953  0.00  0.00     0.180 C 
HETATM   11  C   UNK N   1      32.300  16.312   6.896  0.00  0.00     0.189 C 
HETATM   12  C   UNK N   1      33.324  16.225   7.998  0.00  0.00     0.205 C 
BRANCH  10  13
HETATM   13  C   UNK N   1      32.535  17.062   4.487  0.00  0.00     0.198 C 
BRANCH  13  14
HETATM   14  O   UNK N   1      31.738  18.030   3.875  0.00  0.00    -0.398 OA
HETATM   15  H   UNK N   1      31.264  18.828   4.155  0.00  0.00     0.209 HD
ENDBRANCH  13  14
ENDBRANCH  10  13
BRANCH  11  16
HETATM   16  O   UNK N   1      30.927  16.381   7.265  0.00  0.00    -0.348 OA
BRANCH  16  17
HETATM   17  C   UNK N   1      30.414  17.692   7.079  0.00  0.00     0.285 C 
HETATM   18  O   UNK N   1      29.639  17.798   5.897  0.00  0.00    -0.350 OA
HETATM   19  C   UNK N   1      28.559  16.891   5.977  0.00  0.00     0.173 C 
HETATM   20  C   UNK N   1      27.559  17.342   7.044  0.00  0.00     0.179 C 
HETATM   21  C   UNK N   1      28.294  17.363   8.387  0.00  0.00     0.176 C 
HETATM   22  C   UNK N   1      29.589  18.177   8.283  0.00  0.00     0.161 C 
BRANCH  19  23
HETATM   23  C   UNK N   1      27.912  16.738   4.610  0.00  0.00     0.145 C 
BRANCH  23  24
HETATM   24  N   UNK N   1      28.779  17.296   3.587  0.00  0.00    -0.428 N 
HETATM   25  H   UNK N   1      28.915  18.220   3.178  0.00  0.00     0.150 HD
HETATM   26  H   UNK N   1      29.400  16.596   3.181  0.00  0.00     0.150 HD
ENDBRANCH  23  24
ENDBRANCH  19  23
BRANCH  20  27
HETATM   27  O   UNK N   1      27.064  18.614   6.732  0.00  0.00    -0.390 OA
HETATM   28  H   UNK N   1      26.299  19.202   6.823  0.00  0.00     0.210 HD
ENDBRANCH  20  27
BRANCH  21  29
HETATM   29  O   UNK N   1      27.466  17.875   9.387  0.00  0.00    -0.391 OA
HETATM   30  H   UNK N   1      27.706  18.656   9.911  0.00  0.00     0.210 HD
ENDBRANCH  21  29
BRANCH  22  31
HETATM   31  N   UNK N   1      30.360  18.075   9.511  0.00  0.00    -0.420 N 
HETATM   32  H   UNK N   1      30.100  17.745  10.441  0.00  0.00     0.150 HD
HETATM   33  H   UNK N   1      31.326  18.388   9.429  0.00  0.00     0.150 HD
ENDBRANCH  22  31
ENDBRANCH  16  17
ENDBRANCH  11  16
BRANCH  12  34
HETATM   34  O   UNK N   1      33.085  17.200   8.966  0.00  0.00    -0.388 OA
HETATM   35  H   UNK N   1      33.606  17.974   9.233  0.00  0.00     0.210 HD
ENDBRANCH  12  34
ENDBRANCH   7   8
ENDBRANCH   1   7
BRANCH   2  36
HETATM   36  O   UNK N   1      36.750  13.703   9.016  0.00  0.00    -0.349 OA
BRANCH  36  37
HETATM   37  C   UNK N   1      35.944  12.965   9.921  0.00  0.00     0.285 C 
HETATM   38  O   UNK N   1      35.265  11.902   9.306  0.00  0.00    -0.349 OA
HETATM   39  C   UNK N   1      34.186  11.550  10.139  0.00  0.00     0.179 C 
HETATM   40  C   UNK N   1      34.723  10.926  11.435  0.00  0.00     0.180 C 
HETATM   41  C   UNK N   1      35.604  11.955  12.145  0.00  0.00     0.176 C 
HETATM   42  C   UNK N   1      36.664  12.518  11.197  0.00  0.00     0.161 C 
BRANCH  39  43
HETATM   43  C   UNK N   1      33.304  10.550   9.406  0.00  0.00     0.198 C 
BRANCH  43  44
HETATM   44  O   UNK N   1      31.958  10.851   9.618  0.00  0.00    -0.398 OA
HETATM   45  H   UNK N   1      31.138  10.388   9.388  0.00  0.00     0.209 HD
ENDBRANCH  43  44
ENDBRANCH  39  43
BRANCH  40  46
HETATM   46  O   UNK N   1      33.662  10.569  12.273  0.00  0.00    -0.390 OA
HETATM   47  H   UNK N   1      32.919  10.015  11.986  0.00  0.00     0.210 HD
ENDBRANCH  40  46
BRANCH  41  48
HETATM   48  O   UNK N   1      36.211  11.384  13.264  0.00  0.00    -0.391 OA
HETATM   49  H   UNK N   1      35.947  10.664  13.858  0.00  0.00     0.210 HD
ENDBRANCH  41  48
BRANCH  42  50
HETATM   50  N   UNK N   1      37.323  13.650  11.824  0.00  0.00    -0.420 N 
HETATM   51  H   UNK N   1      37.618  13.876  12.773  0.00  0.00     0.150 HD
HETATM   52  H   UNK N   1      37.542  14.391  11.160  0.00  0.00     0.150 HD
ENDBRANCH  42  50
ENDBRANCH  36  37
ENDBRANCH   2  36
BRANCH   4  53
HETATM   53  O   UNK N   1      33.972  12.320   6.511  0.00  0.00    -0.391 OA
HETATM   54  H   UNK N   1      33.538  11.689   7.105  0.00  0.00     0.210 HD
ENDBRANCH   4  53
BRANCH   3  55
HETATM   55  N   UNK N   1      38.044  14.397   6.033  0.00  0.00    -0.423 N 
HETATM   56  H   UNK N   1      38.748  14.997   5.604  0.00  0.00     0.150 HD
HETATM   57  H   UNK N   1      37.280  15.066   6.130  0.00  0.00     0.150 HD
ENDBRANCH   3  55
BRANCH   5  58
HETATM   58  N   UNK N   1      34.921  12.506   3.825  0.00  0.00    -0.423 N 
HETATM   59  H   UNK N   1      34.197  11.814   4.019  0.00  0.00     0.150 HD
HETATM   60  H   UNK N   1      35.212  12.684   2.864  0.00  0.00     0.150 HD
ENDBRANCH   5  58
TORSDOF 22
ENDMDL
MODEL 9
REMARK VINA RESULT:      -6.4      3.187      5.900
REMARK  22 active torsions:
REMARK  status: ('A' for Active; 'I' for Inactive)
REMARK    1  A    between atoms: C_20  and  O_1 
REMARK    2  A    between atoms: C_26  and  O_1 
REMARK    3  A    between atoms: C_21  and  O_2 
REMARK    4  A    between atoms: C_30  and  O_2 
REMARK    5  A    between atoms: C_27  and  O_4 
REMARK    6  A    between atoms: C_33  and  O_4 
REMARK    7  A    between atoms: C_23  and  O_5 
REMARK    8  A    between atoms: C_28  and  O_8 
REMARK    9  A    between atoms: C_32  and  O_9 
REMARK   10  A    between atoms: C_34  and  O_10 
REMARK   11  A    between atoms: C_37  and  O_11 
REMARK   12  A    between atoms: O_12  and  C_38 
REMARK   13  A    between atoms: C_39  and  O_13 
REMARK   14  A    between atoms: O_14  and  C_41 
REMARK   15  A    between atoms: C_22  and  N_15 
REMARK   16  A    between atoms: C_24  and  N_16 
REMARK   17  A    between atoms: C_31  and  N_17 
REMARK   18  A    between atoms: C_35  and  N_18 
REMARK   19  A    between atoms: N_19  and  C_42 
REMARK   20  A    between atoms: C_29  and  C_38 
REMARK   21  A    between atoms: C_36  and  C_41 
REMARK   22  A    between atoms: C_40  and  C_42 
ROOT
HETATM    1  C   UNK N   1      32.241  15.161   7.517  0.00  0.00     0.186 C 
HETATM    2  C   UNK N   1      31.988  16.287   6.497  0.00  0.00     0.178 C 
HETATM    3  C   UNK N   1      33.146  17.273   6.233  0.00  0.00     0.107 C 
HETATM    4  C   UNK N   1      32.756  15.824   8.804  0.00  0.00     0.172 C 
HETATM    5  C   UNK N   1      33.976  16.719   8.543  0.00  0.00     0.107 C 
HETATM    6  C   UNK N   1      33.623  17.844   7.566  0.00  0.00     0.054 C 
ENDROOT
BRANCH   1   7
HETATM    7  O   UNK N   1      33.185  14.254   6.991  0.00  0.00    -0.348 OA
BRANCH   7   8
HETATM    8  C   UNK N   1      33.056  12.938   7.518  0.00  0.00     0.292 C 
HETATM    9  O   UNK N   1      33.637  11.978   6.657  0.00  0.00    -0.348 OA
HETATM   10  C   UNK N   1      34.702  11.376   7.359  0.00  0.00     0.180 C 
HETATM   11  C   UNK N   1      34.821  12.061   8.713  0.00  0.00     0.189 C 
HETATM   12  C   UNK N   1      33.473  12.682   8.967  0.00  0.00     0.205 C 
BRANCH  10  13
HETATM   13  C   UNK N   1      35.984  11.487   6.535  0.00  0.00     0.198 C 
BRANCH  13  14
HETATM   14  O   UNK N   1      36.976  10.619   6.993  0.00  0.00    -0.398 OA
HETATM   15  H   UNK N   1      37.285   9.727   6.772  0.00  0.00     0.209 HD
ENDBRANCH  13  14
ENDBRANCH  10  13
BRANCH  11  16
HETATM   16  O   UNK N   1      35.418  11.306   9.762  0.00  0.00    -0.348 OA
BRANCH  16  17
HETATM   17  C   UNK N   1      36.685  11.839  10.117  0.00  0.00     0.285 C 
HETATM   18  O   UNK N   1      36.576  12.898  11.053  0.00  0.00    -0.350 OA
HETATM   19  C   UNK N   1      35.940  12.413  12.218  0.00  0.00     0.173 C 
HETATM   20  C   UNK N   1      36.857  11.437  12.961  0.00  0.00     0.179 C 
HETATM   21  C   UNK N   1      37.139  10.262  12.021  0.00  0.00     0.176 C 
HETATM   22  C   UNK N   1      37.642  10.764  10.662  0.00  0.00     0.161 C 
BRANCH  19  23
HETATM   23  C   UNK N   1      35.510  13.578  13.093  0.00  0.00     0.145 C 
BRANCH  23  24
HETATM   24  N   UNK N   1      36.567  14.572  13.148  0.00  0.00    -0.428 N 
HETATM   25  H   UNK N   1      36.684  15.526  12.806  0.00  0.00     0.150 HD
HETATM   26  H   UNK N   1      37.391  14.236  13.648  0.00  0.00     0.150 HD
ENDBRANCH  23  24
ENDBRANCH  19  23
BRANCH  20  27
HETATM   27  O   UNK N   1      38.047  12.078  13.324  0.00  0.00    -0.390 OA
HETATM   28  H   UNK N   1      38.905  11.951  13.757  0.00  0.00     0.210 HD
ENDBRANCH  20  27
BRANCH  21  29
HETATM   29  O   UNK N   1      38.062   9.388  12.598  0.00  0.00    -0.391 OA
HETATM   30  H   UNK N   1      37.806   8.731  13.266  0.00  0.00     0.210 HD
ENDBRANCH  21  29
BRANCH  22  31
HETATM   31  N   UNK N   1      37.770   9.663   9.723  0.00  0.00    -0.420 N 
HETATM   32  H   UNK N   1      38.544   9.023   9.540  0.00  0.00     0.150 HD
HETATM   33  H   UNK N   1      36.944   9.500   9.148  0.00  0.00     0.150 HD
ENDBRANCH  22  31
ENDBRANCH  16  17
ENDBRANCH  11  16
BRANCH  12  34
HETATM   34  O   UNK N   1      32.595  11.742   9.508  0.00  0.00    -0.388 OA
HETATM   35  H   UNK N   1      32.726  10.810   9.745  0.00  0.00     0.210 HD
ENDBRANCH  12  34
ENDBRANCH   7   8
ENDBRANCH   1   7
BRANCH   2  36
HETATM   36  O   UNK N   1      30.979  16.127   5.518  0.00  0.00    -0.349 OA
BRANCH  36  37
HETATM   37  C   UNK N   1      29.833  16.940   5.719  0.00  0.00     0.285 C 
HETATM   38  O   UNK N   1      29.856  17.622   6.945  0.00  0.00    -0.349 OA
HETATM   39  C   UNK N   1      28.534  18.002   7.244  0.00  0.00     0.179 C 
HETATM   40  C   UNK N   1      28.072  19.075   6.248  0.00  0.00     0.180 C 
HETATM   41  C   UNK N   1      28.131  18.490   4.836  0.00  0.00     0.176 C 
HETATM   42  C   UNK N   1      29.502  17.875   4.553  0.00  0.00     0.161 C 
BRANCH  39  43
HETATM   43  C   UNK N   1      28.489  18.553   8.661  0.00  0.00     0.198 C 
BRANCH  43  44
HETATM   44  O   UNK N   1      27.342  18.101   9.315  0.00  0.00    -0.398 OA
HETATM   45  H   UNK N   1      26.724  17.376   9.132  0.00  0.00     0.209 HD
ENDBRANCH  43  44
ENDBRANCH  39  43
BRANCH  40  46
HETATM   46  O   UNK N   1      26.760  19.464   6.533  0.00  0.00    -0.390 OA
HETATM   47  H   UNK N   1      26.014  18.844   6.566  0.00  0.00     0.210 HD
ENDBRANCH  40  46
BRANCH  41  48
HETATM   48  O   UNK N   1      27.836  19.473   3.890  0.00  0.00    -0.391 OA
HETATM   49  H   UNK N   1      27.312  20.287   3.933  0.00  0.00     0.210 HD
ENDBRANCH  41  48
BRANCH  42  50
HETATM   50  N   UNK N   1      29.450  17.127   3.309  0.00  0.00    -0.420 N 
HETATM   51  H   UNK N   1      28.725  16.619   2.804  0.00  0.00     0.150 HD
HETATM   52  H   UNK N   1      30.349  17.106   2.828  0.00  0.00     0.150 HD
ENDBRANCH  42  50
ENDBRANCH  36  37
ENDBRANCH   2  36
BRANCH   4  53
HETATM   53  O   UNK N   1      31.730  16.553   9.412  0.00  0.00    -0.391 OA
HETATM   54  H   UNK N   1      30.854  16.937   9.575  0.00  0.00     0.210 HD
ENDBRANCH   4  53
BRANCH   3  55
HETATM   55  N   UNK N   1      34.267  16.615   5.581  0.00  0.00    -0.423 N 
HETATM   56  H   UNK N   1      35.042  16.448   4.939  0.00  0.00     0.150 HD
HETATM   57  H   UNK N   1      34.298  15.750   6.121  0.00  0.00     0.150 HD
ENDBRANCH   3  55
BRANCH   5  58
HETATM   58  N   UNK N   1      34.463  17.282   9.790  0.00  0.00    -0.423 N 
HETATM   59  H   UNK N   1      34.700  18.273   9.843  0.00  0.00     0.150 HD
HETATM   60  H   UNK N   1      34.569  16.687  10.611  0.00  0.00     0.150 HD
ENDBRANCH   5  58
TORSDOF 22
ENDMDL
