MODEL 1
REMARK VINA RESULT:      -7.8      0.000      0.000
REMARK  10 active torsions:
REMARK  status: ('A' for Active; 'I' for Inactive)
REMARK    1  A    between atoms: S_1  and  N_8 
REMARK    2  A    between atoms: S_1  and  C_29 
REMARK    3  A    between atoms: O_3  and  C_22 
REMARK       I    between atoms: N_7  and  C_20 
REMARK    4  A    between atoms: C_19  and  N_8 
REMARK    5  A    between atoms: N_10  and  C_34 
REMARK       I    between atoms: N_12  and  C_36 
REMARK       I    between atoms: N_13  and  C_36 
REMARK    6  A    between atoms: C_16  and  C_22 
REMARK    7  A    between atoms: C_19  and  C_20 
REMARK    8  A    between atoms: C_19  and  C_23 
REMARK    9  A    between atoms: C_23  and  C_30 
REMARK   10  A    between atoms: C_30  and  C_34 
ROOT
HETATM    1  C   UNK N   1      20.305  15.589   4.851  0.00  0.00     0.185 C 
ENDROOT
BRANCH   1   2
HETATM    2  N   UNK N   1      19.156  15.315   4.008  0.00  0.00    -0.301 N 
HETATM    3  H   UNK N   1      18.552  16.017   3.578  0.00  0.00     0.173 HD
BRANCH   2   4
HETATM    4  S   UNK N   1      18.976  13.559   3.851  0.00  0.00     0.261 S 
HETATM    5  O   UNK N   1      18.596  13.337   2.380  0.00  0.00    -0.200 OA
HETATM    6  O   UNK N   1      17.674  13.165   4.570  0.00  0.00    -0.200 OA
BRANCH   4   7
HETATM    7  C   UNK N   1      20.367  12.573   4.407  0.00  0.00     0.106 A 
HETATM    8  C   UNK N   1      21.564  12.514   3.673  0.00  0.00     0.058 A 
HETATM    9  N   UNK N   1      21.711  13.258   2.471  0.00  0.00    -0.388 N 
HETATM   10  C   UNK N   1      22.626  11.714   4.135  0.00  0.00    -0.030 A 
HETATM   11  C   UNK N   1      22.907  13.184   1.661  0.00  0.00     0.124 C 
HETATM   12  H   UNK N   1      20.974  13.842   2.180  0.00  0.00     0.159 HD
HETATM   13  C   UNK N   1      24.128  12.883   2.522  0.00  0.00     0.003 C 
HETATM   14  C   UNK N   1      23.900  11.622   3.350  0.00  0.00     0.046 C 
HETATM   15  C   UNK N   1      25.332  12.689   1.627  0.00  0.00     0.012 C 
HETATM   16  C   UNK N   1      22.490  10.987   5.321  0.00  0.00     0.009 A 
HETATM   17  C   UNK N   1      21.303  11.057   6.053  0.00  0.00     0.002 A 
HETATM   18  C   UNK N   1      20.245  11.844   5.594  0.00  0.00     0.028 A 
ENDBRANCH   4   7
ENDBRANCH   2   4
ENDBRANCH   1   2
BRANCH   1  19
HETATM   19  C   UNK N   1      19.857  15.864   6.283  0.00  0.00     0.244 C 
HETATM   20  O   UNK N   1      18.688  16.179   6.420  0.00  0.00    -0.271 OA
HETATM   21  N   UNK N   1      20.673  15.722   7.393  0.00  0.00    -0.336 N 
HETATM   22  C   UNK N   1      20.225  15.939   8.777  0.00  0.00     0.185 C 
HETATM   23  C   UNK N   1      22.025  15.229   7.269  0.00  0.00     0.127 C 
HETATM   24  C   UNK N   1      20.273  14.600   9.518  0.00  0.00     0.040 C 
HETATM   25  C   UNK N   1      21.679  14.006   9.425  0.00  0.00    -0.015 C 
HETATM   26  C   UNK N   1      22.128  13.877   7.971  0.00  0.00     0.024 C 
HETATM   27  C   UNK N   1      21.695  12.640  10.079  0.00  0.00     0.010 C 
BRANCH  22  28
HETATM   28  C   UNK N   1      18.922  16.673   8.990  0.00  0.00     0.163 C 
HETATM   29  O   UNK N   1      18.917  17.892   9.051  0.00  0.00    -0.648 OA
BRANCH  28  30
HETATM   30  O   UNK N   1      17.769  15.994   9.154  0.00  0.00    -0.775 OA
HETATM   31  H   UNK N   1      16.993  15.877   9.666  0.00  0.00     0.167 HD
ENDBRANCH  28  30
ENDBRANCH  22  28
ENDBRANCH   1  19
BRANCH   1  32
HETATM   32  C   UNK N   1      21.245  16.537   4.126  0.00  0.00     0.037 C 
BRANCH  32  33
HETATM   33  C   UNK N   1      20.574  17.090   2.878  0.00  0.00     0.023 C 
BRANCH  33  34
HETATM   34  C   UNK N   1      20.300  18.583   3.039  0.00  0.00     0.138 C 
BRANCH  34  35
HETATM   35  N   UNK N   1      20.214  19.228   1.747  0.00  0.00    -0.227 N 
HETATM   36  C   UNK N   1      20.594  20.445   1.548  0.00  0.00     0.665 C 
HETATM   37  N   UNK N   1      20.507  20.998   0.253  0.00  0.00    -0.235 N 
HETATM   38  N   UNK N   1      21.105  21.231   2.609  0.00  0.00    -0.235 N 
HETATM   39  H   UNK N   1      20.527  21.971   0.111  0.00  0.00     0.174 HD
HETATM   40  H   UNK N   1      20.425  20.398  -0.523  0.00  0.00     0.174 HD
HETATM   41  H   UNK N   1      21.608  20.841   3.360  0.00  0.00     0.174 HD
HETATM   42  H   UNK N   1      20.952  22.203   2.595  0.00  0.00     0.174 HD
ATOM     43  HN  UNK N   1      19.837  18.700   0.960  1.00  0.00     0.177 HD
ENDBRANCH  34  35
ENDBRANCH  33  34
ENDBRANCH  32  33
ENDBRANCH   1  32
TORSDOF 10
ENDMDL
MODEL 2
REMARK VINA RESULT:      -7.6     11.766     13.913
REMARK  10 active torsions:
REMARK  status: ('A' for Active; 'I' for Inactive)
REMARK    1  A    between atoms: S_1  and  N_8 
REMARK    2  A    between atoms: S_1  and  C_29 
REMARK    3  A    between atoms: O_3  and  C_22 
REMARK       I    between atoms: N_7  and  C_20 
REMARK    4  A    between atoms: C_19  and  N_8 
REMARK    5  A    between atoms: N_10  and  C_34 
REMARK       I    between atoms: N_12  and  C_36 
REMARK       I    between atoms: N_13  and  C_36 
REMARK    6  A    between atoms: C_16  and  C_22 
REMARK    7  A    between atoms: C_19  and  C_20 
REMARK    8  A    between atoms: C_19  and  C_23 
REMARK    9  A    between atoms: C_23  and  C_30 
REMARK   10  A    between atoms: C_30  and  C_34 
ROOT
HETATM    1  C   UNK N   1      34.549  13.523   7.332  0.00  0.00     0.185 C 
ENDROOT
BRANCH   1   2
HETATM    2  N   UNK N   1      34.833  13.422   5.911  0.00  0.00    -0.301 N 
HETATM    3  H   UNK N   1      35.761  13.363   5.492  0.00  0.00     0.173 HD
BRANCH   2   4
HETATM    4  S   UNK N   1      33.296  13.419   5.028  0.00  0.00     0.261 S 
HETATM    5  O   UNK N   1      32.337  12.618   5.920  0.00  0.00    -0.200 OA
HETATM    6  O   UNK N   1      33.462  12.475   3.824  0.00  0.00    -0.200 OA
BRANCH   4   7
HETATM    7  C   UNK N   1      32.670  15.025   4.533  0.00  0.00     0.106 A 
HETATM    8  C   UNK N   1      31.376  15.177   4.007  0.00  0.00     0.058 A 
HETATM    9  N   UNK N   1      30.515  14.054   3.873  0.00  0.00    -0.388 N 
HETATM   10  C   UNK N   1      30.929  16.453   3.614  0.00  0.00    -0.030 A 
HETATM   11  C   UNK N   1      29.197  14.161   3.290  0.00  0.00     0.124 C 
HETATM   12  H   UNK N   1      30.828  13.175   4.187  0.00  0.00     0.159 HD
HETATM   13  C   UNK N   1      28.606  15.546   3.530  0.00  0.00     0.003 C 
HETATM   14  C   UNK N   1      29.561  16.627   3.029  0.00  0.00     0.046 C 
HETATM   15  C   UNK N   1      27.287  15.659   2.799  0.00  0.00     0.012 C 
HETATM   16  C   UNK N   1      31.769  17.562   3.752  0.00  0.00     0.009 A 
HETATM   17  C   UNK N   1      33.051  17.408   4.285  0.00  0.00     0.002 A 
HETATM   18  C   UNK N   1      33.499  16.143   4.671  0.00  0.00     0.028 A 
ENDBRANCH   4   7
ENDBRANCH   2   4
ENDBRANCH   1   2
BRANCH   1  19
HETATM   19  C   UNK N   1      34.488  14.986   7.756  0.00  0.00     0.244 C 
HETATM   20  O   UNK N   1      35.475  15.654   7.498  0.00  0.00    -0.271 OA
HETATM   21  N   UNK N   1      33.385  15.579   8.346  0.00  0.00    -0.336 N 
HETATM   22  C   UNK N   1      33.309  17.002   8.709  0.00  0.00     0.185 C 
HETATM   23  C   UNK N   1      32.158  14.842   8.548  0.00  0.00     0.127 C 
HETATM   24  C   UNK N   1      32.247  17.670   7.832  0.00  0.00     0.040 C 
HETATM   25  C   UNK N   1      30.913  16.938   7.985  0.00  0.00    -0.015 C 
HETATM   26  C   UNK N   1      31.064  15.450   7.675  0.00  0.00     0.024 C 
HETATM   27  C   UNK N   1      29.892  17.546   7.045  0.00  0.00     0.010 C 
BRANCH  22  28
HETATM   28  C   UNK N   1      34.598  17.787   8.757  0.00  0.00     0.163 C 
HETATM   29  O   UNK N   1      35.286  17.761   9.765  0.00  0.00    -0.648 OA
BRANCH  28  30
HETATM   30  O   UNK N   1      34.979  18.550   7.712  0.00  0.00    -0.775 OA
HETATM   31  H   UNK N   1      34.727  19.181   7.067  0.00  0.00     0.167 HD
ENDBRANCH  28  30
ENDBRANCH  22  28
ENDBRANCH   1  19
BRANCH   1  32
HETATM   32  C   UNK N   1      35.406  12.521   8.086  0.00  0.00     0.037 C 
BRANCH  32  33
HETATM   33  C   UNK N   1      34.624  11.932   9.250  0.00  0.00     0.023 C 
BRANCH  33  34
HETATM   34  C   UNK N   1      35.328  12.235  10.571  0.00  0.00     0.138 C 
BRANCH  34  35
HETATM   35  N   UNK N   1      35.435  13.662  10.778  0.00  0.00    -0.227 N 
HETATM   36  C   UNK N   1      36.518  14.228  11.190  0.00  0.00     0.665 C 
HETATM   37  N   UNK N   1      36.557  15.630  11.341  0.00  0.00    -0.235 N 
HETATM   38  N   UNK N   1      37.673  13.463  11.487  0.00  0.00    -0.235 N 
HETATM   39  H   UNK N   1      37.245  16.066  11.893  0.00  0.00     0.174 HD
HETATM   40  H   UNK N   1      35.882  16.183  10.885  0.00  0.00     0.174 HD
HETATM   41  H   UNK N   1      37.889  12.630  11.010  0.00  0.00     0.174 HD
HETATM   42  H   UNK N   1      38.279  13.776  12.195  0.00  0.00     0.174 HD
ATOM     43  HN  UNK N   1      34.620  14.246  10.590  1.00  0.00     0.177 HD
ENDBRANCH  34  35
ENDBRANCH  33  34
ENDBRANCH  32  33
ENDBRANCH   1  32
TORSDOF 10
ENDMDL
MODEL 3
REMARK VINA RESULT:      -7.5     15.095     16.610
REMARK  10 active torsions:
REMARK  status: ('A' for Active; 'I' for Inactive)
REMARK    1  A    between atoms: S_1  and  N_8 
REMARK    2  A    between atoms: S_1  and  C_29 
REMARK    3  A    between atoms: O_3  and  C_22 
REMARK       I    between atoms: N_7  and  C_20 
REMARK    4  A    between atoms: C_19  and  N_8 
REMARK    5  A    between atoms: N_10  and  C_34 
REMARK       I    between atoms: N_12  and  C_36 
REMARK       I    between atoms: N_13  and  C_36 
REMARK    6  A    between atoms: C_16  and  C_22 
REMARK    7  A    between atoms: C_19  and  C_20 
REMARK    8  A    between atoms: C_19  and  C_23 
REMARK    9  A    between atoms: C_23  and  C_30 
REMARK   10  A    between atoms: C_30  and  C_34 
ROOT
HETATM    1  C   UNK N   1      27.151  25.643  -4.148  0.00  0.00     0.185 C 
ENDROOT
BRANCH   1   2
HETATM    2  N   UNK N   1      26.122  24.803  -4.735  0.00  0.00    -0.301 N 
HETATM    3  H   UNK N   1      25.388  24.314  -4.222  0.00  0.00     0.173 HD
BRANCH   2   4
HETATM    4  S   UNK N   1      26.354  24.771  -6.492  0.00  0.00     0.261 S 
HETATM    5  O   UNK N   1      27.614  25.615  -6.733  0.00  0.00    -0.200 OA
HETATM    6  O   UNK N   1      25.263  25.659  -7.115  0.00  0.00    -0.200 OA
BRANCH   4   7
HETATM    7  C   UNK N   1      26.403  23.146  -7.249  0.00  0.00     0.106 A 
HETATM    8  C   UNK N   1      27.577  22.373  -7.253  0.00  0.00     0.058 A 
HETATM    9  N   UNK N   1      28.760  22.856  -6.632  0.00  0.00    -0.388 N 
HETATM   10  C   UNK N   1      27.577  21.110  -7.874  0.00  0.00    -0.030 A 
HETATM   11  C   UNK N   1      30.000  22.113  -6.658  0.00  0.00     0.124 C 
HETATM   12  H   UNK N   1      28.734  23.725  -6.169  0.00  0.00     0.159 HD
HETATM   13  C   UNK N   1      29.735  20.614  -6.724  0.00  0.00     0.003 C 
HETATM   14  C   UNK N   1      28.827  20.285  -7.907  0.00  0.00     0.046 C 
HETATM   15  C   UNK N   1      31.050  19.882  -6.878  0.00  0.00     0.012 C 
HETATM   16  C   UNK N   1      26.413  20.627  -8.479  0.00  0.00     0.009 A 
HETATM   17  C   UNK N   1      25.246  21.394  -8.464  0.00  0.00     0.002 A 
HETATM   18  C   UNK N   1      25.243  22.650  -7.854  0.00  0.00     0.028 A 
ENDBRANCH   4   7
ENDBRANCH   2   4
ENDBRANCH   1   2
BRANCH   1  19
HETATM   19  C   UNK N   1      28.333  24.793  -3.696  0.00  0.00     0.244 C 
HETATM   20  O   UNK N   1      28.082  23.625  -3.450  0.00  0.00    -0.271 OA
HETATM   21  N   UNK N   1      29.635  25.255  -3.610  0.00  0.00    -0.336 N 
HETATM   22  C   UNK N   1      30.782  24.421  -3.221  0.00  0.00     0.185 C 
HETATM   23  C   UNK N   1      29.980  26.599  -4.014  0.00  0.00     0.127 C 
HETATM   24  C   UNK N   1      31.716  24.289  -4.427  0.00  0.00     0.040 C 
HETATM   25  C   UNK N   1      32.122  25.677  -4.923  0.00  0.00    -0.015 C 
HETATM   26  C   UNK N   1      30.895  26.530  -5.235  0.00  0.00     0.024 C 
HETATM   27  C   UNK N   1      32.969  25.540  -6.171  0.00  0.00     0.010 C 
BRANCH  22  28
HETATM   28  C   UNK N   1      30.496  23.093  -2.561  0.00  0.00     0.163 C 
HETATM   29  O   UNK N   1      30.397  23.029  -1.346  0.00  0.00    -0.648 OA
BRANCH  28  30
HETATM   30  O   UNK N   1      30.389  21.967  -3.297  0.00  0.00    -0.775 OA
HETATM   31  H   UNK N   1      30.833  21.252  -3.707  0.00  0.00     0.167 HD
ENDBRANCH  28  30
ENDBRANCH  22  28
ENDBRANCH   1  19
BRANCH   1  32
HETATM   32  C   UNK N   1      26.503  26.650  -3.213  0.00  0.00     0.037 C 
BRANCH  32  33
HETATM   33  C   UNK N   1      25.624  27.608  -4.001  0.00  0.00     0.023 C 
BRANCH  33  34
HETATM   34  C   UNK N   1      26.467  28.726  -4.610  0.00  0.00     0.138 C 
BRANCH  34  35
HETATM   35  N   UNK N   1      26.920  28.361  -5.934  0.00  0.00    -0.227 N 
HETATM   36  C   UNK N   1      27.928  28.926  -6.506  0.00  0.00     0.665 C 
HETATM   37  N   UNK N   1      28.330  28.497  -7.789  0.00  0.00    -0.235 N 
HETATM   38  N   UNK N   1      28.643  29.966  -5.864  0.00  0.00    -0.235 N 
HETATM   39  H   UNK N   1      28.901  29.059  -8.361  0.00  0.00     0.174 HD
HETATM   40  H   UNK N   1      28.035  27.617  -8.118  0.00  0.00     0.174 HD
HETATM   41  H   UNK N   1      28.744  30.009  -4.886  0.00  0.00     0.174 HD
HETATM   42  H   UNK N   1      29.053  30.670  -6.415  0.00  0.00     0.174 HD
ATOM     43  HN  UNK N   1      26.421  27.626  -6.437  1.00  0.00     0.177 HD
ENDBRANCH  34  35
ENDBRANCH  33  34
ENDBRANCH  32  33
ENDBRANCH   1  32
TORSDOF 10
ENDMDL
MODEL 4
REMARK VINA RESULT:      -7.5      5.246      7.342
REMARK  10 active torsions:
REMARK  status: ('A' for Active; 'I' for Inactive)
REMARK    1  A    between atoms: S_1  and  N_8 
REMARK    2  A    between atoms: S_1  and  C_29 
REMARK    3  A    between atoms: O_3  and  C_22 
REMARK       I    between atoms: N_7  and  C_20 
REMARK    4  A    between atoms: C_19  and  N_8 
REMARK    5  A    between atoms: N_10  and  C_34 
REMARK       I    between atoms: N_12  and  C_36 
REMARK       I    between atoms: N_13  and  C_36 
REMARK    6  A    between atoms: C_16  and  C_22 
REMARK    7  A    between atoms: C_19  and  C_20 
REMARK    8  A    between atoms: C_19  and  C_23 
REMARK    9  A    between atoms: C_23  and  C_30 
REMARK   10  A    between atoms: C_30  and  C_34 
ROOT
HETATM    1  C   UNK N   1      25.632  19.130   4.030  0.00  0.00     0.185 C 
ENDROOT
BRANCH   1   2
HETATM    2  N   UNK N   1      26.271  18.214   3.102  0.00  0.00    -0.301 N 
HETATM    3  H   UNK N   1      26.302  18.320   2.088  0.00  0.00     0.173 HD
BRANCH   2   4
HETATM    4  S   UNK N   1      26.986  16.882   4.027  0.00  0.00     0.261 S 
HETATM    5  O   UNK N   1      26.178  16.837   5.332  0.00  0.00    -0.200 OA
HETATM    6  O   UNK N   1      28.360  17.359   4.529  0.00  0.00    -0.200 OA
BRANCH   4   7
HETATM    7  C   UNK N   1      27.098  15.306   3.178  0.00  0.00     0.106 A 
HETATM    8  C   UNK N   1      25.972  14.711   2.584  0.00  0.00     0.058 A 
HETATM    9  N   UNK N   1      24.708  15.360   2.624  0.00  0.00    -0.388 N 
HETATM   10  C   UNK N   1      26.100  13.464   1.942  0.00  0.00    -0.030 A 
HETATM   11  C   UNK N   1      23.517  14.757   2.069  0.00  0.00     0.124 C 
HETATM   12  H   UNK N   1      24.642  16.248   3.043  0.00  0.00     0.159 HD
HETATM   13  C   UNK N   1      23.863  13.841   0.902  0.00  0.00     0.003 C 
HETATM   14  C   UNK N   1      24.903  12.806   1.326  0.00  0.00     0.046 C 
HETATM   15  C   UNK N   1      22.610  13.135   0.433  0.00  0.00     0.012 C 
HETATM   16  C   UNK N   1      27.342  12.826   1.894  0.00  0.00     0.009 A 
HETATM   17  C   UNK N   1      28.461  13.426   2.476  0.00  0.00     0.002 A 
HETATM   18  C   UNK N   1      28.337  14.660   3.118  0.00  0.00     0.028 A 
ENDBRANCH   4   7
ENDBRANCH   2   4
ENDBRANCH   1   2
BRANCH   1  19
HETATM   19  C   UNK N   1      24.278  19.575   3.487  0.00  0.00     0.244 C 
HETATM   20  O   UNK N   1      24.313  20.272   2.487  0.00  0.00    -0.271 OA
HETATM   21  N   UNK N   1      23.062  19.191   4.024  0.00  0.00    -0.336 N 
HETATM   22  C   UNK N   1      21.756  19.581   3.470  0.00  0.00     0.185 C 
HETATM   23  C   UNK N   1      22.991  18.266   5.132  0.00  0.00     0.127 C 
HETATM   24  C   UNK N   1      21.057  18.324   2.946  0.00  0.00     0.040 C 
HETATM   25  C   UNK N   1      20.951  17.286   4.064  0.00  0.00    -0.015 C 
HETATM   26  C   UNK N   1      22.323  16.977   4.661  0.00  0.00     0.024 C 
HETATM   27  C   UNK N   1      20.344  16.012   3.515  0.00  0.00     0.010 C 
BRANCH  22  28
HETATM   28  C   UNK N   1      21.723  20.718   2.476  0.00  0.00     0.163 C 
HETATM   29  O   UNK N   1      21.429  20.497   1.313  0.00  0.00    -0.648 OA
BRANCH  28  30
HETATM   30  O   UNK N   1      22.054  21.970   2.851  0.00  0.00    -0.775 OA
HETATM   31  H   UNK N   1      22.318  22.828   2.580  0.00  0.00     0.167 HD
ENDBRANCH  28  30
ENDBRANCH  22  28
ENDBRANCH   1  19
BRANCH   1  32
HETATM   32  C   UNK N   1      26.655  20.142   4.519  0.00  0.00     0.037 C 
BRANCH  32  33
HETATM   33  C   UNK N   1      26.268  20.655   5.897  0.00  0.00     0.023 C 
BRANCH  33  34
HETATM   34  C   UNK N   1      27.417  20.452   6.882  0.00  0.00     0.138 C 
BRANCH  34  35
HETATM   35  N   UNK N   1      27.983  19.128   6.741  0.00  0.00    -0.227 N 
HETATM   36  C   UNK N   1      28.104  18.313   7.733  0.00  0.00     0.665 C 
HETATM   37  N   UNK N   1      28.639  17.025   7.514  0.00  0.00    -0.235 N 
HETATM   38  N   UNK N   1      27.702  18.688   9.038  0.00  0.00    -0.235 N 
HETATM   39  H   UNK N   1      28.993  16.486   8.257  0.00  0.00     0.174 HD
HETATM   40  H   UNK N   1      28.658  16.660   6.601  0.00  0.00     0.174 HD
HETATM   41  H   UNK N   1      26.954  19.306   9.202  0.00  0.00     0.174 HD
HETATM   42  H   UNK N   1      28.188  18.316   9.809  0.00  0.00     0.174 HD
ATOM     43  HN  UNK N   1      28.299  18.826   5.820  1.00  0.00     0.177 HD
ENDBRANCH  34  35
ENDBRANCH  33  34
ENDBRANCH  32  33
ENDBRANCH   1  32
TORSDOF 10
ENDMDL
MODEL 5
REMARK VINA RESULT:      -7.4      7.317      9.062
REMARK  10 active torsions:
REMARK  status: ('A' for Active; 'I' for Inactive)
REMARK    1  A    between atoms: S_1  and  N_8 
REMARK    2  A    between atoms: S_1  and  C_29 
REMARK    3  A    between atoms: O_3  and  C_22 
REMARK       I    between atoms: N_7  and  C_20 
REMARK    4  A    between atoms: C_19  and  N_8 
REMARK    5  A    between atoms: N_10  and  C_34 
REMARK       I    between atoms: N_12  and  C_36 
REMARK       I    between atoms: N_13  and  C_36 
REMARK    6  A    between atoms: C_16  and  C_22 
REMARK    7  A    between atoms: C_19  and  C_20 
REMARK    8  A    between atoms: C_19  and  C_23 
REMARK    9  A    between atoms: C_23  and  C_30 
REMARK   10  A    between atoms: C_30  and  C_34 
ROOT
HETATM    1  C   UNK N   1      27.023  16.041   3.337  0.00  0.00     0.185 C 
ENDROOT
BRANCH   1   2
HETATM    2  N   UNK N   1      27.426  15.157   4.416  0.00  0.00    -0.301 N 
HETATM    3  H   UNK N   1      26.846  14.432   4.839  0.00  0.00     0.173 HD
BRANCH   2   4
HETATM    4  S   UNK N   1      29.092  15.549   4.875  0.00  0.00     0.261 S 
HETATM    5  O   UNK N   1      29.718  16.137   3.602  0.00  0.00    -0.200 OA
HETATM    6  O   UNK N   1      29.855  14.219   5.010  0.00  0.00    -0.200 OA
BRANCH   4   7
HETATM    7  C   UNK N   1      29.286  16.578   6.330  0.00  0.00     0.106 A 
HETATM    8  C   UNK N   1      30.556  16.890   6.845  0.00  0.00     0.058 A 
HETATM    9  N   UNK N   1      31.731  16.410   6.205  0.00  0.00    -0.388 N 
HETATM   10  C   UNK N   1      30.664  17.687   8.001  0.00  0.00    -0.030 A 
HETATM   11  C   UNK N   1      33.053  16.666   6.732  0.00  0.00     0.124 C 
HETATM   12  H   UNK N   1      31.641  15.885   5.376  0.00  0.00     0.159 HD
HETATM   13  C   UNK N   1      33.088  17.986   7.493  0.00  0.00     0.003 C 
HETATM   14  C   UNK N   1      32.010  18.007   8.574  0.00  0.00     0.046 C 
HETATM   15  C   UNK N   1      34.449  18.155   8.133  0.00  0.00     0.012 C 
HETATM   16  C   UNK N   1      29.512  18.168   8.628  0.00  0.00     0.009 A 
HETATM   17  C   UNK N   1      28.251  17.865   8.108  0.00  0.00     0.002 A 
HETATM   18  C   UNK N   1      28.141  17.069   6.966  0.00  0.00     0.028 A 
ENDBRANCH   4   7
ENDBRANCH   2   4
ENDBRANCH   1   2
BRANCH   1  19
HETATM   19  C   UNK N   1      25.949  17.010   3.820  0.00  0.00     0.244 C 
HETATM   20  O   UNK N   1      24.939  16.498   4.271  0.00  0.00    -0.271 OA
HETATM   21  N   UNK N   1      26.089  18.387   3.820  0.00  0.00    -0.336 N 
HETATM   22  C   UNK N   1      25.072  19.319   4.332  0.00  0.00     0.185 C 
HETATM   23  C   UNK N   1      27.323  19.014   3.407  0.00  0.00     0.127 C 
HETATM   24  C   UNK N   1      25.639  20.024   5.566  0.00  0.00     0.040 C 
HETATM   25  C   UNK N   1      26.959  20.709   5.211  0.00  0.00    -0.015 C 
HETATM   26  C   UNK N   1      27.950  19.716   4.609  0.00  0.00     0.024 C 
HETATM   27  C   UNK N   1      27.560  21.326   6.457  0.00  0.00     0.010 C 
BRANCH  22  28
HETATM   28  C   UNK N   1      23.678  18.785   4.559  0.00  0.00     0.163 C 
HETATM   29  O   UNK N   1      22.852  18.847   3.662  0.00  0.00    -0.648 OA
BRANCH  28  30
HETATM   30  O   UNK N   1      23.322  18.276   5.756  0.00  0.00    -0.775 OA
HETATM   31  H   UNK N   1      22.663  18.216   6.420  0.00  0.00     0.167 HD
ENDBRANCH  28  30
ENDBRANCH  22  28
ENDBRANCH   1  19
BRANCH   1  32
HETATM   32  C   UNK N   1      26.836  15.229   2.067  0.00  0.00     0.037 C 
BRANCH  32  33
HETATM   33  C   UNK N   1      26.202  13.885   2.391  0.00  0.00     0.023 C 
BRANCH  33  34
HETATM   34  C   UNK N   1      24.904  13.706   1.609  0.00  0.00     0.138 C 
BRANCH  34  35
HETATM   35  N   UNK N   1      23.996  14.803   1.867  0.00  0.00    -0.227 N 
HETATM   36  C   UNK N   1      22.959  14.686   2.625  0.00  0.00     0.665 C 
HETATM   37  N   UNK N   1      22.135  15.808   2.854  0.00  0.00    -0.235 N 
HETATM   38  N   UNK N   1      22.639  13.450   3.237  0.00  0.00    -0.235 N 
HETATM   39  H   UNK N   1      21.216  15.707   3.191  0.00  0.00     0.174 HD
HETATM   40  H   UNK N   1      22.487  16.710   2.675  0.00  0.00     0.174 HD
HETATM   41  H   UNK N   1      23.329  12.802   3.510  0.00  0.00     0.174 HD
HETATM   42  H   UNK N   1      21.693  13.230   3.396  0.00  0.00     0.174 HD
ATOM     43  HN  UNK N   1      24.184  15.706   1.432  1.00  0.00     0.177 HD
ENDBRANCH  34  35
ENDBRANCH  33  34
ENDBRANCH  32  33
ENDBRANCH   1  32
TORSDOF 10
ENDMDL
MODEL 6
REMARK VINA RESULT:      -7.3     10.890     12.895
REMARK  10 active torsions:
REMARK  status: ('A' for Active; 'I' for Inactive)
REMARK    1  A    between atoms: S_1  and  N_8 
REMARK    2  A    between atoms: S_1  and  C_29 
REMARK    3  A    between atoms: O_3  and  C_22 
REMARK       I    between atoms: N_7  and  C_20 
REMARK    4  A    between atoms: C_19  and  N_8 
REMARK    5  A    between atoms: N_10  and  C_34 
REMARK       I    between atoms: N_12  and  C_36 
REMARK       I    between atoms: N_13  and  C_36 
REMARK    6  A    between atoms: C_16  and  C_22 
REMARK    7  A    between atoms: C_19  and  C_20 
REMARK    8  A    between atoms: C_19  and  C_23 
REMARK    9  A    between atoms: C_23  and  C_30 
REMARK   10  A    between atoms: C_30  and  C_34 
ROOT
HETATM    1  C   UNK N   1      33.613  15.038   5.539  0.00  0.00     0.185 C 
ENDROOT
BRANCH   1   2
HETATM    2  N   UNK N   1      33.813  15.645   4.236  0.00  0.00    -0.301 N 
HETATM    3  H   UNK N   1      34.656  15.567   3.666  0.00  0.00     0.173 HD
BRANCH   2   4
HETATM    4  S   UNK N   1      32.349  16.544   3.800  0.00  0.00     0.261 S 
HETATM    5  O   UNK N   1      32.526  16.878   2.312  0.00  0.00    -0.200 OA
HETATM    6  O   UNK N   1      32.458  17.937   4.445  0.00  0.00    -0.200 OA
BRANCH   4   7
HETATM    7  C   UNK N   1      30.791  15.749   4.194  0.00  0.00     0.106 A 
HETATM    8  C   UNK N   1      29.631  16.497   4.455  0.00  0.00     0.058 A 
HETATM    9  N   UNK N   1      29.659  17.916   4.392  0.00  0.00    -0.388 N 
HETATM   10  C   UNK N   1      28.432  15.833   4.778  0.00  0.00    -0.030 A 
HETATM   11  C   UNK N   1      28.500  18.723   4.703  0.00  0.00     0.124 C 
HETATM   12  H   UNK N   1      30.495  18.365   4.128  0.00  0.00     0.159 HD
HETATM   13  C   UNK N   1      27.213  17.974   4.379  0.00  0.00     0.003 C 
HETATM   14  C   UNK N   1      27.192  16.619   5.082  0.00  0.00     0.046 C 
HETATM   15  C   UNK N   1      26.028  18.797   4.834  0.00  0.00     0.012 C 
HETATM   16  C   UNK N   1      28.397  14.438   4.833  0.00  0.00     0.009 A 
HETATM   17  C   UNK N   1      29.550  13.697   4.562  0.00  0.00     0.002 A 
HETATM   18  C   UNK N   1      30.743  14.351   4.248  0.00  0.00     0.028 A 
ENDBRANCH   4   7
ENDBRANCH   2   4
ENDBRANCH   1   2
BRANCH   1  19
HETATM   19  C   UNK N   1      33.843  16.066   6.642  0.00  0.00     0.244 C 
HETATM   20  O   UNK N   1      34.842  16.755   6.523  0.00  0.00    -0.271 OA
HETATM   21  N   UNK N   1      32.975  16.280   7.699  0.00  0.00    -0.336 N 
HETATM   22  C   UNK N   1      33.173  17.305   8.734  0.00  0.00     0.185 C 
HETATM   23  C   UNK N   1      31.723  15.563   7.795  0.00  0.00     0.127 C 
HETATM   24  C   UNK N   1      32.061  18.348   8.603  0.00  0.00     0.040 C 
HETATM   25  C   UNK N   1      30.696  17.664   8.687  0.00  0.00    -0.015 C 
HETATM   26  C   UNK N   1      30.572  16.554   7.646  0.00  0.00     0.024 C 
HETATM   27  C   UNK N   1      29.602  18.688   8.464  0.00  0.00     0.010 C 
BRANCH  22  28
HETATM   28  C   UNK N   1      34.543  17.931   8.854  0.00  0.00     0.163 C 
HETATM   29  O   UNK N   1      35.333  17.505   9.680  0.00  0.00    -0.648 OA
BRANCH  28  30
HETATM   30  O   UNK N   1      34.889  18.982   8.083  0.00  0.00    -0.775 OA
HETATM   31  H   UNK N   1      34.679  19.517   7.343  0.00  0.00     0.167 HD
ENDBRANCH  28  30
ENDBRANCH  22  28
ENDBRANCH   1  19
BRANCH   1  32
HETATM   32  C   UNK N   1      34.298  13.682   5.572  0.00  0.00     0.037 C 
BRANCH  32  33
HETATM   33  C   UNK N   1      33.667  12.801   6.638  0.00  0.00     0.023 C 
BRANCH  33  34
HETATM   34  C   UNK N   1      34.650  12.565   7.783  0.00  0.00     0.138 C 
BRANCH  34  35
HETATM   35  N   UNK N   1      34.140  13.123   9.017  0.00  0.00    -0.227 N 
HETATM   36  C   UNK N   1      34.755  14.051   9.668  0.00  0.00     0.665 C 
HETATM   37  N   UNK N   1      34.182  14.568  10.850  0.00  0.00    -0.235 N 
HETATM   38  N   UNK N   1      35.993  14.565   9.211  0.00  0.00    -0.235 N 
HETATM   39  H   UNK N   1      34.723  15.064  11.505  0.00  0.00     0.174 HD
HETATM   40  H   UNK N   1      33.223  14.429  11.021  0.00  0.00     0.174 HD
HETATM   41  H   UNK N   1      36.220  14.619   8.255  0.00  0.00     0.174 HD
HETATM   42  H   UNK N   1      36.649  14.880   9.874  0.00  0.00     0.174 HD
ATOM     43  HN  UNK N   1      33.259  12.769   9.387  1.00  0.00     0.177 HD
ENDBRANCH  34  35
ENDBRANCH  33  34
ENDBRANCH  32  33
ENDBRANCH   1  32
TORSDOF 10
ENDMDL
MODEL 7
REMARK VINA RESULT:      -7.3      3.206      7.426
REMARK  10 active torsions:
REMARK  status: ('A' for Active; 'I' for Inactive)
REMARK    1  A    between atoms: S_1  and  N_8 
REMARK    2  A    between atoms: S_1  and  C_29 
REMARK    3  A    between atoms: O_3  and  C_22 
REMARK       I    between atoms: N_7  and  C_20 
REMARK    4  A    between atoms: C_19  and  N_8 
REMARK    5  A    between atoms: N_10  and  C_34 
REMARK       I    between atoms: N_12  and  C_36 
REMARK       I    between atoms: N_13  and  C_36 
REMARK    6  A    between atoms: C_16  and  C_22 
REMARK    7  A    between atoms: C_19  and  C_20 
REMARK    8  A    between atoms: C_19  and  C_23 
REMARK    9  A    between atoms: C_23  and  C_30 
REMARK   10  A    between atoms: C_30  and  C_34 
ROOT
HETATM    1  C   UNK N   1      21.853  14.466   7.961  0.00  0.00     0.185 C 
ENDROOT
BRANCH   1   2
HETATM    2  N   UNK N   1      20.409  14.615   7.927  0.00  0.00    -0.301 N 
HETATM    3  H   UNK N   1      19.730  13.885   8.145  0.00  0.00     0.173 HD
BRANCH   2   4
HETATM    4  S   UNK N   1      20.025  16.276   7.443  0.00  0.00     0.261 S 
HETATM    5  O   UNK N   1      20.318  17.122   8.691  0.00  0.00    -0.200 OA
HETATM    6  O   UNK N   1      18.493  16.383   7.349  0.00  0.00    -0.200 OA
BRANCH   4   7
HETATM    7  C   UNK N   1      20.827  16.867   5.952  0.00  0.00     0.106 A 
HETATM    8  C   UNK N   1      20.658  16.213   4.720  0.00  0.00     0.058 A 
HETATM    9  N   UNK N   1      19.822  15.068   4.620  0.00  0.00    -0.388 N 
HETATM   10  C   UNK N   1      21.320  16.699   3.576  0.00  0.00    -0.030 A 
HETATM   11  C   UNK N   1      19.663  14.338   3.382  0.00  0.00     0.124 C 
HETATM   12  H   UNK N   1      19.336  14.762   5.420  0.00  0.00     0.159 HD
HETATM   13  C   UNK N   1      19.834  15.260   2.181  0.00  0.00     0.003 C 
HETATM   14  C   UNK N   1      21.168  15.998   2.261  0.00  0.00     0.046 C 
HETATM   15  C   UNK N   1      19.787  14.438   0.911  0.00  0.00     0.012 C 
HETATM   16  C   UNK N   1      22.136  17.829   3.668  0.00  0.00     0.009 A 
HETATM   17  C   UNK N   1      22.293  18.483   4.892  0.00  0.00     0.002 A 
HETATM   18  C   UNK N   1      21.643  18.000   6.030  0.00  0.00     0.028 A 
ENDBRANCH   4   7
ENDBRANCH   2   4
ENDBRANCH   1   2
BRANCH   1  19
HETATM   19  C   UNK N   1      22.340  13.742   6.710  0.00  0.00     0.244 C 
HETATM   20  O   UNK N   1      21.523  13.019   6.166  0.00  0.00    -0.271 OA
HETATM   21  N   UNK N   1      23.598  13.907   6.158  0.00  0.00    -0.336 N 
HETATM   22  C   UNK N   1      24.049  13.247   4.923  0.00  0.00     0.185 C 
HETATM   23  C   UNK N   1      24.541  14.852   6.712  0.00  0.00     0.127 C 
HETATM   24  C   UNK N   1      24.274  14.319   3.854  0.00  0.00     0.040 C 
HETATM   25  C   UNK N   1      25.259  15.367   4.371  0.00  0.00    -0.015 C 
HETATM   26  C   UNK N   1      24.786  15.963   5.695  0.00  0.00     0.024 C 
HETATM   27  C   UNK N   1      25.406  16.473   3.346  0.00  0.00     0.010 C 
BRANCH  22  28
HETATM   28  C   UNK N   1      23.239  12.079   4.411  0.00  0.00     0.163 C 
HETATM   29  O   UNK N   1      22.584  12.200   3.388  0.00  0.00    -0.648 OA
BRANCH  28  30
HETATM   30  O   UNK N   1      23.198  10.917   5.093  0.00  0.00    -0.775 OA
HETATM   31  H   UNK N   1      23.430  10.009   5.112  0.00  0.00     0.167 HD
ENDBRANCH  28  30
ENDBRANCH  22  28
ENDBRANCH   1  19
BRANCH   1  32
HETATM   32  C   UNK N   1      22.277  14.011   9.348  0.00  0.00     0.037 C 
BRANCH  32  33
HETATM   33  C   UNK N   1      21.371  12.890   9.833  0.00  0.00     0.023 C 
BRANCH  33  34
HETATM   34  C   UNK N   1      22.203  11.726  10.364  0.00  0.00     0.138 C 
BRANCH  34  35
HETATM   35  N   UNK N   1      22.381  11.836  11.796  0.00  0.00    -0.227 N 
HETATM   36  C   UNK N   1      23.524  12.081  12.339  0.00  0.00     0.665 C 
HETATM   37  N   UNK N   1      23.616  12.203  13.742  0.00  0.00    -0.235 N 
HETATM   38  N   UNK N   1      24.689  12.237  11.549  0.00  0.00    -0.235 N 
HETATM   39  H   UNK N   1      24.479  12.121  14.208  0.00  0.00     0.174 HD
HETATM   40  H   UNK N   1      22.800  12.374  14.265  0.00  0.00     0.174 HD
HETATM   41  H   UNK N   1      24.663  12.613  10.640  0.00  0.00     0.174 HD
HETATM   42  H   UNK N   1      25.556  11.960  11.923  0.00  0.00     0.174 HD
ATOM     43  HN  UNK N   1      21.569  11.714  12.400  1.00  0.00     0.177 HD
ENDBRANCH  34  35
ENDBRANCH  33  34
ENDBRANCH  32  33
ENDBRANCH   1  32
TORSDOF 10
ENDMDL
MODEL 8
REMARK VINA RESULT:      -7.3     14.360     16.834
REMARK  10 active torsions:
REMARK  status: ('A' for Active; 'I' for Inactive)
REMARK    1  A    between atoms: S_1  and  N_8 
REMARK    2  A    between atoms: S_1  and  C_29 
REMARK    3  A    between atoms: O_3  and  C_22 
REMARK       I    between atoms: N_7  and  C_20 
REMARK    4  A    between atoms: C_19  and  N_8 
REMARK    5  A    between atoms: N_10  and  C_34 
REMARK       I    between atoms: N_12  and  C_36 
REMARK       I    between atoms: N_13  and  C_36 
REMARK    6  A    between atoms: C_16  and  C_22 
REMARK    7  A    between atoms: C_19  and  C_20 
REMARK    8  A    between atoms: C_19  and  C_23 
REMARK    9  A    between atoms: C_23  and  C_30 
REMARK   10  A    between atoms: C_30  and  C_34 
ROOT
HETATM    1  C   UNK N   1      36.091  14.449  12.597  0.00  0.00     0.185 C 
ENDROOT
BRANCH   1   2
HETATM    2  N   UNK N   1      35.140  15.428  12.103  0.00  0.00    -0.301 N 
HETATM    3  H   UNK N   1      34.320  15.768  12.606  0.00  0.00     0.173 HD
BRANCH   2   4
HETATM    4  S   UNK N   1      35.643  15.934  10.480  0.00  0.00     0.261 S 
HETATM    5  O   UNK N   1      37.170  15.767  10.477  0.00  0.00    -0.200 OA
HETATM    6  O   UNK N   1      35.499  17.464  10.412  0.00  0.00    -0.200 OA
BRANCH   4   7
HETATM    7  C   UNK N   1      34.814  15.125   9.112  0.00  0.00     0.106 A 
HETATM    8  C   UNK N   1      33.591  15.603   8.609  0.00  0.00     0.058 A 
HETATM    9  N   UNK N   1      32.987  16.763   9.166  0.00  0.00    -0.388 N 
HETATM   10  C   UNK N   1      32.964  14.929   7.545  0.00  0.00    -0.030 A 
HETATM   11  C   UNK N   1      31.706  17.256   8.711  0.00  0.00     0.124 C 
HETATM   12  H   UNK N   1      33.456  17.246   9.885  0.00  0.00     0.159 HD
HETATM   13  C   UNK N   1      31.481  16.913   7.243  0.00  0.00     0.003 C 
HETATM   14  C   UNK N   1      31.648  15.413   7.015  0.00  0.00     0.046 C 
HETATM   15  C   UNK N   1      30.084  17.332   6.842  0.00  0.00     0.012 C 
HETATM   16  C   UNK N   1      33.558  13.793   6.989  0.00  0.00     0.009 A 
HETATM   17  C   UNK N   1      34.779  13.327   7.484  0.00  0.00     0.002 A 
HETATM   18  C   UNK N   1      35.401  13.990   8.544  0.00  0.00     0.028 A 
ENDBRANCH   4   7
ENDBRANCH   2   4
ENDBRANCH   1   2
BRANCH   1  19
HETATM   19  C   UNK N   1      35.661  13.043  12.192  0.00  0.00     0.244 C 
HETATM   20  O   UNK N   1      34.475  12.793  12.326  0.00  0.00    -0.271 OA
HETATM   21  N   UNK N   1      36.513  12.096  11.650  0.00  0.00    -0.336 N 
HETATM   22  C   UNK N   1      36.088  10.757  11.214  0.00  0.00     0.185 C 
HETATM   23  C   UNK N   1      37.895  12.408  11.366  0.00  0.00     0.127 C 
HETATM   24  C   UNK N   1      36.254  10.667   9.695  0.00  0.00     0.040 C 
HETATM   25  C   UNK N   1      37.697  10.995   9.311  0.00  0.00    -0.015 C 
HETATM   26  C   UNK N   1      38.116  12.358   9.857  0.00  0.00     0.024 C 
HETATM   27  C   UNK N   1      37.831  10.994   7.802  0.00  0.00     0.010 C 
BRANCH  22  28
HETATM   28  C   UNK N   1      34.740  10.260  11.680  0.00  0.00     0.163 C 
HETATM   29  O   UNK N   1      34.669   9.518  12.647  0.00  0.00    -0.648 OA
BRANCH  28  30
HETATM   30  O   UNK N   1      33.615  10.594  11.015  0.00  0.00    -0.775 OA
HETATM   31  H   UNK N   1      32.793  10.307  10.667  0.00  0.00     0.167 HD
ENDBRANCH  28  30
ENDBRANCH  22  28
ENDBRANCH   1  19
BRANCH   1  32
HETATM   32  C   UNK N   1      36.447  14.778  14.038  0.00  0.00     0.037 C 
BRANCH  32  33
HETATM   33  C   UNK N   1      36.885  13.521  14.771  0.00  0.00     0.023 C 
BRANCH  33  34
HETATM   34  C   UNK N   1      35.940  13.225  15.933  0.00  0.00     0.138 C 
BRANCH  34  35
HETATM   35  N   UNK N   1      34.703  12.650  15.452  0.00  0.00    -0.227 N 
HETATM   36  C   UNK N   1      34.535  11.380  15.304  0.00  0.00     0.665 C 
HETATM   37  N   UNK N   1      33.289  10.891  14.857  0.00  0.00    -0.235 N 
HETATM   38  N   UNK N   1      35.580  10.469  15.591  0.00  0.00    -0.235 N 
HETATM   39  H   UNK N   1      33.201   9.986  14.481  0.00  0.00     0.174 HD
HETATM   40  H   UNK N   1      32.493  11.466  14.924  0.00  0.00     0.174 HD
HETATM   41  H   UNK N   1      36.251  10.639  16.290  0.00  0.00     0.174 HD
HETATM   42  H   UNK N   1      35.637   9.634  15.072  0.00  0.00     0.174 HD
ATOM     43  HN  UNK N   1      33.931  13.275  15.219  1.00  0.00     0.177 HD
ENDBRANCH  34  35
ENDBRANCH  33  34
ENDBRANCH  32  33
ENDBRANCH   1  32
TORSDOF 10
ENDMDL
MODEL 9
REMARK VINA RESULT:      -7.1     11.887     13.717
REMARK  10 active torsions:
REMARK  status: ('A' for Active; 'I' for Inactive)
REMARK    1  A    between atoms: S_1  and  N_8 
REMARK    2  A    between atoms: S_1  and  C_29 
REMARK    3  A    between atoms: O_3  and  C_22 
REMARK       I    between atoms: N_7  and  C_20 
REMARK    4  A    between atoms: C_19  and  N_8 
REMARK    5  A    between atoms: N_10  and  C_34 
REMARK       I    between atoms: N_12  and  C_36 
REMARK       I    between atoms: N_13  and  C_36 
REMARK    6  A    between atoms: C_16  and  C_22 
REMARK    7  A    between atoms: C_19  and  C_20 
REMARK    8  A    between atoms: C_19  and  C_23 
REMARK    9  A    between atoms: C_23  and  C_30 
REMARK   10  A    between atoms: C_30  and  C_34 
ROOT
HETATM    1  C   UNK N   1      32.871  14.315   6.795  0.00  0.00     0.185 C 
ENDROOT
BRANCH   1   2
HETATM    2  N   UNK N   1      32.699  13.442   7.942  0.00  0.00    -0.301 N 
HETATM    3  H   UNK N   1      32.077  12.634   7.987  0.00  0.00     0.173 HD
BRANCH   2   4
HETATM    4  S   UNK N   1      33.750  14.013   9.249  0.00  0.00     0.261 S 
HETATM    5  O   UNK N   1      32.855  14.928  10.096  0.00  0.00    -0.200 OA
HETATM    6  O   UNK N   1      34.736  15.024   8.636  0.00  0.00    -0.200 OA
BRANCH   4   7
HETATM    7  C   UNK N   1      34.598  12.743  10.189  0.00  0.00     0.106 A 
HETATM    8  C   UNK N   1      35.277  13.043  11.382  0.00  0.00     0.058 A 
HETATM    9  N   UNK N   1      35.290  14.370  11.890  0.00  0.00    -0.388 N 
HETATM   10  C   UNK N   1      35.945  12.019  12.080  0.00  0.00    -0.030 A 
HETATM   11  C   UNK N   1      36.019  14.728  13.086  0.00  0.00     0.124 C 
HETATM   12  H   UNK N   1      34.787  15.068  11.411  0.00  0.00     0.159 HD
HETATM   13  C   UNK N   1      36.103  13.547  14.046  0.00  0.00     0.003 C 
HETATM   14  C   UNK N   1      36.693  12.328  13.341  0.00  0.00     0.046 C 
HETATM   15  C   UNK N   1      36.977  13.923  15.222  0.00  0.00     0.012 C 
HETATM   16  C   UNK N   1      35.928  10.711  11.589  0.00  0.00     0.009 A 
HETATM   17  C   UNK N   1      35.243  10.414  10.408  0.00  0.00     0.002 A 
HETATM   18  C   UNK N   1      34.585  11.428   9.710  0.00  0.00     0.028 A 
ENDBRANCH   4   7
ENDBRANCH   2   4
ENDBRANCH   1   2
BRANCH   1  19
HETATM   19  C   UNK N   1      31.544  14.968   6.423  0.00  0.00     0.244 C 
HETATM   20  O   UNK N   1      30.700  14.222   5.957  0.00  0.00    -0.271 OA
HETATM   21  N   UNK N   1      31.249  16.304   6.636  0.00  0.00    -0.336 N 
HETATM   22  C   UNK N   1      29.951  16.921   6.322  0.00  0.00     0.185 C 
HETATM   23  C   UNK N   1      32.186  17.181   7.301  0.00  0.00     0.127 C 
HETATM   24  C   UNK N   1      29.291  17.353   7.634  0.00  0.00     0.040 C 
HETATM   25  C   UNK N   1      30.229  18.282   8.405  0.00  0.00    -0.015 C 
HETATM   26  C   UNK N   1      31.589  17.626   8.633  0.00  0.00     0.024 C 
HETATM   27  C   UNK N   1      29.608  18.631   9.742  0.00  0.00     0.010 C 
BRANCH  22  28
HETATM   28  C   UNK N   1      29.007  16.159   5.422  0.00  0.00     0.163 C 
HETATM   29  O   UNK N   1      29.056  16.327   4.214  0.00  0.00    -0.648 OA
BRANCH  28  30
HETATM   30  O   UNK N   1      28.084  15.325   5.941  0.00  0.00    -0.775 OA
HETATM   31  H   UNK N   1      27.175  15.110   6.019  0.00  0.00     0.167 HD
ENDBRANCH  28  30
ENDBRANCH  22  28
ENDBRANCH   1  19
BRANCH   1  32
HETATM   32  C   UNK N   1      33.721  13.610   5.751  0.00  0.00     0.037 C 
BRANCH  32  33
HETATM   33  C   UNK N   1      34.575  14.620   5.001  0.00  0.00     0.023 C 
BRANCH  33  34
HETATM   34  C   UNK N   1      34.159  14.683   3.533  0.00  0.00     0.138 C 
BRANCH  34  35
HETATM   35  N   UNK N   1      33.470  15.924   3.251  0.00  0.00    -0.227 N 
HETATM   36  C   UNK N   1      32.203  15.980   3.018  0.00  0.00     0.665 C 
HETATM   37  N   UNK N   1      31.594  17.230   2.778  0.00  0.00    -0.235 N 
HETATM   38  N   UNK N   1      31.411  14.806   3.005  0.00  0.00    -0.235 N 
HETATM   39  H   UNK N   1      30.715  17.296   2.342  0.00  0.00     0.174 HD
HETATM   40  H   UNK N   1      32.058  18.053   3.055  0.00  0.00     0.174 HD
HETATM   41  H   UNK N   1      31.614  14.027   3.572  0.00  0.00     0.174 HD
HETATM   42  H   UNK N   1      30.630  14.767   2.407  0.00  0.00     0.174 HD
ATOM     43  HN  UNK N   1      34.008  16.790   3.236  1.00  0.00     0.177 HD
ENDBRANCH  34  35
ENDBRANCH  33  34
ENDBRANCH  32  33
ENDBRANCH   1  32
TORSDOF 10
ENDMDL
