REMARK  4 active torsions:
REMARK  status: ('A' for Active; 'I' for Inactive)
REMARK    1  A    between atoms: N_2  and  C_3 
REMARK    2  A    between atoms: C_3  and  C_4 
REMARK    3  A    between atoms: C_3  and  C_6 
REMARK    4  A    between atoms: C_4  and  C_5 
ROOT
HETATM    1  N   UNK N   1       3.934  -2.278  -0.104  0.00  0.00    -0.365 N 
HETATM    2  C   UNK N   1       4.136  -0.038  -0.028  0.00  0.00    -0.028 A 
HETATM    3  C   UNK N   1       2.804  -0.354  -0.006  0.00  0.00    -0.002 A 
HETATM    4  C   UNK N   1       2.712  -1.714  -0.052  0.00  0.00     0.042 A 
HETATM    5  C   UNK N   1       4.821  -1.251  -0.093  0.00  0.00     0.096 A 
HETATM    6  C   UNK N   1       1.672   0.459   0.045  0.00  0.00     0.014 A 
HETATM    7  C   UNK N   1       1.486  -2.371  -0.047  0.00  0.00     0.030 A 
HETATM    8  C   UNK N   1       0.415  -0.171   0.048  0.00  0.00     0.001 A 
HETATM    9  C   UNK N   1       0.322  -1.581   0.004  0.00  0.00     0.002 A 
HETATM   10  H   UNK N   1       4.141  -3.239  -0.143  0.00  0.00     0.165 HD
ENDROOT
BRANCH   2  11
HETATM   11  C   UNK N   1       4.694   1.358   0.026  0.00  0.00     0.065 C 
BRANCH  11  12
HETATM   12  C   UNK N   1       6.181   1.512  -0.291  0.00  0.00     0.077 C 
BRANCH  12  13
HETATM   13  N   UNK N   1       6.528   2.919  -0.201  0.00  0.00    -0.426 N 
HETATM   14  H   UNK N   1       7.506   3.202  -0.138  0.00  0.00     0.150 HD
HETATM   15  H   UNK N   1       5.792   3.626  -0.201  0.00  0.00     0.150 HD
ENDBRANCH  12  13
BRANCH  12  16
HETATM   16  C   UNK N   1       7.068   0.728   0.659  0.00  0.00     0.020 C 
HETATM   17  C   UNK N   1       7.817  -0.338  -0.119  0.00  0.00     0.007 C 
ENDBRANCH  12  16
ENDBRANCH  11  12
ENDBRANCH   2  11
TORSDOF 4
