MODEL 1
REMARK VINA RESULT:      -5.5      0.000      0.000
REMARK  4 active torsions:
REMARK  status: ('A' for Active; 'I' for Inactive)
REMARK    1  A    between atoms: N_2  and  C_3 
REMARK    2  A    between atoms: C_3  and  C_4 
REMARK    3  A    between atoms: C_3  and  C_6 
REMARK    4  A    between atoms: C_4  and  C_5 
ROOT
HETATM    1  N   UNK N   1      21.079  12.099  11.580  0.00  0.00    -0.365 N 
HETATM    2  C   UNK N   1      21.038  13.382   9.732  0.00  0.00    -0.028 A 
HETATM    3  C   UNK N   1      22.339  13.052  10.002  0.00  0.00    -0.002 A 
HETATM    4  C   UNK N   1      22.333  12.275  11.123  0.00  0.00     0.042 A 
HETATM    5  C   UNK N   1      20.271  12.781  10.730  0.00  0.00     0.096 A 
HETATM    6  C   UNK N   1      23.523  13.385   9.343  0.00  0.00     0.014 A 
HETATM    7  C   UNK N   1      23.505  11.766  11.674  0.00  0.00     0.030 A 
HETATM    8  C   UNK N   1      24.727  12.891   9.874  0.00  0.00     0.001 A 
HETATM    9  C   UNK N   1      24.718  12.083  11.034  0.00  0.00     0.002 A 
HETATM   10  H   UNK N   1      20.804  11.581  12.370  0.00  0.00     0.165 HD
ENDROOT
BRANCH   2  11
HETATM   11  C   UNK N   1      20.583  14.218   8.567  0.00  0.00     0.065 C 
BRANCH  11  12
HETATM   12  C   UNK N   1      20.657  15.734   8.743  0.00  0.00     0.077 C 
BRANCH  12  13
HETATM   13  N   UNK N   1      21.290  16.304   7.567  0.00  0.00    -0.426 N 
HETATM   14  H   UNK N   1      21.758  17.208   7.625  0.00  0.00     0.150 HD
HETATM   15  H   UNK N   1      21.265  15.799   6.681  0.00  0.00     0.150 HD
ENDBRANCH  12  13
BRANCH  12  16
HETATM   16  C   UNK N   1      19.292  16.372   8.922  0.00  0.00     0.020 C 
HETATM   17  C   UNK N   1      19.448  17.880   8.989  0.00  0.00     0.007 C 
ENDBRANCH  12  16
ENDBRANCH  11  12
ENDBRANCH   2  11
TORSDOF 4
ENDMDL
MODEL 2
REMARK VINA RESULT:      -5.5     18.520     21.154
REMARK  4 active torsions:
REMARK  status: ('A' for Active; 'I' for Inactive)
REMARK    1  A    between atoms: N_2  and  C_3 
REMARK    2  A    between atoms: C_3  and  C_4 
REMARK    3  A    between atoms: C_3  and  C_6 
REMARK    4  A    between atoms: C_4  and  C_5 
ROOT
HETATM    1  N   UNK N   1      26.170  28.925  -3.411  0.00  0.00    -0.365 N 
HETATM    2  C   UNK N   1      25.813  27.339  -4.967  0.00  0.00    -0.028 A 
HETATM    3  C   UNK N   1      26.756  28.210  -5.444  0.00  0.00    -0.002 A 
HETATM    4  C   UNK N   1      26.952  29.157  -4.483  0.00  0.00     0.042 A 
HETATM    5  C   UNK N   1      25.460  27.806  -3.701  0.00  0.00     0.096 A 
HETATM    6  C   UNK N   1      27.446  28.236  -6.656  0.00  0.00     0.014 A 
HETATM    7  C   UNK N   1      27.854  30.203  -4.651  0.00  0.00     0.030 A 
HETATM    8  C   UNK N   1      28.364  29.282  -6.862  0.00  0.00     0.001 A 
HETATM    9  C   UNK N   1      28.569  30.260  -5.862  0.00  0.00     0.002 A 
HETATM   10  H   UNK N   1      26.123  29.459  -2.586  0.00  0.00     0.165 HD
ENDROOT
BRANCH   2  11
HETATM   11  C   UNK N   1      25.308  26.126  -5.699  0.00  0.00     0.065 C 
BRANCH  11  12
HETATM   12  C   UNK N   1      25.640  24.768  -5.083  0.00  0.00     0.077 C 
BRANCH  12  13
HETATM   13  N   UNK N   1      25.278  23.730  -6.031  0.00  0.00    -0.426 N 
HETATM   14  H   UNK N   1      25.368  23.898  -7.033  0.00  0.00     0.150 HD
HETATM   15  H   UNK N   1      24.933  22.830  -5.695  0.00  0.00     0.150 HD
ENDBRANCH  12  13
BRANCH  12  16
HETATM   16  C   UNK N   1      27.111  24.624  -4.738  0.00  0.00     0.020 C 
HETATM   17  C   UNK N   1      27.248  24.236  -3.277  0.00  0.00     0.007 C 
ENDBRANCH  12  16
ENDBRANCH  11  12
ENDBRANCH   2  11
TORSDOF 4
ENDMDL
MODEL 3
REMARK VINA RESULT:      -5.5     17.548     19.407
REMARK  4 active torsions:
REMARK  status: ('A' for Active; 'I' for Inactive)
REMARK    1  A    between atoms: N_2  and  C_3 
REMARK    2  A    between atoms: C_3  and  C_4 
REMARK    3  A    between atoms: C_3  and  C_6 
REMARK    4  A    between atoms: C_4  and  C_5 
ROOT
HETATM    1  N   UNK N   1      25.462  24.579  -5.978  0.00  0.00    -0.365 N 
HETATM    2  C   UNK N   1      26.708  24.387  -4.114  0.00  0.00    -0.028 A 
HETATM    3  C   UNK N   1      26.238  25.671  -4.191  0.00  0.00    -0.002 A 
HETATM    4  C   UNK N   1      25.488  25.758  -5.327  0.00  0.00     0.042 A 
HETATM    5  C   UNK N   1      26.216  23.726  -5.239  0.00  0.00     0.096 A 
HETATM    6  C   UNK N   1      26.424  26.765  -3.346  0.00  0.00     0.014 A 
HETATM    7  C   UNK N   1      24.861  26.939  -5.708  0.00  0.00     0.030 A 
HETATM    8  C   UNK N   1      25.807  27.977  -3.702  0.00  0.00     0.001 A 
HETATM    9  C   UNK N   1      25.027  28.064  -4.878  0.00  0.00     0.002 A 
HETATM   10  H   UNK N   1      24.993  24.378  -6.819  0.00  0.00     0.165 HD
ENDROOT
BRANCH   2  11
HETATM   11  C   UNK N   1      27.568  23.847  -3.004  0.00  0.00     0.065 C 
BRANCH  11  12
HETATM   12  C   UNK N   1      29.037  23.592  -3.341  0.00  0.00     0.077 C 
BRANCH  12  13
HETATM   13  N   UNK N   1      29.662  24.862  -3.664  0.00  0.00    -0.426 N 
HETATM   14  H   UNK N   1      30.354  25.267  -3.033  0.00  0.00     0.150 HD
HETATM   15  H   UNK N   1      29.410  25.350  -4.524  0.00  0.00     0.150 HD
ENDBRANCH  12  13
BRANCH  12  16
HETATM   16  C   UNK N   1      29.799  22.949  -2.196  0.00  0.00     0.020 C 
HETATM   17  C   UNK N   1      31.059  22.299  -2.735  0.00  0.00     0.007 C 
ENDBRANCH  12  16
ENDBRANCH  11  12
ENDBRANCH   2  11
TORSDOF 4
ENDMDL
MODEL 4
REMARK VINA RESULT:      -5.3     13.801     15.730
REMARK  4 active torsions:
REMARK  status: ('A' for Active; 'I' for Inactive)
REMARK    1  A    between atoms: N_2  and  C_3 
REMARK    2  A    between atoms: C_3  and  C_4 
REMARK    3  A    between atoms: C_3  and  C_6 
REMARK    4  A    between atoms: C_4  and  C_5 
ROOT
HETATM    1  N   UNK N   1      36.819  13.412  14.376  0.00  0.00    -0.365 N 
HETATM    2  C   UNK N   1      35.502  13.177  16.186  0.00  0.00    -0.028 A 
HETATM    3  C   UNK N   1      35.054  12.328  15.210  0.00  0.00    -0.002 A 
HETATM    4  C   UNK N   1      35.868  12.491  14.129  0.00  0.00     0.042 A 
HETATM    5  C   UNK N   1      36.600  13.845  15.643  0.00  0.00     0.096 A 
HETATM    6  C   UNK N   1      33.985  11.431  15.199  0.00  0.00     0.014 A 
HETATM    7  C   UNK N   1      35.685  11.771  12.952  0.00  0.00     0.030 A 
HETATM    8  C   UNK N   1      33.768  10.689  14.024  0.00  0.00     0.001 A 
HETATM    9  C   UNK N   1      34.616  10.857  12.906  0.00  0.00     0.002 A 
HETATM   10  H   UNK N   1      37.527  13.711  13.762  0.00  0.00     0.165 HD
ENDROOT
BRANCH   2  11
HETATM   11  C   UNK N   1      34.902  13.310  17.559  0.00  0.00     0.065 C 
BRANCH  11  12
HETATM   12  C   UNK N   1      35.560  12.498  18.673  0.00  0.00     0.077 C 
BRANCH  12  13
HETATM   13  N   UNK N   1      35.187  13.081  19.950  0.00  0.00    -0.426 N 
HETATM   14  H   UNK N   1      35.397  14.060  20.146  0.00  0.00     0.150 HD
HETATM   15  H   UNK N   1      34.715  12.510  20.652  0.00  0.00     0.150 HD
ENDBRANCH  12  13
BRANCH  12  16
HETATM   16  C   UNK N   1      35.141  11.039  18.662  0.00  0.00     0.020 C 
HETATM   17  C   UNK N   1      36.314  10.184  18.219  0.00  0.00     0.007 C 
ENDBRANCH  12  16
ENDBRANCH  11  12
ENDBRANCH   2  11
TORSDOF 4
ENDMDL
MODEL 5
REMARK VINA RESULT:      -5.3     14.396     15.842
REMARK  4 active torsions:
REMARK  status: ('A' for Active; 'I' for Inactive)
REMARK    1  A    between atoms: N_2  and  C_3 
REMARK    2  A    between atoms: C_3  and  C_4 
REMARK    3  A    between atoms: C_3  and  C_6 
REMARK    4  A    between atoms: C_4  and  C_5 
ROOT
HETATM    1  N   UNK N   1      35.326  13.580  19.163  0.00  0.00    -0.365 N 
HETATM    2  C   UNK N   1      35.272  13.096  16.966  0.00  0.00    -0.028 A 
HETATM    3  C   UNK N   1      35.234  11.922  17.670  0.00  0.00    -0.002 A 
HETATM    4  C   UNK N   1      35.267  12.245  18.994  0.00  0.00     0.042 A 
HETATM    5  C   UNK N   1      35.333  14.115  17.916  0.00  0.00     0.096 A 
HETATM    6  C   UNK N   1      35.178  10.597  17.237  0.00  0.00     0.014 A 
HETATM    7  C   UNK N   1      35.243  11.276  19.991  0.00  0.00     0.030 A 
HETATM    8  C   UNK N   1      35.157   9.590  18.217  0.00  0.00     0.001 A 
HETATM    9  C   UNK N   1      35.187   9.928  19.590  0.00  0.00     0.002 A 
HETATM   10  H   UNK N   1      35.359  14.068  20.017  0.00  0.00     0.165 HD
ENDROOT
BRANCH   2  11
HETATM   11  C   UNK N   1      35.236  13.206  15.466  0.00  0.00     0.065 C 
BRANCH  11  12
HETATM   12  C   UNK N   1      36.463  13.825  14.797  0.00  0.00     0.077 C 
BRANCH  12  13
HETATM   13  N   UNK N   1      37.506  12.818  14.726  0.00  0.00    -0.426 N 
HETATM   14  H   UNK N   1      38.063  12.716  13.878  0.00  0.00     0.150 HD
HETATM   15  H   UNK N   1      37.684  12.211  15.528  0.00  0.00     0.150 HD
ENDBRANCH  12  13
BRANCH  12  16
HETATM   16  C   UNK N   1      36.174  14.329  13.395  0.00  0.00     0.020 C 
HETATM   17  C   UNK N   1      35.167  13.411  12.729  0.00  0.00     0.007 C 
ENDBRANCH  12  16
ENDBRANCH  11  12
ENDBRANCH   2  11
TORSDOF 4
ENDMDL
MODEL 6
REMARK VINA RESULT:      -5.2      8.590     10.649
REMARK  4 active torsions:
REMARK  status: ('A' for Active; 'I' for Inactive)
REMARK    1  A    between atoms: N_2  and  C_3 
REMARK    2  A    between atoms: C_3  and  C_4 
REMARK    3  A    between atoms: C_3  and  C_6 
REMARK    4  A    between atoms: C_4  and  C_5 
ROOT
HETATM    1  N   UNK N   1      27.437  19.587   8.273  0.00  0.00    -0.365 N 
HETATM    2  C   UNK N   1      28.995  18.192   7.439  0.00  0.00    -0.028 A 
HETATM    3  C   UNK N   1      28.376  18.825   6.395  0.00  0.00    -0.002 A 
HETATM    4  C   UNK N   1      27.441  19.662   6.928  0.00  0.00     0.042 A 
HETATM    5  C   UNK N   1      28.392  18.679   8.599  0.00  0.00     0.096 A 
HETATM    6  C   UNK N   1      28.568  18.717   5.017  0.00  0.00     0.014 A 
HETATM    7  C   UNK N   1      26.625  20.460   6.132  0.00  0.00     0.030 A 
HETATM    8  C   UNK N   1      27.758  19.506   4.182  0.00  0.00     0.001 A 
HETATM    9  C   UNK N   1      26.792  20.376   4.736  0.00  0.00     0.002 A 
HETATM   10  H   UNK N   1      26.860  20.087   8.892  0.00  0.00     0.165 HD
ENDROOT
BRANCH   2  11
HETATM   11  C   UNK N   1      30.110  17.191   7.305  0.00  0.00     0.065 C 
BRANCH  11  12
HETATM   12  C   UNK N   1      31.390  17.486   8.086  0.00  0.00     0.077 C 
BRANCH  12  13
HETATM   13  N   UNK N   1      31.587  16.430   9.063  0.00  0.00    -0.426 N 
HETATM   14  H   UNK N   1      30.791  15.883   9.394  0.00  0.00     0.150 HD
HETATM   15  H   UNK N   1      32.523  16.234   9.420  0.00  0.00     0.150 HD
ENDBRANCH  12  13
BRANCH  12  16
HETATM   16  C   UNK N   1      32.616  17.562   7.196  0.00  0.00     0.020 C 
HETATM   17  C   UNK N   1      33.731  18.276   7.938  0.00  0.00     0.007 C 
ENDBRANCH  12  16
ENDBRANCH  11  12
ENDBRANCH   2  11
TORSDOF 4
ENDMDL
MODEL 7
REMARK VINA RESULT:      -5.1      8.498      9.965
REMARK  4 active torsions:
REMARK  status: ('A' for Active; 'I' for Inactive)
REMARK    1  A    between atoms: N_2  and  C_3 
REMARK    2  A    between atoms: C_3  and  C_4 
REMARK    3  A    between atoms: C_3  and  C_6 
REMARK    4  A    between atoms: C_4  and  C_5 
ROOT
HETATM    1  N   UNK N   1      31.311  17.687   9.071  0.00  0.00    -0.365 N 
HETATM    2  C   UNK N   1      29.672  17.407   7.555  0.00  0.00    -0.028 A 
HETATM    3  C   UNK N   1      30.875  17.387   6.901  0.00  0.00    -0.002 A 
HETATM    4  C   UNK N   1      31.848  17.558   7.842  0.00  0.00     0.042 A 
HETATM    5  C   UNK N   1      29.968  17.599   8.904  0.00  0.00     0.096 A 
HETATM    6  C   UNK N   1      31.178  17.237   5.548  0.00  0.00     0.014 A 
HETATM    7  C   UNK N   1      33.198  17.588   7.511  0.00  0.00     0.030 A 
HETATM    8  C   UNK N   1      32.534  17.267   5.176  0.00  0.00     0.001 A 
HETATM    9  C   UNK N   1      33.540  17.440   6.153  0.00  0.00     0.002 A 
HETATM   10  H   UNK N   1      31.796  17.820   9.917  0.00  0.00     0.165 HD
ENDROOT
BRANCH   2  11
HETATM   11  C   UNK N   1      28.329  17.235   6.899  0.00  0.00     0.065 C 
BRANCH  11  12
HETATM   12  C   UNK N   1      27.785  18.439   6.131  0.00  0.00     0.077 C 
BRANCH  12  13
HETATM   13  N   UNK N   1      26.424  18.146   5.719  0.00  0.00    -0.426 N 
HETATM   14  H   UNK N   1      25.969  18.720   5.010  0.00  0.00     0.150 HD
HETATM   15  H   UNK N   1      25.922  17.364   6.141  0.00  0.00     0.150 HD
ENDBRANCH  12  13
BRANCH  12  16
HETATM   16  C   UNK N   1      27.782  19.711   6.959  0.00  0.00     0.020 C 
HETATM   17  C   UNK N   1      27.303  20.867   6.101  0.00  0.00     0.007 C 
ENDBRANCH  12  16
ENDBRANCH  11  12
ENDBRANCH   2  11
TORSDOF 4
ENDMDL
MODEL 8
REMARK VINA RESULT:      -5.1     14.103     15.417
REMARK  4 active torsions:
REMARK  status: ('A' for Active; 'I' for Inactive)
REMARK    1  A    between atoms: N_2  and  C_3 
REMARK    2  A    between atoms: C_3  and  C_4 
REMARK    3  A    between atoms: C_3  and  C_6 
REMARK    4  A    between atoms: C_4  and  C_5 
ROOT
HETATM    1  N   UNK N   1      35.342   9.954  16.837  0.00  0.00    -0.365 N 
HETATM    2  C   UNK N   1      35.170  11.803  15.566  0.00  0.00    -0.028 A 
HETATM    3  C   UNK N   1      35.200  12.183  16.881  0.00  0.00    -0.002 A 
HETATM    4  C   UNK N   1      35.306  11.045  17.626  0.00  0.00     0.042 A 
HETATM    5  C   UNK N   1      35.256  10.412  15.562  0.00  0.00     0.096 A 
HETATM    6  C   UNK N   1      35.137  13.445  17.471  0.00  0.00     0.014 A 
HETATM    7  C   UNK N   1      35.360  11.075  19.015  0.00  0.00     0.030 A 
HETATM    8  C   UNK N   1      35.185  13.513  18.874  0.00  0.00     0.001 A 
HETATM    9  C   UNK N   1      35.298  12.333  19.644  0.00  0.00     0.002 A 
HETATM   10  H   UNK N   1      35.416   9.017  17.126  0.00  0.00     0.165 HD
ENDROOT
BRANCH   2  11
HETATM   11  C   UNK N   1      35.078  12.746  14.397  0.00  0.00     0.065 C 
BRANCH  11  12
HETATM   12  C   UNK N   1      36.340  13.537  14.056  0.00  0.00     0.077 C 
BRANCH  12  13
HETATM   13  N   UNK N   1      37.355  12.608  13.592  0.00  0.00    -0.426 N 
HETATM   14  H   UNK N   1      37.923  12.092  14.265  0.00  0.00     0.150 HD
HETATM   15  H   UNK N   1      37.501  12.470  12.592  0.00  0.00     0.150 HD
ENDBRANCH  12  13
BRANCH  12  16
HETATM   16  C   UNK N   1      36.106  14.582  12.980  0.00  0.00     0.020 C 
HETATM   17  C   UNK N   1      35.083  14.059  11.989  0.00  0.00     0.007 C 
ENDBRANCH  12  16
ENDBRANCH  11  12
ENDBRANCH   2  11
TORSDOF 4
ENDMDL
MODEL 9
REMARK VINA RESULT:      -5.0     10.696     12.795
REMARK  4 active torsions:
REMARK  status: ('A' for Active; 'I' for Inactive)
REMARK    1  A    between atoms: N_2  and  C_3 
REMARK    2  A    between atoms: C_3  and  C_4 
REMARK    3  A    between atoms: C_3  and  C_6 
REMARK    4  A    between atoms: C_4  and  C_5 
ROOT
HETATM    1  N   UNK N   1      30.648  17.254   7.534  0.00  0.00    -0.365 N 
HETATM    2  C   UNK N   1      32.852  17.642   7.764  0.00  0.00    -0.028 A 
HETATM    3  C   UNK N   1      32.579  17.469   6.433  0.00  0.00    -0.002 A 
HETATM    4  C   UNK N   1      31.239  17.237   6.324  0.00  0.00     0.042 A 
HETATM    5  C   UNK N   1      31.636  17.500   8.431  0.00  0.00     0.096 A 
HETATM    6  C   UNK N   1      33.414  17.494   5.317  0.00  0.00     0.014 A 
HETATM    7  C   UNK N   1      30.626  17.014   5.096  0.00  0.00     0.030 A 
HETATM    8  C   UNK N   1      32.830  17.270   4.058  0.00  0.00     0.001 A 
HETATM    9  C   UNK N   1      31.440  17.033   3.947  0.00  0.00     0.002 A 
HETATM   10  H   UNK N   1      29.693  17.114   7.728  0.00  0.00     0.165 HD
ENDROOT
BRANCH   2  11
HETATM   11  C   UNK N   1      34.211  17.941   8.335  0.00  0.00     0.065 C 
BRANCH  11  12
HETATM   12  C   UNK N   1      34.914  16.795   9.062  0.00  0.00     0.077 C 
BRANCH  12  13
HETATM   13  N   UNK N   1      34.670  16.935  10.486  0.00  0.00    -0.426 N 
HETATM   14  H   UNK N   1      35.059  16.257  11.141  0.00  0.00     0.150 HD
HETATM   15  H   UNK N   1      34.108  17.714  10.833  0.00  0.00     0.150 HD
ENDBRANCH  12  13
BRANCH  12  16
HETATM   16  C   UNK N   1      34.426  15.429   8.614  0.00  0.00     0.020 C 
HETATM   17  C   UNK N   1      35.293  14.937   7.470  0.00  0.00     0.007 C 
ENDBRANCH  12  16
ENDBRANCH  11  12
ENDBRANCH   2  11
TORSDOF 4
ENDMDL
