MODEL 1
REMARK VINA RESULT:      -7.1      0.000      0.000
REMARK  1 active torsions:
REMARK  status: ('A' for Active; 'I' for Inactive)
REMARK    1  A    between atoms: C_7  and  C_12 
ROOT
HETATM    1 Cl   UNK N   1      27.611  17.113   6.545  0.00  0.00    -0.084 Cl
HETATM    2  O   UNK N   1      32.516  14.489   7.892  0.00  0.00    -0.343 OA
HETATM    3  O   UNK N   1      35.155  17.966   9.247  0.00  0.00    -0.271 OA
HETATM    4  N   UNK N   1      33.987  15.997   6.870  0.00  0.00     0.144 N 
HETATM    5  N   UNK N   1      32.943  17.804   9.154  0.00  0.00    -0.325 N 
HETATM    6  C   UNK N   1      32.582  15.554   6.966  0.00  0.00     0.322 C 
HETATM    7  C   UNK N   1      34.770  15.098   7.690  0.00  0.00     0.304 C 
HETATM    8  C   UNK N   1      31.534  16.604   7.439  0.00  0.00     0.041 A 
HETATM    9  C   UNK N   1      33.821  14.013   8.085  0.00  0.00     0.202 C 
HETATM   10  C   UNK N   1      34.310  17.395   7.137  0.00  0.00     0.380 C 
HETATM   11  C   UNK N   1      31.718  17.574   8.481  0.00  0.00     0.046 A 
HETATM   12  C   UNK N   1      34.162  17.722   8.585  0.00  0.00     0.250 C 
HETATM   13  C   UNK N   1      30.238  16.492   6.885  0.00  0.00     0.038 A 
HETATM   14  C   UNK N   1      30.634  18.371   8.877  0.00  0.00     0.032 A 
HETATM   15  C   UNK N   1      29.184  17.303   7.285  0.00  0.00     0.034 A 
HETATM   16  C   UNK N   1      29.381  18.246   8.283  0.00  0.00     0.026 A 
HETATM   17  H   UNK N   1      32.901  18.040  10.108  0.00  0.00     0.169 HD
ENDROOT
BRANCH   6  18
HETATM   18  C   UNK N   1      32.203  15.115   5.535  0.00  0.00     0.034 A 
HETATM   19  C   UNK N   1      32.226  15.942   4.372  0.00  0.00     0.045 A 
HETATM   20 Cl   UNK N   1      32.655  17.647   4.376  0.00  0.00    -0.084 Cl
HETATM   21  C   UNK N   1      31.903  15.390   3.126  0.00  0.00     0.024 A 
HETATM   22  C   UNK N   1      31.561  14.045   3.002  0.00  0.00     0.002 A 
HETATM   23  C   UNK N   1      31.524  13.231   4.129  0.00  0.00     0.001 A 
HETATM   24  C   UNK N   1      31.838  13.761   5.377  0.00  0.00     0.014 A 
ENDBRANCH   6  18
TORSDOF 1
ENDMDL
MODEL 2
REMARK VINA RESULT:      -6.9     12.867     14.895
REMARK  1 active torsions:
REMARK  status: ('A' for Active; 'I' for Inactive)
REMARK    1  A    between atoms: C_7  and  C_12 
ROOT
HETATM    1 Cl   UNK N   1      27.672  20.961  -8.954  0.00  0.00    -0.084 Cl
HETATM    2  O   UNK N   1      30.531  24.620  -5.607  0.00  0.00    -0.343 OA
HETATM    3  O   UNK N   1      31.886  21.947  -2.157  0.00  0.00    -0.271 OA
HETATM    4  N   UNK N   1      29.651  23.937  -3.548  0.00  0.00     0.144 N 
HETATM    5  N   UNK N   1      31.307  21.415  -4.232  0.00  0.00    -0.325 N 
HETATM    6  C   UNK N   1      29.487  23.876  -5.014  0.00  0.00     0.322 C 
HETATM    7  C   UNK N   1      30.764  24.823  -3.284  0.00  0.00     0.304 C 
HETATM    8  C   UNK N   1      29.527  22.468  -5.677  0.00  0.00     0.041 A 
HETATM    9  C   UNK N   1      31.097  25.428  -4.610  0.00  0.00     0.202 C 
HETATM   10  C   UNK N   1      29.758  22.692  -2.794  0.00  0.00     0.380 C 
HETATM   11  C   UNK N   1      30.412  21.393  -5.331  0.00  0.00     0.046 A 
HETATM   12  C   UNK N   1      31.059  22.009  -3.048  0.00  0.00     0.250 C 
HETATM   13  C   UNK N   1      28.711  22.288  -6.819  0.00  0.00     0.038 A 
HETATM   14  C   UNK N   1      30.411  20.225  -6.106  0.00  0.00     0.032 A 
HETATM   15  C   UNK N   1      28.719  21.115  -7.561  0.00  0.00     0.034 A 
HETATM   16  C   UNK N   1      29.570  20.079  -7.206  0.00  0.00     0.026 A 
HETATM   17  H   UNK N   1      32.174  20.964  -4.342  0.00  0.00     0.169 HD
ENDROOT
BRANCH   6  18
HETATM   18  C   UNK N   1      28.096  24.491  -5.285  0.00  0.00     0.034 A 
HETATM   19  C   UNK N   1      27.748  25.317  -6.396  0.00  0.00     0.045 A 
HETATM   20 Cl   UNK N   1      28.873  25.821  -7.647  0.00  0.00    -0.084 Cl
HETATM   21  C   UNK N   1      26.428  25.762  -6.537  0.00  0.00     0.024 A 
HETATM   22  C   UNK N   1      25.447  25.412  -5.611  0.00  0.00     0.002 A 
HETATM   23  C   UNK N   1      25.776  24.617  -4.517  0.00  0.00     0.001 A 
HETATM   24  C   UNK N   1      27.084  24.167  -4.357  0.00  0.00     0.014 A 
ENDBRANCH   6  18
TORSDOF 1
ENDMDL
MODEL 3
REMARK VINA RESULT:      -6.6     14.411     16.241
REMARK  1 active torsions:
REMARK  status: ('A' for Active; 'I' for Inactive)
REMARK    1  A    between atoms: C_7  and  C_12 
ROOT
HETATM    1 Cl   UNK N   1      30.649  20.770  -5.484  0.00  0.00    -0.084 Cl
HETATM    2  O   UNK N   1      27.775  25.334  -7.401  0.00  0.00    -0.343 OA
HETATM    3  O   UNK N   1      25.988  27.057  -3.564  0.00  0.00    -0.271 OA
HETATM    4  N   UNK N   1      25.812  25.030  -6.162  0.00  0.00     0.144 N 
HETATM    5  N   UNK N   1      27.744  25.731  -3.851  0.00  0.00    -0.325 N 
HETATM    6  C   UNK N   1      27.059  24.393  -6.629  0.00  0.00     0.322 C 
HETATM    7  C   UNK N   1      25.759  26.345  -6.764  0.00  0.00     0.304 C 
HETATM    8  C   UNK N   1      28.049  23.883  -5.540  0.00  0.00     0.041 A 
HETATM    9  C   UNK N   1      26.888  26.366  -7.743  0.00  0.00     0.202 C 
HETATM   10  C   UNK N   1      25.531  25.077  -4.731  0.00  0.00     0.380 C 
HETATM   11  C   UNK N   1      28.378  24.552  -4.314  0.00  0.00     0.046 A 
HETATM   12  C   UNK N   1      26.441  26.026  -4.027  0.00  0.00     0.250 C 
HETATM   13  C   UNK N   1      28.794  22.725  -5.862  0.00  0.00     0.038 A 
HETATM   14  C   UNK N   1      29.385  24.025  -3.492  0.00  0.00     0.032 A 
HETATM   15  C   UNK N   1      29.776  22.215  -5.023  0.00  0.00     0.034 A 
HETATM   16  C   UNK N   1      30.074  22.865  -3.835  0.00  0.00     0.026 A 
HETATM   17  H   UNK N   1      28.297  26.385  -3.364  0.00  0.00     0.169 HD
ENDROOT
BRANCH   6  18
HETATM   18  C   UNK N   1      26.598  23.176  -7.461  0.00  0.00     0.034 A 
HETATM   19  C   UNK N   1      27.196  22.715  -8.672  0.00  0.00     0.045 A 
HETATM   20 Cl   UNK N   1      28.558  23.492  -9.464  0.00  0.00    -0.084 Cl
HETATM   21  C   UNK N   1      26.697  21.562  -9.291  0.00  0.00     0.024 A 
HETATM   22  C   UNK N   1      25.627  20.856  -8.744  0.00  0.00     0.002 A 
HETATM   23  C   UNK N   1      25.029  21.302  -7.571  0.00  0.00     0.001 A 
HETATM   24  C   UNK N   1      25.507  22.448  -6.941  0.00  0.00     0.014 A 
ENDBRANCH   6  18
TORSDOF 1
ENDMDL
MODEL 4
REMARK VINA RESULT:      -6.5      9.642     11.439
REMARK  1 active torsions:
REMARK  status: ('A' for Active; 'I' for Inactive)
REMARK    1  A    between atoms: C_7  and  C_12 
ROOT
HETATM    1 Cl   UNK N   1      23.043   8.692   6.500  0.00  0.00    -0.084 Cl
HETATM    2  O   UNK N   1      20.449  13.464   8.308  0.00  0.00    -0.343 OA
HETATM    3  O   UNK N   1      21.593  16.491   5.081  0.00  0.00    -0.271 OA
HETATM    4  N   UNK N   1      22.213  14.957   7.936  0.00  0.00     0.144 N 
HETATM    5  N   UNK N   1      21.525  14.274   4.999  0.00  0.00    -0.325 N 
HETATM    6  C   UNK N   1      21.836  13.535   8.054  0.00  0.00     0.322 C 
HETATM    7  C   UNK N   1      21.027  15.733   8.228  0.00  0.00     0.304 C 
HETATM    8  C   UNK N   1      22.098  12.624   6.819  0.00  0.00     0.041 A 
HETATM    9  C   UNK N   1      20.026  14.737   8.717  0.00  0.00     0.202 C 
HETATM   10  C   UNK N   1      22.877  15.417   6.721  0.00  0.00     0.380 C 
HETATM   11  C   UNK N   1      21.888  12.979   5.445  0.00  0.00     0.046 A 
HETATM   12  C   UNK N   1      21.943  15.427   5.559  0.00  0.00     0.250 C 
HETATM   13  C   UNK N   1      22.439  11.278   7.091  0.00  0.00     0.038 A 
HETATM   14  C   UNK N   1      22.051  12.004   4.450  0.00  0.00     0.032 A 
HETATM   15  C   UNK N   1      22.610  10.336   6.086  0.00  0.00     0.034 A 
HETATM   16  C   UNK N   1      22.416  10.697   4.762  0.00  0.00     0.026 A 
HETATM   17  H   UNK N   1      20.923  14.337   4.223  0.00  0.00     0.169 HD
ENDROOT
BRANCH   6  18
HETATM   18  C   UNK N   1      22.680  12.995   9.231  0.00  0.00     0.034 A 
HETATM   19  C   UNK N   1      24.105  12.955   9.290  0.00  0.00     0.045 A 
HETATM   20 Cl   UNK N   1      25.167  13.481   7.992  0.00  0.00    -0.084 Cl
HETATM   21  C   UNK N   1      24.734  12.482  10.449  0.00  0.00     0.024 A 
HETATM   22  C   UNK N   1      23.991  12.051  11.546  0.00  0.00     0.002 A 
HETATM   23  C   UNK N   1      22.601  12.074  11.497  0.00  0.00     0.001 A 
HETATM   24  C   UNK N   1      21.957  12.538  10.353  0.00  0.00     0.014 A 
ENDBRANCH   6  18
TORSDOF 1
ENDMDL
MODEL 5
REMARK VINA RESULT:      -6.5      2.505      4.940
REMARK  1 active torsions:
REMARK  status: ('A' for Active; 'I' for Inactive)
REMARK    1  A    between atoms: C_7  and  C_12 
ROOT
HETATM    1 Cl   UNK N   1      37.386  13.718   3.985  0.00  0.00    -0.084 Cl
HETATM    2  O   UNK N   1      34.562  17.548   7.165  0.00  0.00    -0.343 OA
HETATM    3  O   UNK N   1      33.681  15.199  10.985  0.00  0.00    -0.271 OA
HETATM    4  N   UNK N   1      32.855  16.142   7.932  0.00  0.00     0.144 N 
HETATM    5  N   UNK N   1      35.242  14.879   9.440  0.00  0.00    -0.325 N 
HETATM    6  C   UNK N   1      33.937  16.302   6.941  0.00  0.00     0.322 C 
HETATM    7  C   UNK N   1      32.790  17.375   8.688  0.00  0.00     0.304 C 
HETATM    8  C   UNK N   1      35.073  15.238   6.949  0.00  0.00     0.041 A 
HETATM    9  C   UNK N   1      33.710  18.313   7.975  0.00  0.00     0.202 C 
HETATM   10  C   UNK N   1      32.857  14.971   8.803  0.00  0.00     0.380 C 
HETATM   11  C   UNK N   1      35.682  14.658   8.112  0.00  0.00     0.046 A 
HETATM   12  C   UNK N   1      33.956  15.041   9.809  0.00  0.00     0.250 C 
HETATM   13  C   UNK N   1      35.651  14.926   5.696  0.00  0.00     0.038 A 
HETATM   14  C   UNK N   1      36.783  13.803   7.958  0.00  0.00     0.032 A 
HETATM   15  C   UNK N   1      36.733  14.065   5.570  0.00  0.00     0.034 A 
HETATM   16  C   UNK N   1      37.301  13.501   6.702  0.00  0.00     0.026 A 
HETATM   17  H   UNK N   1      35.926  14.917  10.147  0.00  0.00     0.169 HD
ENDROOT
BRANCH   6  18
HETATM   18  C   UNK N   1      33.232  16.235   5.568  0.00  0.00     0.034 A 
HETATM   19  C   UNK N   1      32.520  15.113   5.046  0.00  0.00     0.045 A 
HETATM   20 Cl   UNK N   1      32.356  13.571   5.873  0.00  0.00    -0.084 Cl
HETATM   21  C   UNK N   1      31.887  15.217   3.801  0.00  0.00     0.024 A 
HETATM   22  C   UNK N   1      31.939  16.397   3.063  0.00  0.00     0.002 A 
HETATM   23  C   UNK N   1      32.639  17.494   3.555  0.00  0.00     0.001 A 
HETATM   24  C   UNK N   1      33.278  17.410   4.789  0.00  0.00     0.014 A 
ENDBRANCH   6  18
TORSDOF 1
ENDMDL
MODEL 6
REMARK VINA RESULT:      -6.4     14.291     16.134
REMARK  1 active torsions:
REMARK  status: ('A' for Active; 'I' for Inactive)
REMARK    1  A    between atoms: C_7  and  C_12 
ROOT
HETATM    1 Cl   UNK N   1      28.877  28.629  -3.564  0.00  0.00    -0.084 Cl
HETATM    2  O   UNK N   1      29.241  24.191  -7.161  0.00  0.00    -0.343 OA
HETATM    3  O   UNK N   1      24.872  23.492  -8.310  0.00  0.00    -0.271 OA
HETATM    4  N   UNK N   1      27.448  22.940  -6.321  0.00  0.00     0.144 N 
HETATM    5  N   UNK N   1      25.868  25.313  -7.522  0.00  0.00    -0.325 N 
HETATM    6  C   UNK N   1      28.371  24.062  -6.056  0.00  0.00     0.322 C 
HETATM    7  C   UNK N   1      27.861  22.342  -7.572  0.00  0.00     0.304 C 
HETATM    8  C   UNK N   1      27.738  25.468  -5.836  0.00  0.00     0.041 A 
HETATM    9  C   UNK N   1      29.157  23.006  -7.908  0.00  0.00     0.202 C 
HETATM   10  C   UNK N   1      26.009  23.181  -6.284  0.00  0.00     0.380 C 
HETATM   11  C   UNK N   1      26.635  26.024  -6.566  0.00  0.00     0.046 A 
HETATM   12  C   UNK N   1      25.563  24.003  -7.445  0.00  0.00     0.250 C 
HETATM   13  C   UNK N   1      28.407  26.323  -4.930  0.00  0.00     0.038 A 
HETATM   14  C   UNK N   1      26.259  27.355  -6.336  0.00  0.00     0.032 A 
HETATM   15  C   UNK N   1      28.006  27.634  -4.710  0.00  0.00     0.034 A 
HETATM   16  C   UNK N   1      26.929  28.153  -5.413  0.00  0.00     0.026 A 
HETATM   17  H   UNK N   1      25.534  25.814  -8.302  0.00  0.00     0.169 HD
ENDROOT
BRANCH   6  18
HETATM   18  C   UNK N   1      29.115  23.667  -4.761  0.00  0.00     0.034 A 
HETATM   19  C   UNK N   1      28.539  23.572  -3.459  0.00  0.00     0.045 A 
HETATM   20 Cl   UNK N   1      26.860  23.937  -3.090  0.00  0.00    -0.084 Cl
HETATM   21  C   UNK N   1      29.330  23.152  -2.384  0.00  0.00     0.024 A 
HETATM   22  C   UNK N   1      30.673  22.823  -2.563  0.00  0.00     0.002 A 
HETATM   23  C   UNK N   1      31.250  22.923  -3.824  0.00  0.00     0.001 A 
HETATM   24  C   UNK N   1      30.481  23.342  -4.906  0.00  0.00     0.014 A 
ENDBRANCH   6  18
TORSDOF 1
ENDMDL
MODEL 7
REMARK VINA RESULT:      -6.2     14.395     16.491
REMARK  1 active torsions:
REMARK  status: ('A' for Active; 'I' for Inactive)
REMARK    1  A    between atoms: C_7  and  C_12 
ROOT
HETATM    1 Cl   UNK N   1      31.146  20.139  -5.933  0.00  0.00    -0.084 Cl
HETATM    2  O   UNK N   1      26.693  23.611  -4.994  0.00  0.00    -0.343 OA
HETATM    3  O   UNK N   1      24.901  24.068  -9.173  0.00  0.00    -0.271 OA
HETATM    4  N   UNK N   1      27.002  25.041  -6.822  0.00  0.00     0.144 N 
HETATM    5  N   UNK N   1      26.200  22.471  -8.343  0.00  0.00    -0.325 N 
HETATM    6  C   UNK N   1      27.627  24.003  -5.979  0.00  0.00     0.322 C 
HETATM    7  C   UNK N   1      25.705  25.327  -6.246  0.00  0.00     0.304 C 
HETATM    8  C   UNK N   1      28.087  22.694  -6.685  0.00  0.00     0.041 A 
HETATM    9  C   UNK N   1      25.689  24.589  -4.947  0.00  0.00     0.202 C 
HETATM   10  C   UNK N   1      26.921  24.831  -8.263  0.00  0.00     0.380 C 
HETATM   11  C   UNK N   1      27.378  21.994  -7.718  0.00  0.00     0.046 A 
HETATM   12  C   UNK N   1      25.936  23.766  -8.606  0.00  0.00     0.250 C 
HETATM   13  C   UNK N   1      29.239  22.066  -6.156  0.00  0.00     0.038 A 
HETATM   14  C   UNK N   1      27.863  20.758  -8.168  0.00  0.00     0.032 A 
HETATM   15  C   UNK N   1      29.706  20.847  -6.630  0.00  0.00     0.034 A 
HETATM   16  C   UNK N   1      29.019  20.190  -7.638  0.00  0.00     0.026 A 
HETATM   17  H   UNK N   1      25.523  21.806  -8.605  0.00  0.00     0.169 HD
ENDROOT
BRANCH   6  18
HETATM   18  C   UNK N   1      28.875  24.681  -5.371  0.00  0.00     0.034 A 
HETATM   19  C   UNK N   1      29.367  24.494  -4.045  0.00  0.00     0.045 A 
HETATM   20 Cl   UNK N   1      28.599  23.476  -2.836  0.00  0.00    -0.084 Cl
HETATM   21  C   UNK N   1      30.545  25.140  -3.649  0.00  0.00     0.024 A 
HETATM   22  C   UNK N   1      31.246  25.962  -4.530  0.00  0.00     0.002 A 
HETATM   23  C   UNK N   1      30.771  26.161  -5.821  0.00  0.00     0.001 A 
HETATM   24  C   UNK N   1      29.600  25.531  -6.233  0.00  0.00     0.014 A 
ENDBRANCH   6  18
TORSDOF 1
ENDMDL
MODEL 8
REMARK VINA RESULT:      -6.1     13.156     14.977
REMARK  1 active torsions:
REMARK  status: ('A' for Active; 'I' for Inactive)
REMARK    1  A    between atoms: C_7  and  C_12 
ROOT
HETATM    1 Cl   UNK N   1      33.779  25.640  -5.082  0.00  0.00    -0.084 Cl
HETATM    2  O   UNK N   1      28.429  24.249  -6.567  0.00  0.00    -0.343 OA
HETATM    3  O   UNK N   1      25.925  26.626  -3.572  0.00  0.00    -0.271 OA
HETATM    4  N   UNK N   1      27.574  23.894  -4.416  0.00  0.00     0.144 N 
HETATM    5  N   UNK N   1      28.006  26.954  -4.271  0.00  0.00    -0.325 N 
HETATM    6  C   UNK N   1      28.803  24.048  -5.219  0.00  0.00     0.322 C 
HETATM    7  C   UNK N   1      26.461  23.909  -5.341  0.00  0.00     0.304 C 
HETATM    8  C   UNK N   1      29.751  25.227  -4.852  0.00  0.00     0.041 A 
HETATM    9  C   UNK N   1      27.087  23.863  -6.698  0.00  0.00     0.202 C 
HETATM   10  C   UNK N   1      27.350  24.787  -3.284  0.00  0.00     0.380 C 
HETATM   11  C   UNK N   1      29.349  26.554  -4.482  0.00  0.00     0.046 A 
HETATM   12  C   UNK N   1      27.045  26.176  -3.735  0.00  0.00     0.250 C 
HETATM   13  C   UNK N   1      31.135  25.003  -5.040  0.00  0.00     0.038 A 
HETATM   14  C   UNK N   1      30.326  27.543  -4.301  0.00  0.00     0.032 A 
HETATM   15  C   UNK N   1      32.084  25.996  -4.840  0.00  0.00     0.034 A 
HETATM   16  C   UNK N   1      31.681  27.270  -4.469  0.00  0.00     0.026 A 
HETATM   17  H   UNK N   1      27.756  27.868  -4.537  0.00  0.00     0.169 HD
ENDROOT
BRANCH   6  18
HETATM   18  C   UNK N   1      29.581  22.729  -5.013  0.00  0.00     0.034 A 
HETATM   19  C   UNK N   1      30.071  22.232  -3.768  0.00  0.00     0.045 A 
HETATM   20 Cl   UNK N   1      29.908  23.071  -2.233  0.00  0.00    -0.084 Cl
HETATM   21  C   UNK N   1      30.718  20.991  -3.728  0.00  0.00     0.024 A 
HETATM   22  C   UNK N   1      30.891  20.231  -4.884  0.00  0.00     0.002 A 
HETATM   23  C   UNK N   1      30.428  20.710  -6.105  0.00  0.00     0.001 A 
HETATM   24  C   UNK N   1      29.785  21.943  -6.167  0.00  0.00     0.014 A 
ENDBRANCH   6  18
TORSDOF 1
ENDMDL
MODEL 9
REMARK VINA RESULT:      -6.1     14.059     15.649
REMARK  1 active torsions:
REMARK  status: ('A' for Active; 'I' for Inactive)
REMARK    1  A    between atoms: C_7  and  C_12 
ROOT
HETATM    1 Cl   UNK N   1      31.598  28.461  -2.526  0.00  0.00    -0.084 Cl
HETATM    2  O   UNK N   1      28.888  25.212  -6.382  0.00  0.00    -0.343 OA
HETATM    3  O   UNK N   1      24.496  26.199  -5.591  0.00  0.00    -0.271 OA
HETATM    4  N   UNK N   1      27.193  24.395  -4.989  0.00  0.00     0.144 N 
HETATM    5  N   UNK N   1      26.328  27.361  -5.121  0.00  0.00    -0.325 N 
HETATM    6  C   UNK N   1      28.504  25.073  -5.030  0.00  0.00     0.322 C 
HETATM    7  C   UNK N   1      26.858  24.044  -6.352  0.00  0.00     0.304 C 
HETATM    8  C   UNK N   1      28.588  26.498  -4.407  0.00  0.00     0.041 A 
HETATM    9  C   UNK N   1      28.090  24.345  -7.143  0.00  0.00     0.202 C 
HETATM   10  C   UNK N   1      26.079  25.044  -4.306  0.00  0.00     0.380 C 
HETATM   11  C   UNK N   1      27.600  27.532  -4.522  0.00  0.00     0.046 A 
HETATM   12  C   UNK N   1      25.593  26.233  -5.062  0.00  0.00     0.250 C 
HETATM   13  C   UNK N   1      29.815  26.844  -3.794  0.00  0.00     0.038 A 
HETATM   14  C   UNK N   1      27.877  28.807  -4.008  0.00  0.00     0.032 A 
HETATM   15  C   UNK N   1      30.059  28.111  -3.281  0.00  0.00     0.034 A 
HETATM   16  C   UNK N   1      29.089  29.096  -3.386  0.00  0.00     0.026 A 
HETATM   17  H   UNK N   1      25.953  28.124  -5.619  0.00  0.00     0.169 HD
ENDROOT
BRANCH   6  18
HETATM   18  C   UNK N   1      29.456  24.150  -4.238  0.00  0.00     0.034 A 
HETATM   19  C   UNK N   1      30.801  23.831  -4.594  0.00  0.00     0.045 A 
HETATM   20 Cl   UNK N   1      31.607  24.410  -6.044  0.00  0.00    -0.084 Cl
HETATM   21  C   UNK N   1      31.562  23.016  -3.748  0.00  0.00     0.024 A 
HETATM   22  C   UNK N   1      31.030  22.511  -2.563  0.00  0.00     0.002 A 
HETATM   23  C   UNK N   1      29.717  22.805  -2.211  0.00  0.00     0.001 A 
HETATM   24  C   UNK N   1      28.942  23.611  -3.040  0.00  0.00     0.014 A 
ENDBRANCH   6  18
TORSDOF 1
ENDMDL
