REMARK  7 active torsions:
REMARK  status: ('A' for Active; 'I' for Inactive)
REMARK    1  A    between atoms: C_14  and  O_1 
REMARK    2  A    between atoms: C_24  and  O_2 
REMARK    3  A    between atoms: O_3  and  C_28 
REMARK    4  A    between atoms: C_10  and  C_20 
REMARK    5  A    between atoms: C_20  and  C_25 
REMARK    6  A    between atoms: C_25  and  C_27 
REMARK    7  A    between atoms: C_27  and  C_28 
ROOT
HETATM    1  C   UNK N   1       7.046  -1.167  -0.107  0.00  0.00     0.001 C 
HETATM    2  C   UNK N   1       7.017   0.334   0.206  0.00  0.00    -0.036 C 
HETATM    3  C   UNK N   1       5.815  -1.911   0.469  0.00  0.00     0.024 C 
HETATM    4  C   UNK N   1       4.545  -1.235  -0.149  0.00  0.00     0.001 C 
HETATM    5  C   UNK N   1       3.238  -1.947   0.293  0.00  0.00    -0.036 C 
HETATM    6  C   UNK N   1       8.340   0.747  -0.450  0.00  0.00    -0.002 C 
HETATM    7  C   UNK N   1       3.296  -3.491  -0.043  0.00  0.00    -0.001 C 
HETATM    8  C   UNK N   1       5.767   0.971  -0.399  0.00  0.00     0.010 C 
HETATM    9  C   UNK N   1       4.515   0.279   0.150  0.00  0.00     0.007 C 
HETATM   10  C   UNK N   1       5.801  -3.447   0.208  0.00  0.00     0.123 C 
HETATM   11  C   UNK N   1       8.446  -1.569   0.354  0.00  0.00     0.006 C 
HETATM   12  C   UNK N   1       9.317  -0.333   0.042  0.00  0.00     0.006 C 
HETATM   13  C   UNK N   1       4.635  -3.922  -0.656  0.00  0.00     0.037 C 
HETATM   14  C   UNK N   1       2.054  -1.265  -0.425  0.00  0.00     0.012 C 
HETATM   15  C   UNK N   1       7.034   0.608   1.723  0.00  0.00     0.016 C 
HETATM   16  C   UNK N   1       2.189  -3.925  -1.013  0.00  0.00     0.037 C 
HETATM   17  C   UNK N   1       3.042  -1.763   1.802  0.00  0.00     0.016 C 
HETATM   18  C   UNK N   1       0.734  -1.994  -0.177  0.00  0.00     0.032 C 
HETATM   19  C   UNK N   1       0.802  -3.483  -0.533  0.00  0.00     0.118 C 
ENDROOT
BRANCH   6  20
HETATM   20  C   UNK N   1       8.847   2.186  -0.266  0.00  0.00    -0.013 C 
HETATM   21  C   UNK N   1       7.861   3.226  -0.779  0.00  0.00     0.010 C 
BRANCH  20  22
HETATM   22  C   UNK N   1       9.349   2.534   1.131  0.00  0.00     0.015 C 
BRANCH  22  23
HETATM   23  C   UNK N   1      10.291   3.735   1.056  0.00  0.00     0.110 C 
BRANCH  23  24
HETATM   24  C   UNK N   1      11.516   3.461   0.224  0.00  0.00     0.139 C 
HETATM   25  O   UNK N   1      11.899   2.317   0.030  0.00  0.00    -0.650 OA
BRANCH  24  26
HETATM   26  O   UNK N   1      12.187   4.489  -0.326  0.00  0.00    -0.776 OA
HETATM   27  H   UNK N   1      13.041   4.443  -0.710  0.00  0.00     0.167 HD
ENDBRANCH  24  26
ENDBRANCH  23  24
ENDBRANCH  22  23
ENDBRANCH  20  22
ENDBRANCH   6  20
BRANCH  10  28
HETATM   28  O   UNK N   1       7.008  -3.944  -0.287  0.00  0.00    -0.395 OA
HETATM   29  H   UNK N   1       7.129  -4.843  -0.631  0.00  0.00     0.210 HD
ENDBRANCH  10  28
BRANCH  19  30
HETATM   30  O   UNK N   1       0.406  -4.241   0.569  0.00  0.00    -0.396 OA
HETATM   31  H   UNK N   1      -0.188  -4.266   1.336  0.00  0.00     0.210 HD
ENDBRANCH  19  30
TORSDOF 7
