MODEL 1
REMARK VINA RESULT:      -7.6      0.000      0.000
REMARK  7 active torsions:
REMARK  status: ('A' for Active; 'I' for Inactive)
REMARK    1  A    between atoms: C_14  and  O_1 
REMARK    2  A    between atoms: C_24  and  O_2 
REMARK    3  A    between atoms: O_3  and  C_28 
REMARK    4  A    between atoms: C_10  and  C_20 
REMARK    5  A    between atoms: C_20  and  C_25 
REMARK    6  A    between atoms: C_25  and  C_27 
REMARK    7  A    between atoms: C_27  and  C_28 
ROOT
HETATM    1  C   UNK N   1      35.294  12.095  10.745  0.00  0.00     0.001 C 
HETATM    2  C   UNK N   1      35.543  13.585  10.477  0.00  0.00    -0.036 C 
HETATM    3  C   UNK N   1      35.913  11.629  12.087  0.00  0.00     0.024 C 
HETATM    4  C   UNK N   1      35.279  12.514  13.212  0.00  0.00     0.001 C 
HETATM    5  C   UNK N   1      35.764  12.088  14.624  0.00  0.00    -0.036 C 
HETATM    6  C   UNK N   1      34.857  13.706   9.111  0.00  0.00    -0.002 C 
HETATM    7  C   UNK N   1      35.493  10.550  14.873  0.00  0.00    -0.001 C 
HETATM    8  C   UNK N   1      34.924  14.428  11.590  0.00  0.00     0.010 C 
HETATM    9  C   UNK N   1      35.514  14.015  12.942  0.00  0.00     0.007 C 
HETATM   10  C   UNK N   1      35.718  10.116  12.403  0.00  0.00     0.123 C 
HETATM   11  C   UNK N   1      35.758  11.447   9.442  0.00  0.00     0.006 C 
HETATM   12  C   UNK N   1      35.385  12.477   8.353  0.00  0.00     0.006 C 
HETATM   13  C   UNK N   1      34.886   9.843  13.655  0.00  0.00     0.037 C 
HETATM   14  C   UNK N   1      35.029  12.958  15.666  0.00  0.00     0.012 C 
HETATM   15  C   UNK N   1      37.047  13.910  10.380  0.00  0.00     0.016 C 
HETATM   16  C   UNK N   1      34.554  10.302  16.061  0.00  0.00     0.037 C 
HETATM   17  C   UNK N   1      37.266  12.367  14.754  0.00  0.00     0.016 C 
HETATM   18  C   UNK N   1      35.321  12.511  17.098  0.00  0.00     0.032 C 
HETATM   19  C   UNK N   1      35.028  11.024  17.327  0.00  0.00     0.118 C 
ENDROOT
BRANCH   6  20
HETATM   20  C   UNK N   1      34.975  15.025   8.331  0.00  0.00    -0.013 C 
HETATM   21  C   UNK N   1      35.462  14.821   6.903  0.00  0.00     0.010 C 
BRANCH  20  22
HETATM   22  C   UNK N   1      33.749  15.930   8.379  0.00  0.00     0.015 C 
BRANCH  22  23
HETATM   23  C   UNK N   1      34.107  17.246   9.068  0.00  0.00     0.110 C 
BRANCH  23  24
HETATM   24  C   UNK N   1      34.618  18.285   8.106  0.00  0.00     0.139 C 
HETATM   25  O   UNK N   1      34.370  18.210   6.912  0.00  0.00    -0.650 OA
BRANCH  24  26
HETATM   26  O   UNK N   1      35.344  19.318   8.570  0.00  0.00    -0.776 OA
HETATM   27  H   UNK N   1      35.111  19.872   9.290  0.00  0.00     0.167 HD
ENDBRANCH  24  26
ENDBRANCH  23  24
ENDBRANCH  22  23
ENDBRANCH  20  22
ENDBRANCH   6  20
BRANCH  10  28
HETATM   28  O   UNK N   1      35.233   9.374  11.325  0.00  0.00    -0.395 OA
HETATM   29  H   UNK N   1      35.458   8.446  11.154  0.00  0.00     0.210 HD
ENDBRANCH  10  28
BRANCH  19  30
HETATM   30  O   UNK N   1      36.165  10.402  17.843  0.00  0.00    -0.396 OA
HETATM   31  H   UNK N   1      36.513   9.892  18.591  0.00  0.00     0.210 HD
ENDBRANCH  19  30
TORSDOF 7
ENDMDL
MODEL 2
REMARK VINA RESULT:      -7.3     18.036     21.306
REMARK  7 active torsions:
REMARK  status: ('A' for Active; 'I' for Inactive)
REMARK    1  A    between atoms: C_14  and  O_1 
REMARK    2  A    between atoms: C_24  and  O_2 
REMARK    3  A    between atoms: O_3  and  C_28 
REMARK    4  A    between atoms: C_10  and  C_20 
REMARK    5  A    between atoms: C_20  and  C_25 
REMARK    6  A    between atoms: C_25  and  C_27 
REMARK    7  A    between atoms: C_27  and  C_28 
ROOT
HETATM    1  C   UNK N   1      28.509  24.323  -4.015  0.00  0.00     0.001 C 
HETATM    2  C   UNK N   1      27.971  24.790  -5.373  0.00  0.00    -0.036 C 
HETATM    3  C   UNK N   1      29.238  22.959  -4.110  0.00  0.00     0.024 C 
HETATM    4  C   UNK N   1      30.402  23.137  -5.143  0.00  0.00     0.001 C 
HETATM    5  C   UNK N   1      31.263  21.851  -5.270  0.00  0.00    -0.036 C 
HETATM    6  C   UNK N   1      27.304  26.100  -4.935  0.00  0.00    -0.002 C 
HETATM    7  C   UNK N   1      31.805  21.395  -3.856  0.00  0.00    -0.001 C 
HETATM    8  C   UNK N   1      29.121  24.949  -6.366  0.00  0.00     0.010 C 
HETATM    9  C   UNK N   1      29.870  23.620  -6.509  0.00  0.00     0.007 C 
HETATM   10  C   UNK N   1      29.785  22.417  -2.756  0.00  0.00     0.123 C 
HETATM   11  C   UNK N   1      27.282  24.454  -3.115  0.00  0.00     0.006 C 
HETATM   12  C   UNK N   1      26.534  25.685  -3.671  0.00  0.00     0.006 C 
HETATM   13  C   UNK N   1      31.304  22.279  -2.707  0.00  0.00     0.037 C 
HETATM   14  C   UNK N   1      32.425  22.147  -6.243  0.00  0.00     0.012 C 
HETATM   15  C   UNK N   1      26.939  23.804  -5.956  0.00  0.00     0.016 C 
HETATM   16  C   UNK N   1      33.338  21.383  -3.789  0.00  0.00     0.037 C 
HETATM   17  C   UNK N   1      30.416  20.727  -5.876  0.00  0.00     0.016 C 
HETATM   18  C   UNK N   1      33.422  20.991  -6.316  0.00  0.00     0.032 C 
HETATM   19  C   UNK N   1      33.956  20.580  -4.939  0.00  0.00     0.118 C 
ENDROOT
BRANCH   6  20
HETATM   20  C   UNK N   1      26.465  26.888  -5.954  0.00  0.00    -0.013 C 
HETATM   21  C   UNK N   1      24.977  26.864  -5.632  0.00  0.00     0.010 C 
BRANCH  20  22
HETATM   22  C   UNK N   1      26.949  28.302  -6.253  0.00  0.00     0.015 C 
BRANCH  22  23
HETATM   23  C   UNK N   1      27.650  28.878  -5.023  0.00  0.00     0.110 C 
BRANCH  23  24
HETATM   24  C   UNK N   1      26.750  29.765  -4.204  0.00  0.00     0.139 C 
HETATM   25  O   UNK N   1      26.707  30.970  -4.403  0.00  0.00    -0.650 OA
BRANCH  24  26
HETATM   26  O   UNK N   1      25.970  29.220  -3.253  0.00  0.00    -0.776 OA
HETATM   27  H   UNK N   1      25.916  29.504  -2.361  0.00  0.00     0.167 HD
ENDBRANCH  24  26
ENDBRANCH  23  24
ENDBRANCH  22  23
ENDBRANCH  20  22
ENDBRANCH   6  20
BRANCH  10  28
HETATM   28  O   UNK N   1      29.323  23.120  -1.642  0.00  0.00    -0.395 OA
HETATM   29  H   UNK N   1      29.899  23.553  -0.992  0.00  0.00     0.210 HD
ENDBRANCH  10  28
BRANCH  19  30
HETATM   30  O   UNK N   1      33.740  19.215  -4.748  0.00  0.00    -0.396 OA
HETATM   31  H   UNK N   1      33.959  18.329  -5.077  0.00  0.00     0.210 HD
ENDBRANCH  19  30
TORSDOF 7
ENDMDL
MODEL 3
REMARK VINA RESULT:      -7.1      7.249     10.825
REMARK  7 active torsions:
REMARK  status: ('A' for Active; 'I' for Inactive)
REMARK    1  A    between atoms: C_14  and  O_1 
REMARK    2  A    between atoms: C_24  and  O_2 
REMARK    3  A    between atoms: O_3  and  C_28 
REMARK    4  A    between atoms: C_10  and  C_20 
REMARK    5  A    between atoms: C_20  and  C_25 
REMARK    6  A    between atoms: C_25  and  C_27 
REMARK    7  A    between atoms: C_27  and  C_28 
ROOT
HETATM    1  C   UNK N   1      29.622  17.984   7.102  0.00  0.00     0.001 C 
HETATM    2  C   UNK N   1      28.498  18.226   6.087  0.00  0.00    -0.036 C 
HETATM    3  C   UNK N   1      30.371  16.653   6.842  0.00  0.00     0.024 C 
HETATM    4  C   UNK N   1      30.940  16.728   5.385  0.00  0.00     0.001 C 
HETATM    5  C   UNK N   1      31.786  15.476   5.029  0.00  0.00    -0.036 C 
HETATM    6  C   UNK N   1      27.960  19.556   6.629  0.00  0.00    -0.002 C 
HETATM    7  C   UNK N   1      32.936  15.252   6.091  0.00  0.00    -0.001 C 
HETATM    8  C   UNK N   1      29.074  18.288   4.673  0.00  0.00     0.010 C 
HETATM    9  C   UNK N   1      29.817  16.985   4.358  0.00  0.00     0.007 C 
HETATM   10  C   UNK N   1      31.509  16.336   7.859  0.00  0.00     0.123 C 
HETATM   11  C   UNK N   1      28.907  18.192   8.436  0.00  0.00     0.006 C 
HETATM   12  C   UNK N   1      27.869  19.296   8.141  0.00  0.00     0.006 C 
HETATM   13  C   UNK N   1      32.901  16.272   7.237  0.00  0.00     0.037 C 
HETATM   14  C   UNK N   1      32.366  15.676   3.613  0.00  0.00     0.012 C 
HETATM   15  C   UNK N   1      27.423  17.122   6.142  0.00  0.00     0.016 C 
HETATM   16  C   UNK N   1      34.336  15.316   5.465  0.00  0.00     0.037 C 
HETATM   17  C   UNK N   1      30.879  14.240   4.995  0.00  0.00     0.016 C 
HETATM   18  C   UNK N   1      33.344  14.565   3.230  0.00  0.00     0.032 C 
HETATM   19  C   UNK N   1      34.466  14.381   4.257  0.00  0.00     0.118 C 
ENDROOT
BRANCH   6  20
HETATM   20  C   UNK N   1      26.684  20.151   6.014  0.00  0.00    -0.013 C 
HETATM   21  C   UNK N   1      26.298  21.485   6.637  0.00  0.00     0.010 C 
BRANCH  20  22
HETATM   22  C   UNK N   1      26.656  20.218   4.491  0.00  0.00     0.015 C 
BRANCH  22  23
HETATM   23  C   UNK N   1      25.326  19.668   3.975  0.00  0.00     0.110 C 
BRANCH  23  24
HETATM   24  C   UNK N   1      24.701  20.550   2.927  0.00  0.00     0.139 C 
HETATM   25  O   UNK N   1      25.328  20.884   1.933  0.00  0.00    -0.650 OA
BRANCH  24  26
HETATM   26  O   UNK N   1      23.430  20.962   3.080  0.00  0.00    -0.776 OA
HETATM   27  H   UNK N   1      22.681  20.600   2.648  0.00  0.00     0.167 HD
ENDBRANCH  24  26
ENDBRANCH  23  24
ENDBRANCH  22  23
ENDBRANCH  20  22
ENDBRANCH   6  20
BRANCH  10  28
HETATM   28  O   UNK N   1      31.512  17.173   8.976  0.00  0.00    -0.395 OA
HETATM   29  H   UNK N   1      32.313  17.448   9.451  0.00  0.00     0.210 HD
ENDBRANCH  10  28
BRANCH  19  30
HETATM   30  O   UNK N   1      34.497  13.050   4.675  0.00  0.00    -0.396 OA
HETATM   31  H   UNK N   1      35.081  12.317   4.926  0.00  0.00     0.210 HD
ENDBRANCH  19  30
TORSDOF 7
ENDMDL
MODEL 4
REMARK VINA RESULT:      -7.0      3.398      5.303
REMARK  7 active torsions:
REMARK  status: ('A' for Active; 'I' for Inactive)
REMARK    1  A    between atoms: C_14  and  O_1 
REMARK    2  A    between atoms: C_24  and  O_2 
REMARK    3  A    between atoms: O_3  and  C_28 
REMARK    4  A    between atoms: C_10  and  C_20 
REMARK    5  A    between atoms: C_20  and  C_25 
REMARK    6  A    between atoms: C_25  and  C_27 
REMARK    7  A    between atoms: C_27  and  C_28 
ROOT
HETATM    1  C   UNK N   1      32.488  14.377   7.460  0.00  0.00     0.001 C 
HETATM    2  C   UNK N   1      32.386  15.890   7.236  0.00  0.00    -0.036 C 
HETATM    3  C   UNK N   1      33.813  13.974   8.155  0.00  0.00     0.024 C 
HETATM    4  C   UNK N   1      33.866  14.746   9.516  0.00  0.00     0.001 C 
HETATM    5  C   UNK N   1      35.120  14.365  10.349  0.00  0.00    -0.036 C 
HETATM    6  C   UNK N   1      31.027  15.942   6.528  0.00  0.00    -0.002 C 
HETATM    7  C   UNK N   1      35.198  12.800  10.565  0.00  0.00    -0.001 C 
HETATM    8  C   UNK N   1      32.448  16.623   8.575  0.00  0.00     0.010 C 
HETATM    9  C   UNK N   1      33.750  16.270   9.300  0.00  0.00     0.007 C 
HETATM   10  C   UNK N   1      33.989  12.443   8.385  0.00  0.00     0.123 C 
HETATM   11  C   UNK N   1      32.171  13.819   6.073  0.00  0.00     0.006 C 
HETATM   12  C   UNK N   1      31.136  14.808   5.495  0.00  0.00     0.006 C 
HETATM   13  C   UNK N   1      34.070  12.039   9.855  0.00  0.00     0.037 C 
HETATM   14  C   UNK N   1      35.044  15.110  11.698  0.00  0.00     0.012 C 
HETATM   15  C   UNK N   1      33.513  16.416   6.325  0.00  0.00     0.016 C 
HETATM   16  C   UNK N   1      35.152  12.407  12.047  0.00  0.00     0.037 C 
HETATM   17  C   UNK N   1      36.381  14.840   9.619  0.00  0.00     0.016 C 
HETATM   18  C   UNK N   1      36.155  14.681  12.655  0.00  0.00     0.032 C 
HETATM   19  C   UNK N   1      36.199  13.164  12.873  0.00  0.00     0.118 C 
ENDROOT
BRANCH   6  20
HETATM   20  C   UNK N   1      30.538  17.278   5.947  0.00  0.00    -0.013 C 
HETATM   21  C   UNK N   1      30.634  17.328   4.428  0.00  0.00     0.010 C 
BRANCH  20  22
HETATM   22  C   UNK N   1      29.173  17.750   6.436  0.00  0.00     0.015 C 
BRANCH  22  23
HETATM   23  C   UNK N   1      28.849  17.088   7.775  0.00  0.00     0.110 C 
BRANCH  23  24
HETATM   24  C   UNK N   1      28.676  18.087   8.889  0.00  0.00     0.139 C 
HETATM   25  O   UNK N   1      29.633  18.704   9.332  0.00  0.00    -0.650 OA
BRANCH  24  26
HETATM   26  O   UNK N   1      27.448  18.313   9.391  0.00  0.00    -0.776 OA
HETATM   27  H   UNK N   1      26.763  17.678   9.471  0.00  0.00     0.167 HD
ENDBRANCH  24  26
ENDBRANCH  23  24
ENDBRANCH  22  23
ENDBRANCH  20  22
ENDBRANCH   6  20
BRANCH  10  28
HETATM   28  O   UNK N   1      33.045  11.662   7.717  0.00  0.00    -0.395 OA
HETATM   29  H   UNK N   1      32.109  11.605   7.965  0.00  0.00     0.210 HD
ENDBRANCH  10  28
BRANCH  19  30
HETATM   30  O   UNK N   1      37.479  12.692  12.584  0.00  0.00    -0.396 OA
HETATM   31  H   UNK N   1      38.423  12.917  12.591  0.00  0.00     0.210 HD
ENDBRANCH  19  30
TORSDOF 7
ENDMDL
MODEL 5
REMARK VINA RESULT:      -7.0     18.342     23.203
REMARK  7 active torsions:
REMARK  status: ('A' for Active; 'I' for Inactive)
REMARK    1  A    between atoms: C_14  and  O_1 
REMARK    2  A    between atoms: C_24  and  O_2 
REMARK    3  A    between atoms: O_3  and  C_28 
REMARK    4  A    between atoms: C_10  and  C_20 
REMARK    5  A    between atoms: C_20  and  C_25 
REMARK    6  A    between atoms: C_25  and  C_27 
REMARK    7  A    between atoms: C_27  and  C_28 
ROOT
HETATM    1  C   UNK N   1      28.398  24.880  -7.109  0.00  0.00     0.001 C 
HETATM    2  C   UNK N   1      28.331  23.690  -6.144  0.00  0.00    -0.036 C 
HETATM    3  C   UNK N   1      27.471  26.042  -6.674  0.00  0.00     0.024 C 
HETATM    4  C   UNK N   1      27.917  26.465  -5.234  0.00  0.00     0.001 C 
HETATM    5  C   UNK N   1      27.109  27.684  -4.712  0.00  0.00    -0.036 C 
HETATM    6  C   UNK N   1      29.300  22.740  -6.857  0.00  0.00    -0.002 C 
HETATM    7  C   UNK N   1      27.198  28.894  -5.726  0.00  0.00    -0.001 C 
HETATM    8  C   UNK N   1      28.762  24.126  -4.745  0.00  0.00     0.010 C 
HETATM    9  C   UNK N   1      27.866  25.269  -4.258  0.00  0.00     0.007 C 
HETATM   10  C   UNK N   1      27.473  27.271  -7.632  0.00  0.00     0.123 C 
HETATM   11  C   UNK N   1      28.174  24.212  -8.465  0.00  0.00     0.006 C 
HETATM   12  C   UNK N   1      28.851  22.832  -8.324  0.00  0.00     0.006 C 
HETATM   13  C   UNK N   1      27.993  28.558  -6.994  0.00  0.00     0.037 C 
HETATM   14  C   UNK N   1      27.671  28.075  -3.328  0.00  0.00     0.012 C 
HETATM   15  C   UNK N   1      26.913  23.089  -6.065  0.00  0.00     0.016 C 
HETATM   16  C   UNK N   1      27.839  30.140  -5.102  0.00  0.00     0.037 C 
HETATM   17  C   UNK N   1      25.642  27.282  -4.528  0.00  0.00     0.016 C 
HETATM   18  C   UNK N   1      27.045  29.363  -2.797  0.00  0.00     0.032 C 
HETATM   19  C   UNK N   1      27.163  30.531  -3.782  0.00  0.00     0.118 C 
ENDROOT
BRANCH   6  20
HETATM   20  C   UNK N   1      29.457  21.303  -6.335  0.00  0.00    -0.013 C 
HETATM   21  C   UNK N   1      29.201  20.257  -7.410  0.00  0.00     0.010 C 
BRANCH  20  22
HETATM   22  C   UNK N   1      30.746  21.017  -5.573  0.00  0.00     0.015 C 
BRANCH  22  23
HETATM   23  C   UNK N   1      30.494  21.135  -4.070  0.00  0.00     0.110 C 
BRANCH  23  24
HETATM   24  C   UNK N   1      31.457  22.073  -3.392  0.00  0.00     0.139 C 
HETATM   25  O   UNK N   1      31.823  21.873  -2.243  0.00  0.00    -0.650 OA
BRANCH  24  26
HETATM   26  O   UNK N   1      31.932  23.136  -4.065  0.00  0.00    -0.776 OA
HETATM   27  H   UNK N   1      31.591  24.008  -4.025  0.00  0.00     0.167 HD
ENDBRANCH  24  26
ENDBRANCH  23  24
ENDBRANCH  22  23
ENDBRANCH  20  22
ENDBRANCH   6  20
BRANCH  10  28
HETATM   28  O   UNK N   1      28.118  27.035  -8.847  0.00  0.00    -0.395 OA
HETATM   29  H   UNK N   1      27.685  26.664  -9.632  0.00  0.00     0.210 HD
ENDBRANCH  10  28
BRANCH  19  30
HETATM   30  O   UNK N   1      25.897  31.062  -4.025  0.00  0.00    -0.396 OA
HETATM   31  H   UNK N   1      24.948  30.946  -3.857  0.00  0.00     0.210 HD
ENDBRANCH  19  30
TORSDOF 7
ENDMDL
MODEL 6
REMARK VINA RESULT:      -6.9      3.423      6.124
REMARK  7 active torsions:
REMARK  status: ('A' for Active; 'I' for Inactive)
REMARK    1  A    between atoms: C_14  and  O_1 
REMARK    2  A    between atoms: C_24  and  O_2 
REMARK    3  A    between atoms: O_3  and  C_28 
REMARK    4  A    between atoms: C_10  and  C_20 
REMARK    5  A    between atoms: C_20  and  C_25 
REMARK    6  A    between atoms: C_25  and  C_27 
REMARK    7  A    between atoms: C_27  and  C_28 
ROOT
HETATM    1  C   UNK N   1      33.617  15.817   6.549  0.00  0.00     0.001 C 
HETATM    2  C   UNK N   1      32.438  16.581   7.164  0.00  0.00    -0.036 C 
HETATM    3  C   UNK N   1      34.787  15.640   7.549  0.00  0.00     0.024 C 
HETATM    4  C   UNK N   1      34.213  14.878   8.791  0.00  0.00     0.001 C 
HETATM    5  C   UNK N   1      35.316  14.568   9.839  0.00  0.00    -0.036 C 
HETATM    6  C   UNK N   1      31.504  16.610   5.948  0.00  0.00    -0.002 C 
HETATM    7  C   UNK N   1      36.516  13.780   9.178  0.00  0.00    -0.001 C 
HETATM    8  C   UNK N   1      31.899  15.825   8.377  0.00  0.00     0.010 C 
HETATM    9  C   UNK N   1      33.017  15.634   9.407  0.00  0.00     0.007 C 
HETATM   10  C   UNK N   1      36.029  14.895   6.974  0.00  0.00     0.123 C 
HETATM   11  C   UNK N   1      33.855  16.578   5.246  0.00  0.00     0.006 C 
HETATM   12  C   UNK N   1      32.444  17.024   4.804  0.00  0.00     0.006 C 
HETATM   13  C   UNK N   1      36.338  13.571   7.668  0.00  0.00     0.037 C 
HETATM   14  C   UNK N   1      34.675  13.751  10.981  0.00  0.00     0.012 C 
HETATM   15  C   UNK N   1      32.836  18.005   7.598  0.00  0.00     0.016 C 
HETATM   16  C   UNK N   1      36.732  12.398   9.808  0.00  0.00     0.037 C 
HETATM   17  C   UNK N   1      35.837  15.881  10.435  0.00  0.00     0.016 C 
HETATM   18  C   UNK N   1      35.713  13.261  11.990  0.00  0.00     0.032 C 
HETATM   19  C   UNK N   1      36.855  12.477  11.334  0.00  0.00     0.118 C 
ENDROOT
BRANCH   6  20
HETATM   20  C   UNK N   1      30.205  17.429   6.023  0.00  0.00    -0.013 C 
HETATM   21  C   UNK N   1      29.547  17.612   4.663  0.00  0.00     0.010 C 
BRANCH  20  22
HETATM   22  C   UNK N   1      29.199  16.973   7.074  0.00  0.00     0.015 C 
BRANCH  22  23
HETATM   23  C   UNK N   1      28.875  18.133   8.015  0.00  0.00     0.110 C 
BRANCH  23  24
HETATM   24  C   UNK N   1      28.810  17.709   9.458  0.00  0.00     0.139 C 
HETATM   25  O   UNK N   1      27.897  17.008   9.866  0.00  0.00    -0.650 OA
BRANCH  24  26
HETATM   26  O   UNK N   1      29.781  18.096  10.306  0.00  0.00    -0.776 OA
HETATM   27  H   UNK N   1      29.728  18.811  10.910  0.00  0.00     0.167 HD
ENDBRANCH  24  26
ENDBRANCH  23  24
ENDBRANCH  22  23
ENDBRANCH  20  22
ENDBRANCH   6  20
BRANCH  10  28
HETATM   28  O   UNK N   1      35.988  14.720   5.589  0.00  0.00    -0.395 OA
HETATM   29  H   UNK N   1      35.852  13.866   5.150  0.00  0.00     0.210 HD
ENDBRANCH  10  28
BRANCH  19  30
HETATM   30  O   UNK N   1      38.075  13.050  11.693  0.00  0.00    -0.396 OA
HETATM   31  H   UNK N   1      38.609  13.859  11.652  0.00  0.00     0.210 HD
ENDBRANCH  19  30
TORSDOF 7
ENDMDL
MODEL 7
REMARK VINA RESULT:      -6.9      3.563      9.748
REMARK  7 active torsions:
REMARK  status: ('A' for Active; 'I' for Inactive)
REMARK    1  A    between atoms: C_14  and  O_1 
REMARK    2  A    between atoms: C_24  and  O_2 
REMARK    3  A    between atoms: O_3  and  C_28 
REMARK    4  A    between atoms: C_10  and  C_20 
REMARK    5  A    between atoms: C_20  and  C_25 
REMARK    6  A    between atoms: C_25  and  C_27 
REMARK    7  A    between atoms: C_27  and  C_28 
ROOT
HETATM    1  C   UNK N   1      35.240  10.929  17.618  0.00  0.00     0.001 C 
HETATM    2  C   UNK N   1      35.517   9.436  17.833  0.00  0.00    -0.036 C 
HETATM    3  C   UNK N   1      36.192  11.558  16.570  0.00  0.00     0.024 C 
HETATM    4  C   UNK N   1      35.999  10.756  15.240  0.00  0.00     0.001 C 
HETATM    5  C   UNK N   1      36.848  11.344  14.081  0.00  0.00    -0.036 C 
HETATM    6  C   UNK N   1      34.466   9.144  18.911  0.00  0.00    -0.002 C 
HETATM    7  C   UNK N   1      36.540  12.882  13.882  0.00  0.00    -0.001 C 
HETATM    8  C   UNK N   1      35.331   8.675  16.522  0.00  0.00     0.010 C 
HETATM    9  C   UNK N   1      36.263   9.250  15.451  0.00  0.00     0.007 C 
HETATM   10  C   UNK N   1      35.979  13.083  16.328  0.00  0.00     0.123 C 
HETATM   11  C   UNK N   1      35.238  11.470  19.047  0.00  0.00     0.006 C 
HETATM   12  C   UNK N   1      34.641  10.319  19.886  0.00  0.00     0.006 C 
HETATM   13  C   UNK N   1      35.541  13.432  14.907  0.00  0.00     0.037 C 
HETATM   14  C   UNK N   1      36.532  10.542  12.800  0.00  0.00     0.012 C 
HETATM   15  C   UNK N   1      36.944   9.184  18.360  0.00  0.00     0.016 C 
HETATM   16  C   UNK N   1      35.983  13.196  12.487  0.00  0.00     0.037 C 
HETATM   17  C   UNK N   1      38.337  11.161  14.395  0.00  0.00     0.016 C 
HETATM   18  C   UNK N   1      37.202  11.144  11.566  0.00  0.00     0.032 C 
HETATM   19  C   UNK N   1      36.871  12.628  11.374  0.00  0.00     0.118 C 
ENDROOT
BRANCH   6  20
HETATM   20  C   UNK N   1      34.451   7.763  19.584  0.00  0.00    -0.013 C 
HETATM   21  C   UNK N   1      34.882   7.817  21.043  0.00  0.00     0.010 C 
BRANCH  20  22
HETATM   22  C   UNK N   1      33.167   6.959  19.411  0.00  0.00     0.015 C 
BRANCH  22  23
HETATM   23  C   UNK N   1      32.311   7.077  20.671  0.00  0.00     0.110 C 
BRANCH  23  24
HETATM   24  C   UNK N   1      31.310   8.200  20.589  0.00  0.00     0.139 C 
HETATM   25  O   UNK N   1      31.569   9.305  21.040  0.00  0.00    -0.650 OA
BRANCH  24  26
HETATM   26  O   UNK N   1      30.121   7.986  19.997  0.00  0.00    -0.776 OA
HETATM   27  H   UNK N   1      29.556   8.647  19.648  0.00  0.00     0.167 HD
ENDBRANCH  24  26
ENDBRANCH  23  24
ENDBRANCH  22  23
ENDBRANCH  20  22
ENDBRANCH   6  20
BRANCH  10  28
HETATM   28  O   UNK N   1      35.134  13.687  17.261  0.00  0.00    -0.395 OA
HETATM   29  H   UNK N   1      34.782  13.243  18.048  0.00  0.00     0.210 HD
ENDBRANCH  10  28
BRANCH  19  30
HETATM   30  O   UNK N   1      38.056  13.358  11.281  0.00  0.00    -0.396 OA
HETATM   31  H   UNK N   1      38.723  13.702  10.666  0.00  0.00     0.210 HD
ENDBRANCH  19  30
TORSDOF 7
ENDMDL
MODEL 8
REMARK VINA RESULT:      -6.8      9.717     13.453
REMARK  7 active torsions:
REMARK  status: ('A' for Active; 'I' for Inactive)
REMARK    1  A    between atoms: C_14  and  O_1 
REMARK    2  A    between atoms: C_24  and  O_2 
REMARK    3  A    between atoms: O_3  and  C_28 
REMARK    4  A    between atoms: C_10  and  C_20 
REMARK    5  A    between atoms: C_20  and  C_25 
REMARK    6  A    between atoms: C_25  and  C_27 
REMARK    7  A    between atoms: C_27  and  C_28 
ROOT
HETATM    1  C   UNK N   1      25.890  17.546   4.976  0.00  0.00     0.001 C 
HETATM    2  C   UNK N   1      26.973  16.575   5.463  0.00  0.00    -0.036 C 
HETATM    3  C   UNK N   1      24.553  16.826   4.665  0.00  0.00     0.024 C 
HETATM    4  C   UNK N   1      24.108  16.106   5.982  0.00  0.00     0.001 C 
HETATM    5  C   UNK N   1      22.730  15.408   5.822  0.00  0.00    -0.036 C 
HETATM    6  C   UNK N   1      28.129  17.567   5.640  0.00  0.00    -0.002 C 
HETATM    7  C   UNK N   1      21.634  16.432   5.321  0.00  0.00    -0.001 C 
HETATM    8  C   UNK N   1      26.515  15.879   6.743  0.00  0.00     0.010 C 
HETATM    9  C   UNK N   1      25.198  15.137   6.487  0.00  0.00     0.007 C 
HETATM   10  C   UNK N   1      23.419  17.757   4.139  0.00  0.00     0.123 C 
HETATM   11  C   UNK N   1      26.608  18.303   3.860  0.00  0.00     0.006 C 
HETATM   12  C   UNK N   1      28.071  18.394   4.346  0.00  0.00     0.006 C 
HETATM   13  C   UNK N   1      22.200  17.833   5.054  0.00  0.00     0.037 C 
HETATM   14  C   UNK N   1      22.341  14.798   7.186  0.00  0.00     0.012 C 
HETATM   15  C   UNK N   1      27.309  15.507   4.404  0.00  0.00     0.016 C 
HETATM   16  C   UNK N   1      20.476  16.588   6.315  0.00  0.00     0.037 C 
HETATM   17  C   UNK N   1      22.854  14.262   4.812  0.00  0.00     0.016 C 
HETATM   18  C   UNK N   1      20.926  14.221   7.174  0.00  0.00     0.032 C 
HETATM   19  C   UNK N   1      19.874  15.235   6.711  0.00  0.00     0.118 C 
ENDROOT
BRANCH   6  20
HETATM   20  C   UNK N   1      29.527  17.029   5.982  0.00  0.00    -0.013 C 
HETATM   21  C   UNK N   1      30.555  17.336   4.901  0.00  0.00     0.010 C 
BRANCH  20  22
HETATM   22  C   UNK N   1      30.051  17.390   7.368  0.00  0.00     0.015 C 
BRANCH  22  23
HETATM   23  C   UNK N   1      29.274  18.586   7.917  0.00  0.00     0.110 C 
BRANCH  23  24
HETATM   24  C   UNK N   1      28.743  18.345   9.306  0.00  0.00     0.139 C 
HETATM   25  O   UNK N   1      29.449  18.526  10.287  0.00  0.00    -0.650 OA
BRANCH  24  26
HETATM   26  O   UNK N   1      27.471  17.941   9.468  0.00  0.00    -0.776 OA
HETATM   27  H   UNK N   1      26.827  17.872   8.789  0.00  0.00     0.167 HD
ENDBRANCH  24  26
ENDBRANCH  23  24
ENDBRANCH  22  23
ENDBRANCH  20  22
ENDBRANCH   6  20
BRANCH  10  28
HETATM   28  O   UNK N   1      23.856  19.039   3.801  0.00  0.00    -0.395 OA
HETATM   29  H   UNK N   1      24.787  19.310   3.773  0.00  0.00     0.210 HD
ENDBRANCH  10  28
BRANCH  19  30
HETATM   30  O   UNK N   1      19.149  14.698   5.647  0.00  0.00    -0.396 OA
HETATM   31  H   UNK N   1      18.363  14.180   5.411  0.00  0.00     0.210 HD
ENDBRANCH  19  30
TORSDOF 7
ENDMDL
MODEL 9
REMARK VINA RESULT:      -6.6     21.629     23.350
REMARK  7 active torsions:
REMARK  status: ('A' for Active; 'I' for Inactive)
REMARK    1  A    between atoms: C_14  and  O_1 
REMARK    2  A    between atoms: C_24  and  O_2 
REMARK    3  A    between atoms: O_3  and  C_28 
REMARK    4  A    between atoms: C_10  and  C_20 
REMARK    5  A    between atoms: C_20  and  C_25 
REMARK    6  A    between atoms: C_25  and  C_27 
REMARK    7  A    between atoms: C_27  and  C_28 
ROOT
HETATM    1  C   UNK N   1      26.851  26.608  -4.900  0.00  0.00     0.001 C 
HETATM    2  C   UNK N   1      27.856  27.758  -4.752  0.00  0.00    -0.036 C 
HETATM    3  C   UNK N   1      27.116  25.756  -6.166  0.00  0.00     0.024 C 
HETATM    4  C   UNK N   1      28.578  25.209  -6.049  0.00  0.00     0.001 C 
HETATM    5  C   UNK N   1      28.940  24.268  -7.230  0.00  0.00    -0.036 C 
HETATM    6  C   UNK N   1      27.311  28.396  -3.469  0.00  0.00    -0.002 C 
HETATM    7  C   UNK N   1      27.889  23.094  -7.357  0.00  0.00    -0.001 C 
HETATM    8  C   UNK N   1      29.275  27.202  -4.647  0.00  0.00     0.010 C 
HETATM    9  C   UNK N   1      29.595  26.359  -5.886  0.00  0.00     0.007 C 
HETATM   10  C   UNK N   1      26.109  24.588  -6.388  0.00  0.00     0.123 C 
HETATM   11  C   UNK N   1      25.511  27.326  -4.747  0.00  0.00     0.006 C 
HETATM   12  C   UNK N   1      25.797  28.452  -3.731  0.00  0.00     0.006 C 
HETATM   13  C   UNK N   1      26.744  23.200  -6.341  0.00  0.00     0.037 C 
HETATM   14  C   UNK N   1      30.362  23.719  -6.987  0.00  0.00     0.012 C 
HETATM   15  C   UNK N   1      27.789  28.739  -5.939  0.00  0.00     0.016 C 
HETATM   16  C   UNK N   1      28.528  21.710  -7.182  0.00  0.00     0.037 C 
HETATM   17  C   UNK N   1      28.963  25.072  -8.535  0.00  0.00     0.016 C 
HETATM   18  C   UNK N   1      30.752  22.659  -8.016  0.00  0.00     0.032 C 
HETATM   19  C   UNK N   1      29.735  21.516  -8.106  0.00  0.00     0.118 C 
ENDROOT
BRANCH   6  20
HETATM   20  C   UNK N   1      27.915  29.722  -2.980  0.00  0.00    -0.013 C 
HETATM   21  C   UNK N   1      26.909  30.864  -2.991  0.00  0.00     0.010 C 
BRANCH  20  22
HETATM   22  C   UNK N   1      28.669  29.655  -1.657  0.00  0.00     0.015 C 
BRANCH  22  23
HETATM   23  C   UNK N   1      28.103  30.691  -0.687  0.00  0.00     0.110 C 
BRANCH  23  24
HETATM   24  C   UNK N   1      28.200  30.254   0.751  0.00  0.00     0.139 C 
HETATM   25  O   UNK N   1      28.894  30.869   1.547  0.00  0.00    -0.650 OA
BRANCH  24  26
HETATM   26  O   UNK N   1      27.501  29.183   1.167  0.00  0.00    -0.776 OA
HETATM   27  H   UNK N   1      26.567  29.108   1.175  0.00  0.00     0.167 HD
ENDBRANCH  24  26
ENDBRANCH  23  24
ENDBRANCH  22  23
ENDBRANCH  20  22
ENDBRANCH   6  20
BRANCH  10  28
HETATM   28  O   UNK N   1      24.993  24.641  -5.550  0.00  0.00    -0.395 OA
HETATM   29  H   UNK N   1      24.079  24.519  -5.850  0.00  0.00     0.210 HD
ENDBRANCH  10  28
BRANCH  19  30
HETATM   30  O   UNK N   1      29.316  21.373  -9.429  0.00  0.00    -0.396 OA
HETATM   31  H   UNK N   1      29.600  21.423 -10.356  0.00  0.00     0.210 HD
ENDBRANCH  19  30
TORSDOF 7
ENDMDL
