MODEL 1
REMARK VINA RESULT:      -6.4      0.000      0.000
REMARK  11 active torsions:
REMARK  status: ('A' for Active; 'I' for Inactive)
REMARK    1  A    between atoms: O_1  and  C_16 
REMARK    2  A    between atoms: O_1  and  C_21 
REMARK    3  A    between atoms: O_2  and  C_17 
REMARK    4  A    between atoms: O_2  and  C_20 
REMARK    5  A    between atoms: O_3  and  C_22 
REMARK    6  A    between atoms: N_6  and  C_21 
REMARK    7  A    between atoms: C_15  and  N_7 
REMARK       I    between atoms: N_13  and  C_27 
REMARK    8  A    between atoms: C_14  and  C_15 
REMARK    9  A    between atoms: C_15  and  C_20 
REMARK   10  A    between atoms: C_16  and  C_17 
REMARK   11  A    between atoms: C_16  and  C_22 
ROOT
HETATM    1  C   UNK N   1      34.345  13.609   9.695  0.00  0.00     0.301 C 
ENDROOT
BRANCH   1   2
HETATM    2  O   UNK N   1      34.407  14.366  10.864  0.00  0.00    -0.362 OA
BRANCH   2   3
HETATM    3  C   UNK N   1      35.764  14.628  11.038  0.00  0.00     0.171 C 
BRANCH   3   4
HETATM    4  C   UNK N   1      36.346  13.580  11.978  0.00  0.00     0.213 C 
BRANCH   4   5
HETATM    5  O   UNK N   1      36.404  14.049  13.270  0.00  0.00    -0.317 OA
BRANCH   5   6
HETATM    6  C   UNK N   1      35.674  13.516  14.281  0.00  0.00     0.281 C 
HETATM    7  O   UNK N   1      34.530  13.128  14.083  0.00  0.00    -0.263 OA
BRANCH   6   8
HETATM    8  C   UNK N   1      36.280  13.403  15.660  0.00  0.00     0.178 C 
BRANCH   8   9
HETATM    9  N   UNK N   1      36.975  14.643  15.985  0.00  0.00    -0.418 N 
HETATM   10  H   UNK N   1      37.064  14.947  16.955  0.00  0.00     0.150 HD
HETATM   11  H   UNK N   1      37.374  15.210  15.238  0.00  0.00     0.150 HD
ENDBRANCH   8   9
BRANCH   8  12
HETATM   12  C   UNK N   1      35.225  13.101  16.735  0.00  0.00     0.009 C 
HETATM   13  C   UNK N   1      35.399  11.700  17.296  0.00  0.00     0.012 C 
HETATM   14  C   UNK N   1      35.332  14.077  17.895  0.00  0.00     0.012 C 
ENDBRANCH   8  12
ENDBRANCH   6   8
ENDBRANCH   5   6
ENDBRANCH   4   5
ENDBRANCH   3   4
BRANCH   3  15
HETATM   15  C   UNK N   1      35.931  16.042  11.584  0.00  0.00     0.198 C 
BRANCH  15  16
HETATM   16  O   UNK N   1      34.954  16.885  11.052  0.00  0.00    -0.398 OA
HETATM   17  H   UNK N   1      34.813  17.144  10.129  0.00  0.00     0.209 HD
ENDBRANCH  15  16
ENDBRANCH   3  15
ENDBRANCH   2   3
ENDBRANCH   1   2
BRANCH   1  18
HETATM   18  N   UNK N   1      34.485  14.474   8.538  0.00  0.00    -0.305 N 
HETATM   19  C   UNK N   1      33.773  15.565   8.266  0.00  0.00     0.158 A 
HETATM   20  N   UNK N   1      32.752  16.088   8.989  0.00  0.00    -0.174 N 
HETATM   21  C   UNK N   1      34.219  16.121   7.126  0.00  0.00     0.147 A 
HETATM   22  C   UNK N   1      32.156  17.230   8.527  0.00  0.00     0.680 A 
HETATM   23  H   UNK N   1      32.448  15.658   9.820  0.00  0.00     0.186 HD
HETATM   24  N   UNK N   1      32.596  17.826   7.370  0.00  0.00    -0.154 N 
HETATM   25  N   UNK N   1      31.086  17.799   9.246  0.00  0.00    -0.234 N 
HETATM   26  C   UNK N   1      33.639  17.282   6.647  0.00  0.00     0.290 A 
ATOM     27  HN  UNK N   1      32.146  18.680   7.041  1.00  0.00     0.187 HD
HETATM   28  O   UNK N   1      34.030  17.815   5.625  0.00  0.00    -0.265 OA
HETATM   29  H   UNK N   1      30.680  17.306   9.996  0.00  0.00     0.174 HD
HETATM   30  H   UNK N   1      30.745  18.687   8.999  0.00  0.00     0.174 HD
HETATM   31  N   UNK N   1      35.236  15.386   6.629  0.00  0.00    -0.345 N 
HETATM   32  C   UNK N   1      35.382  14.368   7.525  0.00  0.00     0.187 A 
ATOM     33  HN  UNK N   1      35.773  15.555   5.778  1.00  0.00     0.167 HD
ENDBRANCH   1  18
TORSDOF 11
ENDMDL
MODEL 2
REMARK VINA RESULT:      -6.3     12.635     14.981
REMARK  11 active torsions:
REMARK  status: ('A' for Active; 'I' for Inactive)
REMARK    1  A    between atoms: O_1  and  C_16 
REMARK    2  A    between atoms: O_1  and  C_21 
REMARK    3  A    between atoms: O_2  and  C_17 
REMARK    4  A    between atoms: O_2  and  C_20 
REMARK    5  A    between atoms: O_3  and  C_22 
REMARK    6  A    between atoms: N_6  and  C_21 
REMARK    7  A    between atoms: C_15  and  N_7 
REMARK       I    between atoms: N_13  and  C_27 
REMARK    8  A    between atoms: C_14  and  C_15 
REMARK    9  A    between atoms: C_15  and  C_20 
REMARK   10  A    between atoms: C_16  and  C_17 
REMARK   11  A    between atoms: C_16  and  C_22 
ROOT
HETATM    1  C   UNK N   1      20.613  16.170   5.624  0.00  0.00     0.301 C 
ENDROOT
BRANCH   1   2
HETATM    2  O   UNK N   1      19.535  16.392   6.479  0.00  0.00    -0.362 OA
BRANCH   2   3
HETATM    3  C   UNK N   1      20.078  16.294   7.758  0.00  0.00     0.171 C 
BRANCH   3   4
HETATM    4  C   UNK N   1      20.524  14.856   7.989  0.00  0.00     0.213 C 
BRANCH   4   5
HETATM    5  O   UNK N   1      21.217  14.735   9.172  0.00  0.00    -0.317 OA
BRANCH   5   6
HETATM    6  C   UNK N   1      21.129  13.642   9.970  0.00  0.00     0.281 C 
HETATM    7  O   UNK N   1      20.037  13.211  10.312  0.00  0.00    -0.263 OA
BRANCH   6   8
HETATM    8  C   UNK N   1      22.392  12.956  10.437  0.00  0.00     0.178 C 
BRANCH   8   9
HETATM    9  N   UNK N   1      22.050  11.667  11.028  0.00  0.00    -0.418 N 
HETATM   10  H   UNK N   1      21.157  11.222  10.815  0.00  0.00     0.150 HD
HETATM   11  H   UNK N   1      22.708  11.208  11.656  0.00  0.00     0.150 HD
ENDBRANCH   8   9
BRANCH   8  12
HETATM   12  C   UNK N   1      23.398  12.755   9.295  0.00  0.00     0.009 C 
HETATM   13  C   UNK N   1      24.812  13.080   9.746  0.00  0.00     0.012 C 
HETATM   14  C   UNK N   1      23.390  11.315   8.808  0.00  0.00     0.012 C 
ENDBRANCH   8  12
ENDBRANCH   6   8
ENDBRANCH   5   6
ENDBRANCH   4   5
ENDBRANCH   3   4
BRANCH   3  15
HETATM   15  C   UNK N   1      19.036  16.742   8.776  0.00  0.00     0.198 C 
BRANCH  15  16
HETATM   16  O   UNK N   1      18.430  15.633   9.369  0.00  0.00    -0.398 OA
HETATM   17  H   UNK N   1      18.109  15.530  10.278  0.00  0.00     0.209 HD
ENDBRANCH  15  16
ENDBRANCH   3  15
ENDBRANCH   2   3
ENDBRANCH   1   2
BRANCH   1  18
HETATM   18  N   UNK N   1      20.822  17.332   4.779  0.00  0.00    -0.305 N 
HETATM   19  C   UNK N   1      20.509  17.449   3.491  0.00  0.00     0.158 A 
HETATM   20  N   UNK N   1      19.958  16.510   2.685  0.00  0.00    -0.174 N 
HETATM   21  C   UNK N   1      20.819  18.687   3.065  0.00  0.00     0.147 A 
HETATM   22  C   UNK N   1      19.711  16.845   1.381  0.00  0.00     0.680 A 
HETATM   23  H   UNK N   1      19.742  15.612   3.026  0.00  0.00     0.186 HD
HETATM   24  N   UNK N   1      20.009  18.104   0.918  0.00  0.00    -0.154 N 
HETATM   25  N   UNK N   1      19.147  15.893   0.509  0.00  0.00    -0.234 N 
HETATM   26  C   UNK N   1      20.568  19.051   1.753  0.00  0.00     0.290 A 
ATOM     27  HN  UNK N   1      19.814  18.343  -0.055  1.00  0.00     0.187 HD
HETATM   28  O   UNK N   1      20.825  20.168   1.343  0.00  0.00    -0.265 OA
HETATM   29  H   UNK N   1      19.059  14.955   0.796  0.00  0.00     0.174 HD
HETATM   30  H   UNK N   1      18.842  16.165  -0.385  0.00  0.00     0.174 HD
HETATM   31  N   UNK N   1      21.351  19.398   4.080  0.00  0.00    -0.345 N 
HETATM   32  C   UNK N   1      21.342  18.534   5.135  0.00  0.00     0.187 A 
ATOM     33  HN  UNK N   1      21.683  20.363   4.062  1.00  0.00     0.167 HD
ENDBRANCH   1  18
TORSDOF 11
ENDMDL
MODEL 3
REMARK VINA RESULT:      -6.3      1.818      2.410
REMARK  11 active torsions:
REMARK  status: ('A' for Active; 'I' for Inactive)
REMARK    1  A    between atoms: O_1  and  C_16 
REMARK    2  A    between atoms: O_1  and  C_21 
REMARK    3  A    between atoms: O_2  and  C_17 
REMARK    4  A    between atoms: O_2  and  C_20 
REMARK    5  A    between atoms: O_3  and  C_22 
REMARK    6  A    between atoms: N_6  and  C_21 
REMARK    7  A    between atoms: C_15  and  N_7 
REMARK       I    between atoms: N_13  and  C_27 
REMARK    8  A    between atoms: C_14  and  C_15 
REMARK    9  A    between atoms: C_15  and  C_20 
REMARK   10  A    between atoms: C_16  and  C_17 
REMARK   11  A    between atoms: C_16  and  C_22 
ROOT
HETATM    1  C   UNK N   1      34.322  16.368   8.726  0.00  0.00     0.301 C 
ENDROOT
BRANCH   1   2
HETATM    2  O   UNK N   1      33.895  15.697   9.871  0.00  0.00    -0.362 OA
BRANCH   2   3
HETATM    3  C   UNK N   1      35.053  15.122  10.391  0.00  0.00     0.171 C 
BRANCH   3   4
HETATM    4  C   UNK N   1      34.667  14.218  11.555  0.00  0.00     0.213 C 
BRANCH   4   5
HETATM    5  O   UNK N   1      35.470  14.447  12.648  0.00  0.00    -0.317 OA
BRANCH   5   6
HETATM    6  C   UNK N   1      36.379  13.545  13.098  0.00  0.00     0.281 C 
HETATM    7  O   UNK N   1      37.120  12.969  12.315  0.00  0.00    -0.263 OA
BRANCH   6   8
HETATM    8  C   UNK N   1      36.472  13.256  14.578  0.00  0.00     0.178 C 
BRANCH   8   9
HETATM    9  N   UNK N   1      37.193  14.338  15.237  0.00  0.00    -0.418 N 
HETATM   10  H   UNK N   1      37.998  14.136  15.832  0.00  0.00     0.150 HD
HETATM   11  H   UNK N   1      36.892  15.302  15.103  0.00  0.00     0.150 HD
ENDBRANCH   8   9
BRANCH   8  12
HETATM   12  C   UNK N   1      35.089  13.084  15.223  0.00  0.00     0.009 C 
HETATM   13  C   UNK N   1      34.416  11.807  14.747  0.00  0.00     0.012 C 
HETATM   14  C   UNK N   1      35.199  13.008  16.738  0.00  0.00     0.012 C 
ENDBRANCH   8  12
ENDBRANCH   6   8
ENDBRANCH   5   6
ENDBRANCH   4   5
ENDBRANCH   3   4
BRANCH   3  15
HETATM   15  C   UNK N   1      36.008  16.230  10.819  0.00  0.00     0.198 C 
BRANCH  15  16
HETATM   16  O   UNK N   1      37.331  15.799  10.707  0.00  0.00    -0.398 OA
HETATM   17  H   UNK N   1      37.665  14.910  10.511  0.00  0.00     0.209 HD
ENDBRANCH  15  16
ENDBRANCH   3  15
ENDBRANCH   2   3
ENDBRANCH   1   2
BRANCH   1  18
HETATM   18  N   UNK N   1      33.253  16.404   7.746  0.00  0.00    -0.305 N 
HETATM   19  C   UNK N   1      32.048  16.950   7.897  0.00  0.00     0.158 A 
HETATM   20  N   UNK N   1      31.550  17.562   9.000  0.00  0.00    -0.174 N 
HETATM   21  C   UNK N   1      31.348  16.818   6.757  0.00  0.00     0.147 A 
HETATM   22  C   UNK N   1      30.278  18.062   8.938  0.00  0.00     0.680 A 
HETATM   23  H   UNK N   1      32.088  17.643   9.820  0.00  0.00     0.186 HD
HETATM   24  N   UNK N   1      29.541  17.950   7.783  0.00  0.00    -0.154 N 
HETATM   25  N   UNK N   1      29.722  18.698  10.065  0.00  0.00    -0.234 N 
HETATM   26  C   UNK N   1      30.064  17.325   6.669  0.00  0.00     0.290 A 
ATOM     27  HN  UNK N   1      28.596  18.333   7.750  1.00  0.00     0.187 HD
HETATM   28  O   UNK N   1      29.412  17.233   5.645  0.00  0.00    -0.265 OA
HETATM   29  H   UNK N   1      30.190  18.661  10.931  0.00  0.00     0.174 HD
HETATM   30  H   UNK N   1      28.867  19.178   9.988  0.00  0.00     0.174 HD
HETATM   31  N   UNK N   1      32.094  16.169   5.838  0.00  0.00    -0.345 N 
HETATM   32  C   UNK N   1      33.273  15.923   6.477  0.00  0.00     0.187 A 
ATOM     33  HN  UNK N   1      31.834  15.921   4.883  1.00  0.00     0.167 HD
ENDBRANCH   1  18
TORSDOF 11
ENDMDL
MODEL 4
REMARK VINA RESULT:      -6.1     14.161     16.989
REMARK  11 active torsions:
REMARK  status: ('A' for Active; 'I' for Inactive)
REMARK    1  A    between atoms: O_1  and  C_16 
REMARK    2  A    between atoms: O_1  and  C_21 
REMARK    3  A    between atoms: O_2  and  C_17 
REMARK    4  A    between atoms: O_2  and  C_20 
REMARK    5  A    between atoms: O_3  and  C_22 
REMARK    6  A    between atoms: N_6  and  C_21 
REMARK    7  A    between atoms: C_15  and  N_7 
REMARK       I    between atoms: N_13  and  C_27 
REMARK    8  A    between atoms: C_14  and  C_15 
REMARK    9  A    between atoms: C_15  and  C_20 
REMARK   10  A    between atoms: C_16  and  C_17 
REMARK   11  A    between atoms: C_16  and  C_22 
ROOT
HETATM    1  C   UNK N   1      21.845  18.225   5.662  0.00  0.00     0.301 C 
ENDROOT
BRANCH   1   2
HETATM    2  O   UNK N   1      21.728  17.982   4.295  0.00  0.00    -0.362 OA
BRANCH   2   3
HETATM    3  C   UNK N   1      20.911  19.008   3.826  0.00  0.00     0.171 C 
BRANCH   3   4
HETATM    4  C   UNK N   1      19.832  18.403   2.935  0.00  0.00     0.213 C 
BRANCH   4   5
HETATM    5  O   UNK N   1      20.249  18.338   1.626  0.00  0.00    -0.317 OA
BRANCH   5   6
HETATM    6  C   UNK N   1      20.284  17.181   0.919  0.00  0.00     0.281 C 
HETATM    7  O   UNK N   1      20.297  17.202  -0.304  0.00  0.00    -0.263 OA
BRANCH   6   8
HETATM    8  C   UNK N   1      20.309  15.860   1.652  0.00  0.00     0.178 C 
BRANCH   8   9
HETATM    9  N   UNK N   1      19.092  15.117   1.348  0.00  0.00    -0.418 N 
HETATM   10  H   UNK N   1      18.840  14.292   1.893  0.00  0.00     0.150 HD
HETATM   11  H   UNK N   1      18.488  15.424   0.587  0.00  0.00     0.150 HD
ENDBRANCH   8   9
BRANCH   8  12
HETATM   12  C   UNK N   1      21.539  15.016   1.284  0.00  0.00     0.009 C 
HETATM   13  C   UNK N   1      22.443  14.811   2.488  0.00  0.00     0.012 C 
HETATM   14  C   UNK N   1      21.128  13.643   0.779  0.00  0.00     0.012 C 
ENDBRANCH   8  12
ENDBRANCH   6   8
ENDBRANCH   5   6
ENDBRANCH   4   5
ENDBRANCH   3   4
BRANCH   3  15
HETATM   15  C   UNK N   1      21.767  20.024   3.079  0.00  0.00     0.198 C 
BRANCH  15  16
HETATM   16  O   UNK N   1      21.072  21.224   2.926  0.00  0.00    -0.398 OA
HETATM   17  H   UNK N   1      20.381  21.448   2.283  0.00  0.00     0.209 HD
ENDBRANCH  15  16
ENDBRANCH   3  15
ENDBRANCH   2   3
ENDBRANCH   1   2
BRANCH   1  18
HETATM   18  N   UNK N   1      21.675  16.987   6.401  0.00  0.00    -0.305 N 
HETATM   19  C   UNK N   1      20.797  16.751   7.372  0.00  0.00     0.158 A 
HETATM   20  N   UNK N   1      19.894  17.614   7.899  0.00  0.00    -0.174 N 
HETATM   21  C   UNK N   1      20.916  15.477   7.785  0.00  0.00     0.147 A 
HETATM   22  C   UNK N   1      19.075  17.158   8.896  0.00  0.00     0.680 A 
HETATM   23  H   UNK N   1      19.831  18.541   7.575  0.00  0.00     0.186 HD
HETATM   24  N   UNK N   1      19.168  15.859   9.334  0.00  0.00    -0.154 N 
HETATM   25  N   UNK N   1      18.130  18.028   9.475  0.00  0.00    -0.234 N 
HETATM   26  C   UNK N   1      20.091  14.992   8.785  0.00  0.00     0.290 A 
ATOM     27  HN  UNK N   1      18.546  15.531  10.074  1.00  0.00     0.187 HD
HETATM   28  O   UNK N   1      20.166  13.840   9.170  0.00  0.00    -0.265 OA
HETATM   29  H   UNK N   1      18.151  18.989   9.263  0.00  0.00     0.174 HD
HETATM   30  H   UNK N   1      17.449  17.675  10.091  0.00  0.00     0.174 HD
HETATM   31  N   UNK N   1      21.891  14.860   7.085  0.00  0.00    -0.345 N 
HETATM   32  C   UNK N   1      22.348  15.821   6.231  0.00  0.00     0.187 A 
ATOM     33  HN  UNK N   1      22.212  13.896   7.175  1.00  0.00     0.167 HD
ENDBRANCH   1  18
TORSDOF 11
ENDMDL
MODEL 5
REMARK VINA RESULT:      -6.1      3.110      4.897
REMARK  11 active torsions:
REMARK  status: ('A' for Active; 'I' for Inactive)
REMARK    1  A    between atoms: O_1  and  C_16 
REMARK    2  A    between atoms: O_1  and  C_21 
REMARK    3  A    between atoms: O_2  and  C_17 
REMARK    4  A    between atoms: O_2  and  C_20 
REMARK    5  A    between atoms: O_3  and  C_22 
REMARK    6  A    between atoms: N_6  and  C_21 
REMARK    7  A    between atoms: C_15  and  N_7 
REMARK       I    between atoms: N_13  and  C_27 
REMARK    8  A    between atoms: C_14  and  C_15 
REMARK    9  A    between atoms: C_15  and  C_20 
REMARK   10  A    between atoms: C_16  and  C_17 
REMARK   11  A    between atoms: C_16  and  C_22 
ROOT
HETATM    1  C   UNK N   1      32.136  16.387   6.916  0.00  0.00     0.301 C 
ENDROOT
BRANCH   1   2
HETATM    2  O   UNK N   1      32.746  17.433   7.606  0.00  0.00    -0.362 OA
BRANCH   2   3
HETATM    3  C   UNK N   1      33.007  16.911   8.871  0.00  0.00     0.171 C 
BRANCH   3   4
HETATM    4  C   UNK N   1      34.514  16.918   9.099  0.00  0.00     0.213 C 
BRANCH   4   5
HETATM    5  O   UNK N   1      34.976  15.655   9.393  0.00  0.00    -0.317 OA
BRANCH   5   6
HETATM    6  C   UNK N   1      35.953  15.421  10.305  0.00  0.00     0.281 C 
HETATM    7  O   UNK N   1      36.628  16.344  10.740  0.00  0.00    -0.263 OA
BRANCH   6   8
HETATM    8  C   UNK N   1      36.204  14.010  10.783  0.00  0.00     0.178 C 
BRANCH   8   9
HETATM    9  N   UNK N   1      37.559  13.915  11.314  0.00  0.00    -0.418 N 
HETATM   10  H   UNK N   1      37.736  13.429  12.194  0.00  0.00     0.150 HD
HETATM   11  H   UNK N   1      38.334  14.335  10.802  0.00  0.00     0.150 HD
ENDBRANCH   8   9
BRANCH   8  12
HETATM   12  C   UNK N   1      35.194  13.573  11.854  0.00  0.00     0.009 C 
HETATM   13  C   UNK N   1      34.994  12.067  11.838  0.00  0.00     0.012 C 
HETATM   14  C   UNK N   1      35.671  13.959  13.245  0.00  0.00     0.012 C 
ENDBRANCH   8  12
ENDBRANCH   6   8
ENDBRANCH   5   6
ENDBRANCH   4   5
ENDBRANCH   3   4
BRANCH   3  15
HETATM   15  C   UNK N   1      32.421  15.507   8.960  0.00  0.00     0.198 C 
BRANCH  15  16
HETATM   16  O   UNK N   1      32.259  15.133  10.296  0.00  0.00    -0.398 OA
HETATM   17  H   UNK N   1      31.924  15.661  11.037  0.00  0.00     0.209 HD
ENDBRANCH  15  16
ENDBRANCH   3  15
ENDBRANCH   2   3
ENDBRANCH   1   2
BRANCH   1  18
HETATM   18  N   UNK N   1      31.098  16.908   6.045  0.00  0.00    -0.305 N 
HETATM   19  C   UNK N   1      29.942  17.453   6.418  0.00  0.00     0.158 A 
HETATM   20  N   UNK N   1      29.472  17.612   7.679  0.00  0.00    -0.174 N 
HETATM   21  C   UNK N   1      29.263  17.853   5.328  0.00  0.00     0.147 A 
HETATM   22  C   UNK N   1      28.250  18.207   7.839  0.00  0.00     0.680 A 
HETATM   23  H   UNK N   1      29.993  17.309   8.456  0.00  0.00     0.186 HD
HETATM   24  N   UNK N   1      27.535  18.634   6.745  0.00  0.00    -0.154 N 
HETATM   25  N   UNK N   1      27.723  18.383   9.133  0.00  0.00    -0.234 N 
HETATM   26  C   UNK N   1      28.030  18.466   5.467  0.00  0.00     0.290 A 
ATOM     27  HN  UNK N   1      26.628  19.081   6.880  1.00  0.00     0.187 HD
HETATM   28  O   UNK N   1      27.397  18.850   4.501  0.00  0.00    -0.265 OA
HETATM   29  H   UNK N   1      28.164  17.960   9.905  0.00  0.00     0.174 HD
HETATM   30  H   UNK N   1      26.915  18.928   9.265  0.00  0.00     0.174 HD
HETATM   31  N   UNK N   1      29.972  17.565   4.218  0.00  0.00    -0.345 N 
HETATM   32  C   UNK N   1      31.109  16.978   4.690  0.00  0.00     0.187 A 
ATOM     33  HN  UNK N   1      29.715  17.745   3.247  1.00  0.00     0.167 HD
ENDBRANCH   1  18
TORSDOF 11
ENDMDL
MODEL 6
REMARK VINA RESULT:      -6.0      1.993      2.674
REMARK  11 active torsions:
REMARK  status: ('A' for Active; 'I' for Inactive)
REMARK    1  A    between atoms: O_1  and  C_16 
REMARK    2  A    between atoms: O_1  and  C_21 
REMARK    3  A    between atoms: O_2  and  C_17 
REMARK    4  A    between atoms: O_2  and  C_20 
REMARK    5  A    between atoms: O_3  and  C_22 
REMARK    6  A    between atoms: N_6  and  C_21 
REMARK    7  A    between atoms: C_15  and  N_7 
REMARK       I    between atoms: N_13  and  C_27 
REMARK    8  A    between atoms: C_14  and  C_15 
REMARK    9  A    between atoms: C_15  and  C_20 
REMARK   10  A    between atoms: C_16  and  C_17 
REMARK   11  A    between atoms: C_16  and  C_22 
ROOT
HETATM    1  C   UNK N   1      34.302  13.821  10.360  0.00  0.00     0.301 C 
ENDROOT
BRANCH   1   2
HETATM    2  O   UNK N   1      35.003  13.344  11.467  0.00  0.00    -0.362 OA
BRANCH   2   3
HETATM    3  C   UNK N   1      35.787  12.308  10.964  0.00  0.00     0.171 C 
BRANCH   3   4
HETATM    4  C   UNK N   1      35.568  11.069  11.824  0.00  0.00     0.213 C 
BRANCH   4   5
HETATM    5  O   UNK N   1      36.399  11.073  12.920  0.00  0.00    -0.317 OA
BRANCH   5   6
HETATM    6  C   UNK N   1      35.965  10.803  14.177  0.00  0.00     0.281 C 
HETATM    7  O   UNK N   1      35.113   9.946  14.367  0.00  0.00    -0.263 OA
BRANCH   6   8
HETATM    8  C   UNK N   1      36.542  11.568  15.346  0.00  0.00     0.178 C 
BRANCH   8   9
HETATM    9  N   UNK N   1      37.158  12.797  14.861  0.00  0.00    -0.418 N 
HETATM   10  H   UNK N   1      38.173  12.908  14.878  0.00  0.00     0.150 HD
HETATM   11  H   UNK N   1      36.573  13.550  14.502  0.00  0.00     0.150 HD
ENDBRANCH   8   9
BRANCH   8  12
HETATM   12  C   UNK N   1      35.477  11.901  16.402  0.00  0.00     0.009 C 
HETATM   13  C   UNK N   1      35.726  11.138  17.691  0.00  0.00     0.012 C 
HETATM   14  C   UNK N   1      35.485  13.384  16.735  0.00  0.00     0.012 C 
ENDBRANCH   8  12
ENDBRANCH   6   8
ENDBRANCH   5   6
ENDBRANCH   4   5
ENDBRANCH   3   4
BRANCH   3  15
HETATM   15  C   UNK N   1      37.246  12.748  10.955  0.00  0.00     0.198 C 
BRANCH  15  16
HETATM   16  O   UNK N   1      37.511  13.571  12.051  0.00  0.00    -0.398 OA
HETATM   17  H   UNK N   1      36.902  14.148  12.537  0.00  0.00     0.209 HD
ENDBRANCH  15  16
ENDBRANCH   3  15
ENDBRANCH   2   3
ENDBRANCH   1   2
BRANCH   1  18
HETATM   18  N   UNK N   1      34.599  15.227  10.156  0.00  0.00    -0.305 N 
HETATM   19  C   UNK N   1      34.404  15.931   9.044  0.00  0.00     0.158 A 
HETATM   20  N   UNK N   1      33.917  15.487   7.859  0.00  0.00    -0.174 N 
HETATM   21  C   UNK N   1      34.763  17.210   9.252  0.00  0.00     0.147 A 
HETATM   22  C   UNK N   1      33.792  16.389   6.837  0.00  0.00     0.680 A 
HETATM   23  H   UNK N   1      33.662  14.545   7.737  0.00  0.00     0.186 HD
HETATM   24  N   UNK N   1      34.144  17.705   7.022  0.00  0.00    -0.154 N 
HETATM   25  N   UNK N   1      33.298  15.965   5.588  0.00  0.00    -0.234 N 
HETATM   26  C   UNK N   1      34.635  18.141   8.236  0.00  0.00     0.290 A 
ATOM     27  HN  UNK N   1      34.039  18.367   6.254  1.00  0.00     0.187 HD
HETATM   28  O   UNK N   1      34.940  19.308   8.400  0.00  0.00    -0.265 OA
HETATM   29  H   UNK N   1      33.174  15.004   5.408  0.00  0.00     0.174 HD
HETATM   30  H   UNK N   1      33.077  16.627   4.895  0.00  0.00     0.174 HD
HETATM   31  N   UNK N   1      35.210  17.357  10.517  0.00  0.00    -0.345 N 
HETATM   32  C   UNK N   1      35.097  16.110  11.059  0.00  0.00     0.187 A 
ATOM     33  HN  UNK N   1      35.553  18.207  10.965  1.00  0.00     0.167 HD
ENDBRANCH   1  18
TORSDOF 11
ENDMDL
MODEL 7
REMARK VINA RESULT:      -6.0      3.859      6.816
REMARK  11 active torsions:
REMARK  status: ('A' for Active; 'I' for Inactive)
REMARK    1  A    between atoms: O_1  and  C_16 
REMARK    2  A    between atoms: O_1  and  C_21 
REMARK    3  A    between atoms: O_2  and  C_17 
REMARK    4  A    between atoms: O_2  and  C_20 
REMARK    5  A    between atoms: O_3  and  C_22 
REMARK    6  A    between atoms: N_6  and  C_21 
REMARK    7  A    between atoms: C_15  and  N_7 
REMARK       I    between atoms: N_13  and  C_27 
REMARK    8  A    between atoms: C_14  and  C_15 
REMARK    9  A    between atoms: C_15  and  C_20 
REMARK   10  A    between atoms: C_16  and  C_17 
REMARK   11  A    between atoms: C_16  and  C_22 
ROOT
HETATM    1  C   UNK N   1      30.128  16.689   7.030  0.00  0.00     0.301 C 
ENDROOT
BRANCH   1   2
HETATM    2  O   UNK N   1      31.109  17.270   6.229  0.00  0.00    -0.362 OA
BRANCH   2   3
HETATM    3  C   UNK N   1      32.311  16.802   6.755  0.00  0.00     0.171 C 
BRANCH   3   4
HETATM    4  C   UNK N   1      32.854  17.839   7.730  0.00  0.00     0.213 C 
BRANCH   4   5
HETATM    5  O   UNK N   1      33.176  17.265   8.938  0.00  0.00    -0.317 OA
BRANCH   5   6
HETATM    6  C   UNK N   1      34.455  17.041   9.331  0.00  0.00     0.281 C 
HETATM    7  O   UNK N   1      35.237  17.973   9.452  0.00  0.00    -0.263 OA
BRANCH   6   8
HETATM    8  C   UNK N   1      34.911  15.630   9.620  0.00  0.00     0.178 C 
BRANCH   8   9
HETATM    9  N   UNK N   1      35.191  14.947   8.363  0.00  0.00    -0.418 N 
HETATM   10  H   UNK N   1      35.872  15.330   7.706  0.00  0.00     0.150 HD
HETATM   11  H   UNK N   1      34.704  14.080   8.138  0.00  0.00     0.150 HD
ENDBRANCH   8   9
BRANCH   8  12
HETATM   12  C   UNK N   1      36.155  15.596  10.519  0.00  0.00     0.009 C 
HETATM   13  C   UNK N   1      35.789  15.234  11.949  0.00  0.00     0.012 C 
HETATM   14  C   UNK N   1      37.157  14.565  10.026  0.00  0.00     0.012 C 
ENDBRANCH   8  12
ENDBRANCH   6   8
ENDBRANCH   5   6
ENDBRANCH   4   5
ENDBRANCH   3   4
BRANCH   3  15
HETATM   15  C   UNK N   1      33.282  16.528   5.612  0.00  0.00     0.198 C 
BRANCH  15  16
HETATM   16  O   UNK N   1      34.591  16.803   6.011  0.00  0.00    -0.398 OA
HETATM   17  H   UNK N   1      35.033  16.572   6.842  0.00  0.00     0.209 HD
ENDBRANCH  15  16
ENDBRANCH   3  15
ENDBRANCH   2   3
ENDBRANCH   1   2
BRANCH   1  18
HETATM   18  N   UNK N   1      29.212  17.709   7.508  0.00  0.00    -0.305 N 
HETATM   19  C   UNK N   1      28.540  18.588   6.769  0.00  0.00     0.158 A 
HETATM   20  N   UNK N   1      28.585  18.743   5.423  0.00  0.00    -0.174 N 
HETATM   21  C   UNK N   1      27.764  19.344   7.565  0.00  0.00     0.147 A 
HETATM   22  C   UNK N   1      27.801  19.714   4.861  0.00  0.00     0.680 A 
HETATM   23  H   UNK N   1      29.163  18.173   4.866  0.00  0.00     0.186 HD
HETATM   24  N   UNK N   1      26.992  20.497   5.648  0.00  0.00    -0.154 N 
HETATM   25  N   UNK N   1      27.826  19.911   3.466  0.00  0.00    -0.234 N 
HETATM   26  C   UNK N   1      26.956  20.326   7.017  0.00  0.00     0.290 A 
ATOM     27  HN  UNK N   1      26.409  21.214   5.215  1.00  0.00     0.187 HD
HETATM   28  O   UNK N   1      26.233  21.016   7.711  0.00  0.00    -0.265 OA
HETATM   29  H   UNK N   1      28.500  19.450   2.916  0.00  0.00     0.174 HD
HETATM   30  H   UNK N   1      27.171  20.509   3.042  0.00  0.00     0.174 HD
HETATM   31  N   UNK N   1      27.927  18.968   8.850  0.00  0.00    -0.345 N 
HETATM   32  C   UNK N   1      28.832  17.949   8.788  0.00  0.00     0.187 A 
ATOM     33  HN  UNK N   1      27.475  19.356   9.679  1.00  0.00     0.167 HD
ENDBRANCH   1  18
TORSDOF 11
ENDMDL
MODEL 8
REMARK VINA RESULT:      -5.9      2.116      7.910
REMARK  11 active torsions:
REMARK  status: ('A' for Active; 'I' for Inactive)
REMARK    1  A    between atoms: O_1  and  C_16 
REMARK    2  A    between atoms: O_1  and  C_21 
REMARK    3  A    between atoms: O_2  and  C_17 
REMARK    4  A    between atoms: O_2  and  C_20 
REMARK    5  A    between atoms: O_3  and  C_22 
REMARK    6  A    between atoms: N_6  and  C_21 
REMARK    7  A    between atoms: C_15  and  N_7 
REMARK       I    between atoms: N_13  and  C_27 
REMARK    8  A    between atoms: C_14  and  C_15 
REMARK    9  A    between atoms: C_15  and  C_20 
REMARK   10  A    between atoms: C_16  and  C_17 
REMARK   11  A    between atoms: C_16  and  C_22 
ROOT
HETATM    1  C   UNK N   1      36.553  13.229  10.807  0.00  0.00     0.301 C 
ENDROOT
BRANCH   1   2
HETATM    2  O   UNK N   1      36.630  14.619  10.887  0.00  0.00    -0.362 OA
BRANCH   2   3
HETATM    3  C   UNK N   1      36.080  15.068   9.689  0.00  0.00     0.171 C 
BRANCH   3   4
HETATM    4  C   UNK N   1      34.910  15.991  10.005  0.00  0.00     0.213 C 
BRANCH   4   5
HETATM    5  O   UNK N   1      35.194  17.291   9.655  0.00  0.00    -0.317 OA
BRANCH   5   6
HETATM    6  C   UNK N   1      34.523  17.958   8.683  0.00  0.00     0.281 C 
HETATM    7  O   UNK N   1      34.939  19.030   8.266  0.00  0.00    -0.263 OA
BRANCH   6   8
HETATM    8  C   UNK N   1      33.254  17.368   8.114  0.00  0.00     0.178 C 
BRANCH   8   9
HETATM    9  N   UNK N   1      32.102  17.989   8.757  0.00  0.00    -0.418 N 
HETATM   10  H   UNK N   1      31.597  17.500   9.497  0.00  0.00     0.150 HD
HETATM   11  H   UNK N   1      31.800  18.918   8.467  0.00  0.00     0.150 HD
ENDBRANCH   8   9
BRANCH   8  12
HETATM   12  C   UNK N   1      33.161  17.551   6.592  0.00  0.00     0.009 C 
HETATM   13  C   UNK N   1      34.157  16.660   5.870  0.00  0.00     0.012 C 
HETATM   14  C   UNK N   1      31.773  17.196   6.083  0.00  0.00     0.012 C 
ENDBRANCH   8  12
ENDBRANCH   6   8
ENDBRANCH   5   6
ENDBRANCH   4   5
ENDBRANCH   3   4
BRANCH   3  15
HETATM   15  C   UNK N   1      35.652  13.865   8.856  0.00  0.00     0.198 C 
BRANCH  15  16
HETATM   16  O   UNK N   1      34.488  14.158   8.144  0.00  0.00    -0.398 OA
HETATM   17  H   UNK N   1      33.588  14.290   8.481  0.00  0.00     0.209 HD
ENDBRANCH  15  16
ENDBRANCH   3  15
ENDBRANCH   2   3
ENDBRANCH   1   2
BRANCH   1  18
HETATM   18  N   UNK N   1      35.930  12.699  12.007  0.00  0.00    -0.305 N 
HETATM   19  C   UNK N   1      36.059  13.165  13.246  0.00  0.00     0.158 A 
HETATM   20  N   UNK N   1      36.817  14.209  13.663  0.00  0.00    -0.174 N 
HETATM   21  C   UNK N   1      35.299  12.436  14.082  0.00  0.00     0.147 A 
HETATM   22  C   UNK N   1      36.800  14.525  14.994  0.00  0.00     0.680 A 
HETATM   23  H   UNK N   1      37.362  14.725  13.026  0.00  0.00     0.186 HD
HETATM   24  N   UNK N   1      36.028  13.803  15.872  0.00  0.00    -0.154 N 
HETATM   25  N   UNK N   1      37.581  15.598  15.467  0.00  0.00    -0.234 N 
HETATM   26  C   UNK N   1      35.260  12.744  15.431  0.00  0.00     0.290 A 
ATOM     27  HN  UNK N   1      36.020  14.054  16.860  1.00  0.00     0.187 HD
HETATM   28  O   UNK N   1      34.571  12.110  16.209  0.00  0.00    -0.265 OA
HETATM   29  H   UNK N   1      38.237  16.030  14.872  0.00  0.00     0.174 HD
HETATM   30  H   UNK N   1      37.471  15.917  16.391  0.00  0.00     0.174 HD
HETATM   31  N   UNK N   1      34.662  11.468  13.391  0.00  0.00    -0.345 N 
HETATM   32  C   UNK N   1      35.070  11.653  12.103  0.00  0.00     0.187 A 
ATOM     33  HN  UNK N   1      34.021  10.761  13.750  1.00  0.00     0.167 HD
ENDBRANCH   1  18
TORSDOF 11
ENDMDL
MODEL 9
REMARK VINA RESULT:      -5.9     12.686     14.921
REMARK  11 active torsions:
REMARK  status: ('A' for Active; 'I' for Inactive)
REMARK    1  A    between atoms: O_1  and  C_16 
REMARK    2  A    between atoms: O_1  and  C_21 
REMARK    3  A    between atoms: O_2  and  C_17 
REMARK    4  A    between atoms: O_2  and  C_20 
REMARK    5  A    between atoms: O_3  and  C_22 
REMARK    6  A    between atoms: N_6  and  C_21 
REMARK    7  A    between atoms: C_15  and  N_7 
REMARK       I    between atoms: N_13  and  C_27 
REMARK    8  A    between atoms: C_14  and  C_15 
REMARK    9  A    between atoms: C_15  and  C_20 
REMARK   10  A    between atoms: C_16  and  C_17 
REMARK   11  A    between atoms: C_16  and  C_22 
ROOT
HETATM    1  C   UNK N   1      20.401  17.124   5.754  0.00  0.00     0.301 C 
ENDROOT
BRANCH   1   2
HETATM    2  O   UNK N   1      19.623  16.215   6.470  0.00  0.00    -0.362 OA
BRANCH   2   3
HETATM    3  C   UNK N   1      20.462  15.762   7.485  0.00  0.00     0.171 C 
BRANCH   3   4
HETATM    4  C   UNK N   1      20.707  14.271   7.287  0.00  0.00     0.213 C 
BRANCH   4   5
HETATM    5  O   UNK N   1      21.625  13.794   8.193  0.00  0.00    -0.317 OA
BRANCH   5   6
HETATM    6  C   UNK N   1      21.943  12.480   8.299  0.00  0.00     0.281 C 
HETATM    7  O   UNK N   1      21.523  11.673   7.481  0.00  0.00    -0.263 OA
BRANCH   6   8
HETATM    8  C   UNK N   1      22.822  12.014   9.436  0.00  0.00     0.178 C 
BRANCH   8   9
HETATM    9  N   UNK N   1      24.200  12.412   9.174  0.00  0.00    -0.418 N 
HETATM   10  H   UNK N   1      24.837  12.610   9.947  0.00  0.00     0.150 HD
HETATM   11  H   UNK N   1      24.530  12.492   8.213  0.00  0.00     0.150 HD
ENDBRANCH   8   9
BRANCH   8  12
HETATM   12  C   UNK N   1      22.366  12.578  10.790  0.00  0.00     0.009 C 
HETATM   13  C   UNK N   1      20.900  12.272  11.046  0.00  0.00     0.012 C 
HETATM   14  C   UNK N   1      23.168  11.973  11.931  0.00  0.00     0.012 C 
ENDBRANCH   8  12
ENDBRANCH   6   8
ENDBRANCH   5   6
ENDBRANCH   4   5
ENDBRANCH   3   4
BRANCH   3  15
HETATM   15  C   UNK N   1      19.817  16.061   8.834  0.00  0.00     0.198 C 
BRANCH  15  16
HETATM   16  O   UNK N   1      19.219  14.911   9.351  0.00  0.00    -0.398 OA
HETATM   17  H   UNK N   1      19.595  14.022   9.444  0.00  0.00     0.209 HD
ENDBRANCH  15  16
ENDBRANCH   3  15
ENDBRANCH   2   3
ENDBRANCH   1   2
BRANCH   1  18
HETATM   18  N   UNK N   1      20.258  16.883   4.330  0.00  0.00    -0.305 N 
HETATM   19  C   UNK N   1      20.372  17.779   3.353  0.00  0.00     0.158 A 
HETATM   20  N   UNK N   1      20.615  19.107   3.473  0.00  0.00    -0.174 N 
HETATM   21  C   UNK N   1      20.212  17.171   2.164  0.00  0.00     0.147 A 
HETATM   22  C   UNK N   1      20.699  19.852   2.328  0.00  0.00     0.680 A 
HETATM   23  H   UNK N   1      20.728  19.524   4.357  0.00  0.00     0.186 HD
HETATM   24  N   UNK N   1      20.548  19.257   1.098  0.00  0.00    -0.154 N 
HETATM   25  N   UNK N   1      20.942  21.237   2.412  0.00  0.00    -0.234 N 
HETATM   26  C   UNK N   1      20.303  17.903   0.993  0.00  0.00     0.290 A 
ATOM     27  HN  UNK N   1      20.619  19.824   0.252  1.00  0.00     0.187 HD
HETATM   28  O   UNK N   1      20.177  17.377  -0.098  0.00  0.00    -0.265 OA
HETATM   29  H   UNK N   1      20.915  21.689   3.286  0.00  0.00     0.174 HD
HETATM   30  H   UNK N   1      21.139  21.752   1.597  0.00  0.00     0.174 HD
HETATM   31  N   UNK N   1      19.983  15.855   2.353  0.00  0.00    -0.345 N 
HETATM   32  C   UNK N   1      20.016  15.701   3.708  0.00  0.00     0.187 A 
ATOM     33  HN  UNK N   1      19.821  15.139   1.644  1.00  0.00     0.167 HD
ENDBRANCH   1  18
TORSDOF 11
ENDMDL
