MODEL 1
REMARK VINA RESULT:      -7.3      0.000      0.000
REMARK  6 active torsions:
REMARK  status: ('A' for Active; 'I' for Inactive)
REMARK    1  A    between atoms: O_3  and  C_13 
REMARK    2  A    between atoms: N_4  and  C_10 
REMARK    3  A    between atoms: N_5  and  C_11 
REMARK    4  A    between atoms: C_10  and  C_12 
REMARK    5  A    between atoms: C_11  and  C_13 
REMARK    6  A    between atoms: C_12  and  C_14 
ROOT
HETATM    1 Cl   UNK N   1      28.427  18.382   5.193  0.00  0.00    -0.084 Cl
HETATM    2  S   UNK N   1      22.932  20.462   2.804  0.00  0.00    -0.089 SA
HETATM    3  C   UNK N   1      23.468  16.831   5.548  0.00  0.00    -0.012 C 
HETATM    4  C   UNK N   1      23.271  17.828   4.654  0.00  0.00    -0.017 C 
HETATM    5  C   UNK N   1      24.479  18.635   4.311  0.00  0.00    -0.007 A 
HETATM    6  C   UNK N   1      21.944  18.081   4.004  0.00  0.00    -0.008 A 
HETATM    7  C   UNK N   1      24.436  19.779   3.490  0.00  0.00     0.017 A 
HETATM    8  C   UNK N   1      21.720  19.189   3.151  0.00  0.00     0.016 A 
HETATM    9  C   UNK N   1      25.731  18.229   4.827  0.00  0.00     0.037 A 
HETATM   10  C   UNK N   1      20.881  17.179   4.209  0.00  0.00     0.013 A 
HETATM   11  C   UNK N   1      25.619  20.478   3.211  0.00  0.00     0.021 A 
HETATM   12  C   UNK N   1      20.469  19.357   2.543  0.00  0.00     0.020 A 
HETATM   13  C   UNK N   1      26.898  18.928   4.537  0.00  0.00     0.035 A 
HETATM   14  C   UNK N   1      19.643  17.357   3.595  0.00  0.00     0.001 A 
HETATM   15  C   UNK N   1      26.844  20.055   3.725  0.00  0.00     0.025 A 
HETATM   16  C   UNK N   1      19.438  18.447   2.757  0.00  0.00     0.001 A 
ENDROOT
BRANCH   3  17
HETATM   17  C   UNK N   1      22.502  15.855   6.140  0.00  0.00     0.058 C 
BRANCH  17  18
HETATM   18  C   UNK N   1      23.204  14.524   6.437  0.00  0.00     0.276 C 
BRANCH  18  19
HETATM   19  N   UNK N   1      23.527  14.350   7.855  0.00  0.00     0.092 N 
HETATM   20  C   UNK N   1      22.522  13.428   8.396  0.00  0.00     0.302 C 
HETATM   21  C   UNK N   1      22.889  12.997   9.820  0.00  0.00     0.302 C 
HETATM   22  N   UNK N   1      24.199  12.349   9.803  0.00  0.00     0.093 N 
HETATM   23  C   UNK N   1      25.180  13.332   9.366  0.00  0.00     0.302 C 
HETATM   24  C   UNK N   1      24.852  13.721   7.931  0.00  0.00     0.302 C 
BRANCH  22  25
HETATM   25  C   UNK N   1      24.536  11.945  11.156  0.00  0.00     0.298 C 
BRANCH  25  26
HETATM   26  C   UNK N   1      23.297  12.014  12.034  0.00  0.00     0.194 C 
BRANCH  26  27
HETATM   27  O   UNK N   1      23.657  12.338  13.343  0.00  0.00    -0.399 OA
HETATM   28  H   UNK N   1      24.190  11.720  13.867  0.00  0.00     0.209 HD
ENDBRANCH  26  27
ENDBRANCH  25  26
ENDBRANCH  22  25
ENDBRANCH  18  19
ENDBRANCH  17  18
ENDBRANCH   3  17
TORSDOF 6
ENDMDL
MODEL 2
REMARK VINA RESULT:      -7.2     12.671     17.254
REMARK  6 active torsions:
REMARK  status: ('A' for Active; 'I' for Inactive)
REMARK    1  A    between atoms: O_3  and  C_13 
REMARK    2  A    between atoms: N_4  and  C_10 
REMARK    3  A    between atoms: N_5  and  C_11 
REMARK    4  A    between atoms: C_10  and  C_12 
REMARK    5  A    between atoms: C_11  and  C_13 
REMARK    6  A    between atoms: C_12  and  C_14 
ROOT
HETATM    1 Cl   UNK N   1      36.602   7.454  12.121  0.00  0.00    -0.084 Cl
HETATM    2  S   UNK N   1      35.159   9.181  18.051  0.00  0.00    -0.089 SA
HETATM    3  C   UNK N   1      35.516  11.987  14.445  0.00  0.00    -0.012 C 
HETATM    4  C   UNK N   1      35.502  11.217  15.558  0.00  0.00    -0.017 C 
HETATM    5  C   UNK N   1      35.698   9.754  15.334  0.00  0.00    -0.007 A 
HETATM    6  C   UNK N   1      35.354  11.789  16.936  0.00  0.00    -0.008 A 
HETATM    7  C   UNK N   1      35.598   8.795  16.361  0.00  0.00     0.017 A 
HETATM    8  C   UNK N   1      35.236  10.971  18.085  0.00  0.00     0.016 A 
HETATM    9  C   UNK N   1      36.007   9.306  14.029  0.00  0.00     0.037 A 
HETATM   10  C   UNK N   1      35.367  13.187  17.118  0.00  0.00     0.013 A 
HETATM   11  C   UNK N   1      35.803   7.439  16.067  0.00  0.00     0.021 A 
HETATM   12  C   UNK N   1      35.135  11.561  19.352  0.00  0.00     0.020 A 
HETATM   13  C   UNK N   1      36.214   7.959  13.752  0.00  0.00     0.035 A 
HETATM   14  C   UNK N   1      35.269  13.760  18.384  0.00  0.00     0.001 A 
HETATM   15  C   UNK N   1      36.114   7.022  14.773  0.00  0.00     0.025 A 
HETATM   16  C   UNK N   1      35.155  12.944  19.505  0.00  0.00     0.001 A 
ENDROOT
BRANCH   3  17
HETATM   17  C   UNK N   1      35.326  13.461  14.283  0.00  0.00     0.058 C 
BRANCH  17  18
HETATM   18  C   UNK N   1      36.083  13.964  13.049  0.00  0.00     0.276 C 
BRANCH  18  19
HETATM   19  N   UNK N   1      35.207  14.577  12.049  0.00  0.00     0.092 N 
HETATM   20  C   UNK N   1      35.842  15.843  11.664  0.00  0.00     0.302 C 
HETATM   21  C   UNK N   1      35.129  16.468  10.460  0.00  0.00     0.302 C 
HETATM   22  N   UNK N   1      35.169  15.530   9.339  0.00  0.00     0.093 N 
HETATM   23  C   UNK N   1      34.433  14.336   9.725  0.00  0.00     0.302 C 
HETATM   24  C   UNK N   1      35.171  13.681  10.885  0.00  0.00     0.302 C 
BRANCH  22  25
HETATM   25  C   UNK N   1      34.490  16.132   8.205  0.00  0.00     0.298 C 
BRANCH  25  26
HETATM   26  C   UNK N   1      34.322  17.625   8.443  0.00  0.00     0.194 C 
BRANCH  26  27
HETATM   27  O   UNK N   1      34.678  18.334   7.295  0.00  0.00    -0.399 OA
HETATM   28  H   UNK N   1      35.225  17.912   6.614  0.00  0.00     0.209 HD
ENDBRANCH  26  27
ENDBRANCH  25  26
ENDBRANCH  22  25
ENDBRANCH  18  19
ENDBRANCH  17  18
ENDBRANCH   3  17
TORSDOF 6
ENDMDL
MODEL 3
REMARK VINA RESULT:      -7.2     12.133     16.576
REMARK  6 active torsions:
REMARK  status: ('A' for Active; 'I' for Inactive)
REMARK    1  A    between atoms: O_3  and  C_13 
REMARK    2  A    between atoms: N_4  and  C_10 
REMARK    3  A    between atoms: N_5  and  C_11 
REMARK    4  A    between atoms: C_10  and  C_12 
REMARK    5  A    between atoms: C_11  and  C_13 
REMARK    6  A    between atoms: C_12  and  C_14 
ROOT
HETATM    1 Cl   UNK N   1      34.915  15.269  18.799  0.00  0.00    -0.084 Cl
HETATM    2  S   UNK N   1      35.924   9.327  16.820  0.00  0.00    -0.089 SA
HETATM    3  C   UNK N   1      35.392  13.002  14.134  0.00  0.00    -0.012 C 
HETATM    4  C   UNK N   1      35.450  11.874  14.879  0.00  0.00    -0.017 C 
HETATM    5  C   UNK N   1      35.429  12.074  16.358  0.00  0.00    -0.007 A 
HETATM    6  C   UNK N   1      35.479  10.504  14.270  0.00  0.00    -0.008 A 
HETATM    7  C   UNK N   1      35.597  11.024  17.282  0.00  0.00     0.017 A 
HETATM    8  C   UNK N   1      35.643   9.334  15.050  0.00  0.00     0.016 A 
HETATM    9  C   UNK N   1      35.223  13.380  16.860  0.00  0.00     0.037 A 
HETATM   10  C   UNK N   1      35.301  10.352  12.880  0.00  0.00     0.013 A 
HETATM   11  C   UNK N   1      35.558  11.297  18.657  0.00  0.00     0.021 A 
HETATM   12  C   UNK N   1      35.628   8.077  14.432  0.00  0.00     0.020 A 
HETATM   13  C   UNK N   1      35.180  13.636  18.226  0.00  0.00     0.035 A 
HETATM   14  C   UNK N   1      35.285   9.095  12.279  0.00  0.00     0.001 A 
HETATM   15  C   UNK N   1      35.346  12.592  19.129  0.00  0.00     0.025 A 
HETATM   16  C   UNK N   1      35.446   7.955  13.057  0.00  0.00     0.001 A 
ENDROOT
BRANCH   3  17
HETATM   17  C   UNK N   1      35.421  13.188  12.651  0.00  0.00     0.058 C 
BRANCH  17  18
HETATM   18  C   UNK N   1      36.140  14.494  12.291  0.00  0.00     0.276 C 
BRANCH  18  19
HETATM   19  N   UNK N   1      35.844  14.956  10.933  0.00  0.00     0.092 N 
HETATM   20  C   UNK N   1      34.680  14.187  10.480  0.00  0.00     0.302 C 
HETATM   21  C   UNK N   1      34.143  14.741   9.155  0.00  0.00     0.302 C 
HETATM   22  N   UNK N   1      33.772  16.143   9.337  0.00  0.00     0.093 N 
HETATM   23  C   UNK N   1      34.976  16.886   9.677  0.00  0.00     0.302 C 
HETATM   24  C   UNK N   1      35.481  16.377  11.021  0.00  0.00     0.302 C 
BRANCH  22  25
HETATM   25  C   UNK N   1      33.265  16.657   8.077  0.00  0.00     0.298 C 
BRANCH  25  26
HETATM   26  C   UNK N   1      34.001  17.935   7.712  0.00  0.00     0.194 C 
BRANCH  26  27
HETATM   27  O   UNK N   1      34.306  17.938   6.350  0.00  0.00    -0.399 OA
HETATM   28  H   UNK N   1      33.601  18.056   5.695  0.00  0.00     0.209 HD
ENDBRANCH  26  27
ENDBRANCH  25  26
ENDBRANCH  22  25
ENDBRANCH  18  19
ENDBRANCH  17  18
ENDBRANCH   3  17
TORSDOF 6
ENDMDL
MODEL 4
REMARK VINA RESULT:      -7.0      5.684      8.654
REMARK  6 active torsions:
REMARK  status: ('A' for Active; 'I' for Inactive)
REMARK    1  A    between atoms: O_3  and  C_13 
REMARK    2  A    between atoms: N_4  and  C_10 
REMARK    3  A    between atoms: N_5  and  C_11 
REMARK    4  A    between atoms: C_10  and  C_12 
REMARK    5  A    between atoms: C_11  and  C_13 
REMARK    6  A    between atoms: C_12  and  C_14 
ROOT
HETATM    1 Cl   UNK N   1      29.821  18.903   9.794  0.00  0.00    -0.084 Cl
HETATM    2  S   UNK N   1      31.361  15.093   4.963  0.00  0.00    -0.089 SA
HETATM    3  C   UNK N   1      27.691  17.829   5.164  0.00  0.00    -0.012 C 
HETATM    4  C   UNK N   1      28.699  16.929   5.101  0.00  0.00    -0.017 C 
HETATM    5  C   UNK N   1      29.656  16.950   6.247  0.00  0.00    -0.007 A 
HETATM    6  C   UNK N   1      28.827  15.936   3.986  0.00  0.00    -0.008 A 
HETATM    7  C   UNK N   1      30.825  16.165   6.291  0.00  0.00     0.017 A 
HETATM    8  C   UNK N   1      29.940  15.068   3.871  0.00  0.00     0.016 A 
HETATM    9  C   UNK N   1      29.374  17.792   7.347  0.00  0.00     0.037 A 
HETATM   10  C   UNK N   1      27.799  15.821   3.029  0.00  0.00     0.013 A 
HETATM   11  C   UNK N   1      31.669  16.239   7.408  0.00  0.00     0.021 A 
HETATM   12  C   UNK N   1      29.991  14.135   2.827  0.00  0.00     0.020 A 
HETATM   13  C   UNK N   1      30.216  17.851   8.452  0.00  0.00     0.035 A 
HETATM   14  C   UNK N   1      27.861  14.886   1.998  0.00  0.00     0.001 A 
HETATM   15  C   UNK N   1      31.367  17.071   8.485  0.00  0.00     0.025 A 
HETATM   16  C   UNK N   1      28.959  14.039   1.898  0.00  0.00     0.001 A 
ENDROOT
BRANCH   3  17
HETATM   17  C   UNK N   1      26.582  18.113   4.202  0.00  0.00     0.058 C 
BRANCH  17  18
HETATM   18  C   UNK N   1      25.229  17.747   4.824  0.00  0.00     0.276 C 
BRANCH  18  19
HETATM   19  N   UNK N   1      24.220  18.795   4.661  0.00  0.00     0.092 N 
HETATM   20  C   UNK N   1      24.570  19.518   3.433  0.00  0.00     0.302 C 
HETATM   21  C   UNK N   1      23.459  20.497   3.040  0.00  0.00     0.302 C 
HETATM   22  N   UNK N   1      22.214  19.755   2.842  0.00  0.00     0.093 N 
HETATM   23  C   UNK N   1      21.847  19.147   4.112  0.00  0.00     0.302 C 
HETATM   24  C   UNK N   1      22.922  18.132   4.478  0.00  0.00     0.302 C 
BRANCH  22  25
HETATM   25  C   UNK N   1      21.169  20.692   2.470  0.00  0.00     0.298 C 
BRANCH  25  26
HETATM   26  C   UNK N   1      20.810  20.503   1.005  0.00  0.00     0.194 C 
BRANCH  26  27
HETATM   27  O   UNK N   1      20.723  21.742   0.370  0.00  0.00    -0.399 OA
HETATM   28  H   UNK N   1      21.275  21.930  -0.405  0.00  0.00     0.209 HD
ENDBRANCH  26  27
ENDBRANCH  25  26
ENDBRANCH  22  25
ENDBRANCH  18  19
ENDBRANCH  17  18
ENDBRANCH   3  17
TORSDOF 6
ENDMDL
MODEL 5
REMARK VINA RESULT:      -6.9     14.333     18.296
REMARK  6 active torsions:
REMARK  status: ('A' for Active; 'I' for Inactive)
REMARK    1  A    between atoms: O_3  and  C_13 
REMARK    2  A    between atoms: N_4  and  C_10 
REMARK    3  A    between atoms: N_5  and  C_11 
REMARK    4  A    between atoms: C_10  and  C_12 
REMARK    5  A    between atoms: C_11  and  C_13 
REMARK    6  A    between atoms: C_12  and  C_14 
ROOT
HETATM    1 Cl   UNK N   1      35.850   4.715  16.890  0.00  0.00    -0.084 Cl
HETATM    2  S   UNK N   1      35.242  10.151  20.101  0.00  0.00    -0.089 SA
HETATM    3  C   UNK N   1      34.886   9.657  15.559  0.00  0.00    -0.012 C 
HETATM    4  C   UNK N   1      35.086   9.872  16.880  0.00  0.00    -0.017 C 
HETATM    5  C   UNK N   1      35.325   8.650  17.704  0.00  0.00    -0.007 A 
HETATM    6  C   UNK N   1      35.120  11.246  17.480  0.00  0.00    -0.008 A 
HETATM    7  C   UNK N   1      35.437   8.676  19.108  0.00  0.00     0.017 A 
HETATM    8  C   UNK N   1      35.225  11.458  18.876  0.00  0.00     0.016 A 
HETATM    9  C   UNK N   1      35.454   7.406  17.046  0.00  0.00     0.037 A 
HETATM   10  C   UNK N   1      35.084  12.377  16.640  0.00  0.00     0.013 A 
HETATM   11  C   UNK N   1      35.668   7.482  19.808  0.00  0.00     0.021 A 
HETATM   12  C   UNK N   1      35.287  12.764  19.378  0.00  0.00     0.020 A 
HETATM   13  C   UNK N   1      35.690   6.231  17.751  0.00  0.00     0.035 A 
HETATM   14  C   UNK N   1      35.150  13.671  17.154  0.00  0.00     0.001 A 
HETATM   15  C   UNK N   1      35.799   6.267  19.136  0.00  0.00     0.025 A 
HETATM   16  C   UNK N   1      35.255  13.864  18.527  0.00  0.00     0.001 A 
ENDROOT
BRANCH   3  17
HETATM   17  C   UNK N   1      34.593  10.620  14.453  0.00  0.00     0.058 C 
BRANCH  17  18
HETATM   18  C   UNK N   1      35.758  10.658  13.457  0.00  0.00     0.276 C 
BRANCH  18  19
HETATM   19  N   UNK N   1      36.191  12.020  13.134  0.00  0.00     0.092 N 
HETATM   20  C   UNK N   1      37.035  11.911  11.938  0.00  0.00     0.302 C 
HETATM   21  C   UNK N   1      37.365  13.298  11.376  0.00  0.00     0.302 C 
HETATM   22  N   UNK N   1      36.121  13.990  11.045  0.00  0.00     0.093 N 
HETATM   23  C   UNK N   1      35.368  14.174  12.277  0.00  0.00     0.302 C 
HETATM   24  C   UNK N   1      34.989  12.798  12.808  0.00  0.00     0.302 C 
BRANCH  22  25
HETATM   25  C   UNK N   1      36.446  15.302  10.514  0.00  0.00     0.298 C 
BRANCH  25  26
HETATM   26  C   UNK N   1      35.364  16.296  10.906  0.00  0.00     0.194 C 
BRANCH  26  27
HETATM   27  O   UNK N   1      35.630  17.541  10.335  0.00  0.00    -0.399 OA
HETATM   28  H   UNK N   1      36.286  17.619   9.625  0.00  0.00     0.209 HD
ENDBRANCH  26  27
ENDBRANCH  25  26
ENDBRANCH  22  25
ENDBRANCH  18  19
ENDBRANCH  17  18
ENDBRANCH   3  17
TORSDOF 6
ENDMDL
MODEL 6
REMARK VINA RESULT:      -6.9      2.218      4.299
REMARK  6 active torsions:
REMARK  status: ('A' for Active; 'I' for Inactive)
REMARK    1  A    between atoms: O_3  and  C_13 
REMARK    2  A    between atoms: N_4  and  C_10 
REMARK    3  A    between atoms: N_5  and  C_11 
REMARK    4  A    between atoms: C_10  and  C_12 
REMARK    5  A    between atoms: C_11  and  C_13 
REMARK    6  A    between atoms: C_12  and  C_14 
ROOT
HETATM    1 Cl   UNK N   1      19.966  19.127   3.072  0.00  0.00    -0.084 Cl
HETATM    2  S   UNK N   1      26.244  19.841   3.629  0.00  0.00    -0.089 SA
HETATM    3  C   UNK N   1      23.807  16.245   5.089  0.00  0.00    -0.012 C 
HETATM    4  C   UNK N   1      24.555  17.327   4.772  0.00  0.00    -0.017 C 
HETATM    5  C   UNK N   1      23.834  18.424   4.060  0.00  0.00    -0.007 A 
HETATM    6  C   UNK N   1      26.000  17.452   5.151  0.00  0.00    -0.008 A 
HETATM    7  C   UNK N   1      24.478  19.570   3.554  0.00  0.00     0.017 A 
HETATM    8  C   UNK N   1      26.802  18.538   4.726  0.00  0.00     0.016 A 
HETATM    9  C   UNK N   1      22.434  18.314   3.892  0.00  0.00     0.037 A 
HETATM   10  C   UNK N   1      26.589  16.483   5.988  0.00  0.00     0.013 A 
HETATM   11  C   UNK N   1      23.725  20.558   2.903  0.00  0.00     0.021 A 
HETATM   12  C   UNK N   1      28.138  18.621   5.140  0.00  0.00     0.020 A 
HETATM   13  C   UNK N   1      21.699  19.304   3.250  0.00  0.00     0.035 A 
HETATM   14  C   UNK N   1      27.919  16.580   6.395  0.00  0.00     0.001 A 
HETATM   15  C   UNK N   1      22.344  20.432   2.755  0.00  0.00     0.025 A 
HETATM   16  C   UNK N   1      28.694  17.653   5.971  0.00  0.00     0.001 A 
ENDROOT
BRANCH   3  17
HETATM   17  C   UNK N   1      24.189  14.966   5.765  0.00  0.00     0.058 C 
BRANCH  17  18
HETATM   18  C   UNK N   1      22.935  14.164   6.133  0.00  0.00     0.276 C 
BRANCH  18  19
HETATM   19  N   UNK N   1      22.701  14.098   7.577  0.00  0.00     0.092 N 
HETATM   20  C   UNK N   1      21.611  13.136   7.775  0.00  0.00     0.302 C 
HETATM   21  C   UNK N   1      21.426  12.818   9.262  0.00  0.00     0.302 C 
HETATM   22  N   UNK N   1      22.674  12.272   9.794  0.00  0.00     0.093 N 
HETATM   23  C   UNK N   1      23.699  13.298   9.679  0.00  0.00     0.302 C 
HETATM   24  C   UNK N   1      23.925  13.576   8.199  0.00  0.00     0.302 C 
BRANCH  22  25
HETATM   25  C   UNK N   1      22.488  11.974  11.203  0.00  0.00     0.298 C 
BRANCH  25  26
HETATM   26  C   UNK N   1      23.842  11.854  11.884  0.00  0.00     0.194 C 
BRANCH  26  27
HETATM   27  O   UNK N   1      23.745  12.266  13.214  0.00  0.00    -0.399 OA
HETATM   28  H   UNK N   1      23.734  13.212  13.430  0.00  0.00     0.209 HD
ENDBRANCH  26  27
ENDBRANCH  25  26
ENDBRANCH  22  25
ENDBRANCH  18  19
ENDBRANCH  17  18
ENDBRANCH   3  17
TORSDOF 6
ENDMDL
MODEL 7
REMARK VINA RESULT:      -6.8     12.693     17.533
REMARK  6 active torsions:
REMARK  status: ('A' for Active; 'I' for Inactive)
REMARK    1  A    between atoms: O_3  and  C_13 
REMARK    2  A    between atoms: N_4  and  C_10 
REMARK    3  A    between atoms: N_5  and  C_11 
REMARK    4  A    between atoms: C_10  and  C_12 
REMARK    5  A    between atoms: C_11  and  C_13 
REMARK    6  A    between atoms: C_12  and  C_14 
ROOT
HETATM    1 Cl   UNK N   1      36.157   5.790  14.195  0.00  0.00    -0.084 Cl
HETATM    2  S   UNK N   1      34.854   9.481  19.187  0.00  0.00    -0.089 SA
HETATM    3  C   UNK N   1      35.449  10.905  14.872  0.00  0.00    -0.012 C 
HETATM    4  C   UNK N   1      35.369  10.549  16.175  0.00  0.00    -0.017 C 
HETATM    5  C   UNK N   1      35.443   9.083  16.448  0.00  0.00    -0.007 A 
HETATM    6  C   UNK N   1      35.268  11.552  17.283  0.00  0.00    -0.008 A 
HETATM    7  C   UNK N   1      35.262   8.526  17.730  0.00  0.00     0.017 A 
HETATM    8  C   UNK N   1      35.081  11.170  18.634  0.00  0.00     0.016 A 
HETATM    9  C   UNK N   1      35.715   8.208  15.372  0.00  0.00     0.037 A 
HETATM   10  C   UNK N   1      35.397  12.926  16.997  0.00  0.00     0.013 A 
HETATM   11  C   UNK N   1      35.353   7.138  17.903  0.00  0.00     0.021 A 
HETATM   12  C   UNK N   1      35.027  12.150  19.633  0.00  0.00     0.020 A 
HETATM   13  C   UNK N   1      35.810   6.833  15.558  0.00  0.00     0.035 A 
HETATM   14  C   UNK N   1      35.345  13.890  18.002  0.00  0.00     0.001 A 
HETATM   15  C   UNK N   1      35.630   6.294  16.827  0.00  0.00     0.025 A 
HETATM   16  C   UNK N   1      35.163  13.501  19.324  0.00  0.00     0.001 A 
ENDROOT
BRANCH   3  17
HETATM   17  C   UNK N   1      35.383  12.255  14.230  0.00  0.00     0.058 C 
BRANCH  17  18
HETATM   18  C   UNK N   1      36.655  12.520  13.415  0.00  0.00     0.276 C 
BRANCH  18  19
HETATM   19  N   UNK N   1      36.416  13.353  12.234  0.00  0.00     0.092 N 
HETATM   20  C   UNK N   1      35.370  12.678  11.458  0.00  0.00     0.302 C 
HETATM   21  C   UNK N   1      34.880  13.571  10.312  0.00  0.00     0.302 C 
HETATM   22  N   UNK N   1      34.360  14.820  10.866  0.00  0.00     0.093 N 
HETATM   23  C   UNK N   1      35.457  15.507  11.531  0.00  0.00     0.302 C 
HETATM   24  C   UNK N   1      35.910  14.649  12.705  0.00  0.00     0.302 C 
BRANCH  22  25
HETATM   25  C   UNK N   1      33.899  15.657   9.773  0.00  0.00     0.298 C 
BRANCH  25  26
HETATM   26  C   UNK N   1      32.541  15.170   9.294  0.00  0.00     0.194 C 
BRANCH  26  27
HETATM   27  O   UNK N   1      31.632  15.171  10.352  0.00  0.00    -0.399 OA
HETATM   28  H   UNK N   1      30.880  15.784  10.346  0.00  0.00     0.209 HD
ENDBRANCH  26  27
ENDBRANCH  25  26
ENDBRANCH  22  25
ENDBRANCH  18  19
ENDBRANCH  17  18
ENDBRANCH   3  17
TORSDOF 6
ENDMDL
MODEL 8
REMARK VINA RESULT:      -6.8      5.139      7.482
REMARK  6 active torsions:
REMARK  status: ('A' for Active; 'I' for Inactive)
REMARK    1  A    between atoms: O_3  and  C_13 
REMARK    2  A    between atoms: N_4  and  C_10 
REMARK    3  A    between atoms: N_5  and  C_11 
REMARK    4  A    between atoms: C_10  and  C_12 
REMARK    5  A    between atoms: C_11  and  C_13 
REMARK    6  A    between atoms: C_12  and  C_14 
ROOT
HETATM    1 Cl   UNK N   1      24.453  12.851   8.184  0.00  0.00    -0.084 Cl
HETATM    2  S   UNK N   1      22.487  17.658   4.542  0.00  0.00    -0.089 SA
HETATM    3  C   UNK N   1      26.840  16.383   5.192  0.00  0.00    -0.012 C 
HETATM    4  C   UNK N   1      25.583  16.863   5.052  0.00  0.00    -0.017 C 
HETATM    5  C   UNK N   1      24.509  16.064   5.714  0.00  0.00    -0.007 A 
HETATM    6  C   UNK N   1      25.281  18.140   4.328  0.00  0.00    -0.008 A 
HETATM    7  C   UNK N   1      23.137  16.351   5.576  0.00  0.00     0.017 A 
HETATM    8  C   UNK N   1      23.955  18.582   4.095  0.00  0.00     0.016 A 
HETATM    9  C   UNK N   1      24.885  14.970   6.526  0.00  0.00     0.037 A 
HETATM   10  C   UNK N   1      26.338  18.961   3.887  0.00  0.00     0.013 A 
HETATM   11  C   UNK N   1      22.192  15.553   6.237  0.00  0.00     0.021 A 
HETATM   12  C   UNK N   1      23.733  19.801   3.443  0.00  0.00     0.020 A 
HETATM   13  C   UNK N   1      23.938  14.191   7.182  0.00  0.00     0.035 A 
HETATM   14  C   UNK N   1      26.101  20.174   3.242  0.00  0.00     0.001 A 
HETATM   15  C   UNK N   1      22.586  14.483   7.039  0.00  0.00     0.025 A 
HETATM   16  C   UNK N   1      24.795  20.596   3.022  0.00  0.00     0.001 A 
ENDROOT
BRANCH   3  17
HETATM   17  C   UNK N   1      28.139  16.893   4.652  0.00  0.00     0.058 C 
BRANCH  17  18
HETATM   18  C   UNK N   1      28.910  17.647   5.742  0.00  0.00     0.276 C 
BRANCH  18  19
HETATM   19  N   UNK N   1      30.184  17.012   6.086  0.00  0.00     0.092 N 
HETATM   20  C   UNK N   1      31.167  17.508   5.116  0.00  0.00     0.302 C 
HETATM   21  C   UNK N   1      32.585  17.084   5.512  0.00  0.00     0.302 C 
HETATM   22  N   UNK N   1      32.890  17.612   6.841  0.00  0.00     0.093 N 
HETATM   23  C   UNK N   1      31.962  17.009   7.787  0.00  0.00     0.302 C 
HETATM   24  C   UNK N   1      30.556  17.474   7.431  0.00  0.00     0.302 C 
BRANCH  22  25
HETATM   25  C   UNK N   1      34.235  17.205   7.206  0.00  0.00     0.298 C 
BRANCH  25  26
HETATM   26  C   UNK N   1      34.615  17.828   8.539  0.00  0.00     0.194 C 
BRANCH  26  27
HETATM   27  O   UNK N   1      35.061  19.136   8.345  0.00  0.00    -0.399 OA
HETATM   28  H   UNK N   1      35.245  19.704   9.110  0.00  0.00     0.209 HD
ENDBRANCH  26  27
ENDBRANCH  25  26
ENDBRANCH  22  25
ENDBRANCH  18  19
ENDBRANCH  17  18
ENDBRANCH   3  17
TORSDOF 6
ENDMDL
MODEL 9
REMARK VINA RESULT:      -6.7      3.646      5.247
REMARK  6 active torsions:
REMARK  status: ('A' for Active; 'I' for Inactive)
REMARK    1  A    between atoms: O_3  and  C_13 
REMARK    2  A    between atoms: N_4  and  C_10 
REMARK    3  A    between atoms: N_5  and  C_11 
REMARK    4  A    between atoms: C_10  and  C_12 
REMARK    5  A    between atoms: C_11  and  C_13 
REMARK    6  A    between atoms: C_12  and  C_14 
ROOT
HETATM    1 Cl   UNK N   1      19.024  10.762   2.184  0.00  0.00    -0.084 Cl
HETATM    2  S   UNK N   1      19.848  16.837   0.556  0.00  0.00    -0.089 SA
HETATM    3  C   UNK N   1      21.060  14.934   4.545  0.00  0.00    -0.012 C 
HETATM    4  C   UNK N   1      20.627  15.565   3.429  0.00  0.00    -0.017 C 
HETATM    5  C   UNK N   1      20.019  14.686   2.386  0.00  0.00    -0.007 A 
HETATM    6  C   UNK N   1      20.698  17.052   3.261  0.00  0.00    -0.008 A 
HETATM    7  C   UNK N   1      19.621  15.154   1.118  0.00  0.00     0.017 A 
HETATM    8  C   UNK N   1      20.340  17.694   2.050  0.00  0.00     0.016 A 
HETATM    9  C   UNK N   1      19.824  13.318   2.685  0.00  0.00     0.037 A 
HETATM   10  C   UNK N   1      21.099  17.860   4.344  0.00  0.00     0.013 A 
HETATM   11  C   UNK N   1      19.051  14.263   0.197  0.00  0.00     0.021 A 
HETATM   12  C   UNK N   1      20.394  19.091   1.961  0.00  0.00     0.020 A 
HETATM   13  C   UNK N   1      19.252  12.446   1.764  0.00  0.00     0.035 A 
HETATM   14  C   UNK N   1      21.144  19.249   4.242  0.00  0.00     0.001 A 
HETATM   15  C   UNK N   1      18.862  12.919   0.517  0.00  0.00     0.025 A 
HETATM   16  C   UNK N   1      20.788  19.866   3.048  0.00  0.00     0.001 A 
ENDROOT
BRANCH   3  17
HETATM   17  C   UNK N   1      21.736  15.475   5.764  0.00  0.00     0.058 C 
BRANCH  17  18
HETATM   18  C   UNK N   1      20.848  15.277   6.998  0.00  0.00     0.276 C 
BRANCH  18  19
HETATM   19  N   UNK N   1      21.593  14.826   8.175  0.00  0.00     0.092 N 
HETATM   20  C   UNK N   1      20.663  14.013   8.967  0.00  0.00     0.302 C 
HETATM   21  C   UNK N   1      21.396  13.304  10.110  0.00  0.00     0.302 C 
HETATM   22  N   UNK N   1      22.447  12.454   9.553  0.00  0.00     0.093 N 
HETATM   23  C   UNK N   1      23.405  13.313   8.872  0.00  0.00     0.302 C 
HETATM   24  C   UNK N   1      22.694  13.976   7.700  0.00  0.00     0.302 C 
BRANCH  22  25
HETATM   25  C   UNK N   1      23.134  11.787  10.645  0.00  0.00     0.298 C 
BRANCH  25  26
HETATM   26  C   UNK N   1      24.615  12.127  10.601  0.00  0.00     0.194 C 
BRANCH  26  27
HETATM   27  O   UNK N   1      25.064  12.470  11.877  0.00  0.00    -0.399 OA
HETATM   28  H   UNK N   1      25.977  12.774  12.005  0.00  0.00     0.209 HD
ENDBRANCH  26  27
ENDBRANCH  25  26
ENDBRANCH  22  25
ENDBRANCH  18  19
ENDBRANCH  17  18
ENDBRANCH   3  17
TORSDOF 6
ENDMDL
