MODEL 1
REMARK VINA RESULT:      -7.2      0.000      0.000
REMARK  3 active torsions:
REMARK  status: ('A' for Active; 'I' for Inactive)
REMARK    1  A    between atoms: S_2  and  C_11 
REMARK    2  A    between atoms: C_9  and  C_10 
REMARK    3  A    between atoms: C_12  and  C_17 
ROOT
HETATM    1 Cl   UNK N   1      28.293  12.930   1.334  0.00  0.00    -0.083 Cl
HETATM    2  N   UNK N   1      26.765  16.122   3.187  0.00  0.00    -0.363 N 
ATOM      3  HN  UNK N   1      25.866  16.603   3.210  1.00  0.00     0.165 HD
HETATM    4  C   UNK N   1      29.040  15.906   3.958  0.00  0.00     0.003 A 
HETATM    5  C   UNK N   1      27.794  16.613   3.941  0.00  0.00     0.055 A 
HETATM    6  C   UNK N   1      29.179  14.785   3.130  0.00  0.00     0.040 A 
HETATM    7  C   UNK N   1      28.114  14.343   2.351  0.00  0.00     0.050 A 
HETATM    8  C   UNK N   1      26.897  15.016   2.411  0.00  0.00     0.112 A 
ENDROOT
BRANCH   4   9
HETATM    9  C   UNK N   1      30.180  16.271   4.851  0.00  0.00    -0.024 A 
HETATM   10  C   UNK N   1      31.202  17.125   4.399  0.00  0.00     0.014 A 
HETATM   11  C   UNK N   1      32.331  17.369   5.175  0.00  0.00     0.024 A 
HETATM   12  C   UNK N   1      32.436  16.791   6.436  0.00  0.00     0.058 A 
HETATM   13  C   UNK N   1      31.386  16.010   6.939  0.00  0.00     0.024 A 
HETATM   14  C   UNK N   1      30.251  15.770   6.157  0.00  0.00     0.014 A 
BRANCH  12  15
HETATM   15  S   UNK N   1      34.001  16.833   7.293  0.00  0.00     0.171 S 
HETATM   16  O   UNK N   1      34.420  18.234   6.834  0.00  0.00    -0.223 OA
HETATM   17  O   UNK N   1      35.086  16.087   6.503  0.00  0.00    -0.223 OA
HETATM   18  C   UNK N   1      34.455  17.010   9.042  0.00  0.00     0.167 C 
ENDBRANCH  12  15
ENDBRANCH   4   9
BRANCH   5  19
HETATM   19  C   UNK N   1      27.581  17.911   4.643  0.00  0.00     0.007 A 
HETATM   20  C   UNK N   1      27.677  19.123   3.952  0.00  0.00     0.017 A 
HETATM   21  C   UNK N   1      27.438  20.328   4.622  0.00  0.00     0.025 A 
HETATM   22  C   UNK N   1      27.139  20.309   5.987  0.00  0.00     0.005 A 
HETATM   23  N   UNK N   1      27.116  19.133   6.661  0.00  0.00    -0.369 N 
HETATM   24  C   UNK N   1      26.844  21.575   6.707  0.00  0.00     0.068 C 
HETATM   25  C   UNK N   1      27.340  17.954   6.027  0.00  0.00     0.101 A 
ATOM     26  HN  UNK N   1      26.927  19.133   7.664  1.00  0.00     0.165 HD
ENDBRANCH   5  19
TORSDOF 3
ENDMDL
MODEL 2
REMARK VINA RESULT:      -7.0      3.484      5.877
REMARK  3 active torsions:
REMARK  status: ('A' for Active; 'I' for Inactive)
REMARK    1  A    between atoms: S_2  and  C_11 
REMARK    2  A    between atoms: C_9  and  C_10 
REMARK    3  A    between atoms: C_12  and  C_17 
ROOT
HETATM    1 Cl   UNK N   1      26.485  19.700   5.929  0.00  0.00    -0.083 Cl
HETATM    2  N   UNK N   1      29.391  18.400   8.342  0.00  0.00    -0.363 N 
ATOM      3  HN  UNK N   1      29.603  18.453   9.338  1.00  0.00     0.165 HD
HETATM    4  C   UNK N   1      29.938  17.617   6.127  0.00  0.00     0.003 A 
HETATM    5  C   UNK N   1      30.262  17.745   7.517  0.00  0.00     0.055 A 
HETATM    6  C   UNK N   1      28.779  18.246   5.655  0.00  0.00     0.040 A 
HETATM    7  C   UNK N   1      27.941  18.934   6.527  0.00  0.00     0.050 A 
HETATM    8  C   UNK N   1      28.253  18.980   7.882  0.00  0.00     0.112 A 
ENDROOT
BRANCH   4   9
HETATM    9  C   UNK N   1      30.743  16.805   5.166  0.00  0.00    -0.024 A 
HETATM   10  C   UNK N   1      30.613  15.406   5.124  0.00  0.00     0.014 A 
HETATM   11  C   UNK N   1      31.448  14.630   4.325  0.00  0.00     0.024 A 
HETATM   12  C   UNK N   1      32.401  15.249   3.524  0.00  0.00     0.058 A 
HETATM   13  C   UNK N   1      32.484  16.647   3.485  0.00  0.00     0.024 A 
HETATM   14  C   UNK N   1      31.641  17.425   4.287  0.00  0.00     0.014 A 
BRANCH  12  15
HETATM   15  S   UNK N   1      33.675  14.263   2.754  0.00  0.00     0.171 S 
HETATM   16  O   UNK N   1      34.224  15.362   1.837  0.00  0.00    -0.223 OA
HETATM   17  O   UNK N   1      33.101  13.398   1.623  0.00  0.00    -0.223 OA
HETATM   18  C   UNK N   1      35.271  13.622   3.338  0.00  0.00     0.167 C 
ENDBRANCH  12  15
ENDBRANCH   4   9
BRANCH   5  19
HETATM   19  C   UNK N   1      31.548  17.269   8.103  0.00  0.00     0.007 A 
HETATM   20  C   UNK N   1      32.735  17.979   7.897  0.00  0.00     0.017 A 
HETATM   21  C   UNK N   1      33.924  17.535   8.486  0.00  0.00     0.025 A 
HETATM   22  C   UNK N   1      33.919  16.363   9.248  0.00  0.00     0.005 A 
HETATM   23  N   UNK N   1      32.775  15.646   9.384  0.00  0.00    -0.369 N 
HETATM   24  C   UNK N   1      35.162  15.897   9.914  0.00  0.00     0.068 C 
HETATM   25  C   UNK N   1      31.612  16.064   8.824  0.00  0.00     0.101 A 
ATOM     26  HN  UNK N   1      32.790  14.776   9.917  1.00  0.00     0.165 HD
ENDBRANCH   5  19
TORSDOF 3
ENDMDL
MODEL 3
REMARK VINA RESULT:      -6.9      8.749     10.600
REMARK  3 active torsions:
REMARK  status: ('A' for Active; 'I' for Inactive)
REMARK    1  A    between atoms: S_2  and  C_11 
REMARK    2  A    between atoms: C_9  and  C_10 
REMARK    3  A    between atoms: C_12  and  C_17 
ROOT
HETATM    1 Cl   UNK N   1      22.677  11.692  13.156  0.00  0.00    -0.083 Cl
HETATM    2  N   UNK N   1      25.061  12.343  10.018  0.00  0.00    -0.363 N 
ATOM      3  HN  UNK N   1      26.045  12.191   9.793  1.00  0.00     0.165 HD
HETATM    4  C   UNK N   1      22.860  13.085   9.371  0.00  0.00     0.003 A 
HETATM    5  C   UNK N   1      24.254  12.924   9.081  0.00  0.00     0.055 A 
HETATM    6  C   UNK N   1      22.399  12.718  10.642  0.00  0.00     0.040 A 
HETATM    7  C   UNK N   1      23.267  12.165  11.578  0.00  0.00     0.050 A 
HETATM    8  C   UNK N   1      24.601  11.961  11.237  0.00  0.00     0.112 A 
ENDROOT
BRANCH   4   9
HETATM    9  C   UNK N   1      21.864  13.574   8.372  0.00  0.00    -0.024 A 
HETATM   10  C   UNK N   1      21.390  12.727   7.355  0.00  0.00     0.014 A 
HETATM   11  C   UNK N   1      20.562  13.208   6.345  0.00  0.00     0.024 A 
HETATM   12  C   UNK N   1      20.161  14.540   6.362  0.00  0.00     0.058 A 
HETATM   13  C   UNK N   1      20.550  15.376   7.417  0.00  0.00     0.024 A 
HETATM   14  C   UNK N   1      21.380  14.889   8.432  0.00  0.00     0.014 A 
BRANCH  12  15
HETATM   15  S   UNK N   1      19.378  15.239   4.918  0.00  0.00     0.171 S 
HETATM   16  O   UNK N   1      18.155  15.818   5.639  0.00  0.00    -0.223 OA
HETATM   17  O   UNK N   1      18.598  14.171   4.138  0.00  0.00    -0.223 OA
HETATM   18  C   UNK N   1      19.748  16.682   3.881  0.00  0.00     0.167 C 
ENDBRANCH  12  15
ENDBRANCH   4   9
BRANCH   5  19
HETATM   19  C   UNK N   1      24.893  13.432   7.833  0.00  0.00     0.007 A 
HETATM   20  C   UNK N   1      25.338  14.755   7.745  0.00  0.00     0.017 A 
HETATM   21  C   UNK N   1      25.968  15.202   6.578  0.00  0.00     0.025 A 
HETATM   22  C   UNK N   1      26.115  14.328   5.497  0.00  0.00     0.005 A 
HETATM   23  N   UNK N   1      25.619  13.068   5.570  0.00  0.00    -0.369 N 
HETATM   24  C   UNK N   1      26.816  14.772   4.265  0.00  0.00     0.068 C 
HETATM   25  C   UNK N   1      25.010  12.615   6.695  0.00  0.00     0.101 A 
ATOM     26  HN  UNK N   1      25.704  12.448   4.764  1.00  0.00     0.165 HD
ENDBRANCH   5  19
TORSDOF 3
ENDMDL
MODEL 4
REMARK VINA RESULT:      -6.8     14.288     18.046
REMARK  3 active torsions:
REMARK  status: ('A' for Active; 'I' for Inactive)
REMARK    1  A    between atoms: S_2  and  C_11 
REMARK    2  A    between atoms: C_9  and  C_10 
REMARK    3  A    between atoms: C_12  and  C_17 
ROOT
HETATM    1 Cl   UNK N   1      39.651  10.655  23.400  0.00  0.00    -0.083 Cl
HETATM    2  N   UNK N   1      35.878   9.370  23.138  0.00  0.00    -0.363 N 
ATOM      3  HN  UNK N   1      35.204   8.926  23.762  1.00  0.00     0.165 HD
HETATM    4  C   UNK N   1      36.431  10.314  20.989  0.00  0.00     0.003 A 
HETATM    5  C   UNK N   1      35.508   9.636  21.850  0.00  0.00     0.055 A 
HETATM    6  C   UNK N   1      37.711  10.599  21.481  0.00  0.00     0.040 A 
HETATM    7  C   UNK N   1      38.055  10.276  22.790  0.00  0.00     0.050 A 
HETATM    8  C   UNK N   1      37.110   9.679  23.618  0.00  0.00     0.112 A 
ENDROOT
BRANCH   4   9
HETATM    9  C   UNK N   1      36.083  10.778  19.613  0.00  0.00    -0.024 A 
HETATM   10  C   UNK N   1      36.394   9.992  18.489  0.00  0.00     0.014 A 
HETATM   11  C   UNK N   1      36.190  10.472  17.198  0.00  0.00     0.024 A 
HETATM   12  C   UNK N   1      35.633  11.732  17.013  0.00  0.00     0.058 A 
HETATM   13  C   UNK N   1      35.234  12.491  18.121  0.00  0.00     0.024 A 
HETATM   14  C   UNK N   1      35.437  12.006  19.417  0.00  0.00     0.014 A 
BRANCH  12  15
HETATM   15  S   UNK N   1      35.669  12.478  15.391  0.00  0.00     0.171 S 
HETATM   16  O   UNK N   1      34.252  13.061  15.431  0.00  0.00    -0.223 OA
HETATM   17  O   UNK N   1      35.373  11.442  14.297  0.00  0.00    -0.223 OA
HETATM   18  C   UNK N   1      36.508  13.939  14.715  0.00  0.00     0.167 C 
ENDBRANCH  12  15
ENDBRANCH   4   9
BRANCH   5  19
HETATM   19  C   UNK N   1      34.183   9.128  21.390  0.00  0.00     0.007 A 
HETATM   20  C   UNK N   1      33.011   9.843  21.656  0.00  0.00     0.017 A 
HETATM   21  C   UNK N   1      31.783   9.367  21.184  0.00  0.00     0.025 A 
HETATM   22  C   UNK N   1      31.736   8.161  20.479  0.00  0.00     0.005 A 
HETATM   23  N   UNK N   1      32.871   7.443  20.286  0.00  0.00    -0.369 N 
HETATM   24  C   UNK N   1      30.447   7.660  19.937  0.00  0.00     0.068 C 
HETATM   25  C   UNK N   1      34.072   7.891  20.732  0.00  0.00     0.101 A 
ATOM     26  HN  UNK N   1      32.820   6.549  19.798  1.00  0.00     0.165 HD
ENDBRANCH   5  19
TORSDOF 3
ENDMDL
MODEL 5
REMARK VINA RESULT:      -6.8      2.356      4.614
REMARK  3 active torsions:
REMARK  status: ('A' for Active; 'I' for Inactive)
REMARK    1  A    between atoms: S_2  and  C_11 
REMARK    2  A    between atoms: C_9  and  C_10 
REMARK    3  A    between atoms: C_12  and  C_17 
ROOT
HETATM    1 Cl   UNK N   1      26.481  21.317   5.859  0.00  0.00    -0.083 Cl
HETATM    2  N   UNK N   1      26.558  17.904   3.784  0.00  0.00    -0.363 N 
ATOM      3  HN  UNK N   1      25.957  17.441   3.102  1.00  0.00     0.165 HD
HETATM    4  C   UNK N   1      28.588  17.961   5.084  0.00  0.00     0.003 A 
HETATM    5  C   UNK N   1      27.713  17.286   4.172  0.00  0.00     0.055 A 
HETATM    6  C   UNK N   1      28.178  19.194   5.608  0.00  0.00     0.040 A 
HETATM    7  C   UNK N   1      26.974  19.767   5.211  0.00  0.00     0.050 A 
HETATM    8  C   UNK N   1      26.182  19.114   4.272  0.00  0.00     0.112 A 
ENDROOT
BRANCH   4   9
HETATM    9  C   UNK N   1      29.937  17.445   5.464  0.00  0.00    -0.024 A 
HETATM   10  C   UNK N   1      30.132  16.774   6.684  0.00  0.00     0.014 A 
HETATM   11  C   UNK N   1      31.405  16.403   7.105  0.00  0.00     0.024 A 
HETATM   12  C   UNK N   1      32.501  16.662   6.289  0.00  0.00     0.058 A 
HETATM   13  C   UNK N   1      32.315  17.249   5.031  0.00  0.00     0.024 A 
HETATM   14  C   UNK N   1      31.034  17.618   4.609  0.00  0.00     0.014 A 
BRANCH  12  15
HETATM   15  S   UNK N   1      34.150  16.488   6.953  0.00  0.00     0.171 S 
HETATM   16  O   UNK N   1      34.529  17.972   6.883  0.00  0.00    -0.223 OA
HETATM   17  O   UNK N   1      35.138  16.031   5.870  0.00  0.00    -0.223 OA
HETATM   18  C   UNK N   1      34.788  16.158   8.620  0.00  0.00     0.167 C 
ENDBRANCH  12  15
ENDBRANCH   4   9
BRANCH   5  19
HETATM   19  C   UNK N   1      27.957  15.900   3.680  0.00  0.00     0.007 A 
HETATM   20  C   UNK N   1      28.618  15.676   2.468  0.00  0.00     0.017 A 
HETATM   21  C   UNK N   1      28.869  14.367   2.043  0.00  0.00     0.025 A 
HETATM   22  C   UNK N   1      28.424  13.293   2.820  0.00  0.00     0.005 A 
HETATM   23  N   UNK N   1      27.724  13.523   3.959  0.00  0.00    -0.369 N 
HETATM   24  C   UNK N   1      28.715  11.897   2.404  0.00  0.00     0.068 C 
HETATM   25  C   UNK N   1      27.476  14.786   4.390  0.00  0.00     0.101 A 
ATOM     26  HN  UNK N   1      27.378  12.732   4.502  1.00  0.00     0.165 HD
ENDBRANCH   5  19
TORSDOF 3
ENDMDL
MODEL 6
REMARK VINA RESULT:      -6.8      6.835     11.213
REMARK  3 active torsions:
REMARK  status: ('A' for Active; 'I' for Inactive)
REMARK    1  A    between atoms: S_2  and  C_11 
REMARK    2  A    between atoms: C_9  and  C_10 
REMARK    3  A    between atoms: C_12  and  C_17 
ROOT
HETATM    1 Cl   UNK N   1      35.853  13.455  16.264  0.00  0.00    -0.083 Cl
HETATM    2  N   UNK N   1      37.532  12.043  12.926  0.00  0.00    -0.363 N 
ATOM      3  HN  UNK N   1      38.169  11.284  12.683  1.00  0.00     0.165 HD
HETATM    4  C   UNK N   1      36.137  13.894  12.260  0.00  0.00     0.003 A 
HETATM    5  C   UNK N   1      37.077  12.863  11.932  0.00  0.00     0.055 A 
HETATM    6  C   UNK N   1      35.790  14.073  13.605  0.00  0.00     0.040 A 
HETATM    7  C   UNK N   1      36.308  13.235  14.588  0.00  0.00     0.050 A 
HETATM    8  C   UNK N   1      37.167  12.202  14.224  0.00  0.00     0.112 A 
ENDROOT
BRANCH   4   9
HETATM    9  C   UNK N   1      35.469  14.753  11.238  0.00  0.00    -0.024 A 
HETATM   10  C   UNK N   1      34.506  14.215  10.365  0.00  0.00     0.014 A 
HETATM   11  C   UNK N   1      33.972  14.973   9.328  0.00  0.00     0.024 A 
HETATM   12  C   UNK N   1      34.365  16.298   9.172  0.00  0.00     0.058 A 
HETATM   13  C   UNK N   1      35.255  16.877  10.087  0.00  0.00     0.024 A 
HETATM   14  C   UNK N   1      35.788  16.113  11.131  0.00  0.00     0.014 A 
BRANCH  12  15
HETATM   15  S   UNK N   1      33.941  17.169   7.673  0.00  0.00     0.171 S 
HETATM   16  O   UNK N   1      34.859  16.373   6.737  0.00  0.00    -0.223 OA
HETATM   17  O   UNK N   1      34.719  18.488   7.558  0.00  0.00    -0.223 OA
HETATM   18  C   UNK N   1      32.467  17.172   6.614  0.00  0.00     0.167 C 
ENDBRANCH  12  15
ENDBRANCH   4   9
BRANCH   5  19
HETATM   19  C   UNK N   1      37.653  12.686  10.568  0.00  0.00     0.007 A 
HETATM   20  C   UNK N   1      37.244  11.627   9.751  0.00  0.00     0.017 A 
HETATM   21  C   UNK N   1      37.770  11.500   8.461  0.00  0.00     0.025 A 
HETATM   22  C   UNK N   1      38.726  12.416   8.014  0.00  0.00     0.005 A 
HETATM   23  N   UNK N   1      39.164  13.399   8.839  0.00  0.00    -0.369 N 
HETATM   24  C   UNK N   1      39.267  12.320   6.633  0.00  0.00     0.068 C 
HETATM   25  C   UNK N   1      38.662  13.541  10.092  0.00  0.00     0.101 A 
ATOM     26  HN  UNK N   1      39.885  14.043   8.514  1.00  0.00     0.165 HD
ENDBRANCH   5  19
TORSDOF 3
ENDMDL
MODEL 7
REMARK VINA RESULT:      -6.4     12.260     14.141
REMARK  3 active torsions:
REMARK  status: ('A' for Active; 'I' for Inactive)
REMARK    1  A    between atoms: S_2  and  C_11 
REMARK    2  A    between atoms: C_9  and  C_10 
REMARK    3  A    between atoms: C_12  and  C_17 
ROOT
HETATM    1 Cl   UNK N   1      32.547  20.986  -2.935  0.00  0.00    -0.083 Cl
HETATM    2  N   UNK N   1      30.056  21.118  -6.055  0.00  0.00    -0.363 N 
ATOM      3  HN  UNK N   1      29.843  20.524  -6.856  1.00  0.00     0.165 HD
HETATM    4  C   UNK N   1      29.634  23.107  -4.758  0.00  0.00     0.003 A 
HETATM    5  C   UNK N   1      29.380  22.298  -5.913  0.00  0.00     0.055 A 
HETATM    6  C   UNK N   1      30.629  22.694  -3.863  0.00  0.00     0.040 A 
HETATM    7  C   UNK N   1      31.317  21.502  -4.069  0.00  0.00     0.050 A 
HETATM    8  C   UNK N   1      30.997  20.709  -5.167  0.00  0.00     0.112 A 
ENDROOT
BRANCH   4   9
HETATM    9  C   UNK N   1      28.856  24.338  -4.430  0.00  0.00    -0.024 A 
HETATM   10  C   UNK N   1      27.589  24.249  -3.825  0.00  0.00     0.014 A 
HETATM   11  C   UNK N   1      26.803  25.381  -3.633  0.00  0.00     0.024 A 
HETATM   12  C   UNK N   1      27.290  26.628  -4.008  0.00  0.00     0.058 A 
HETATM   13  C   UNK N   1      28.586  26.747  -4.529  0.00  0.00     0.024 A 
HETATM   14  C   UNK N   1      29.375  25.608  -4.718  0.00  0.00     0.014 A 
BRANCH  12  15
HETATM   15  S   UNK N   1      26.178  28.024  -4.066  0.00  0.00     0.171 S 
HETATM   16  O   UNK N   1      25.501  27.770  -2.715  0.00  0.00    -0.223 OA
HETATM   17  O   UNK N   1      24.939  27.710  -4.916  0.00  0.00    -0.223 OA
HETATM   18  C   UNK N   1      26.421  29.813  -3.878  0.00  0.00     0.167 C 
ENDBRANCH  12  15
ENDBRANCH   4   9
BRANCH   5  19
HETATM   19  C   UNK N   1      28.472  22.714  -7.019  0.00  0.00     0.007 A 
HETATM   20  C   UNK N   1      27.120  22.355  -7.009  0.00  0.00     0.017 A 
HETATM   21  C   UNK N   1      26.276  22.787  -8.038  0.00  0.00     0.025 A 
HETATM   22  C   UNK N   1      26.803  23.547  -9.086  0.00  0.00     0.005 A 
HETATM   23  N   UNK N   1      28.128  23.831  -9.120  0.00  0.00    -0.369 N 
HETATM   24  C   UNK N   1      25.915  24.047 -10.168  0.00  0.00     0.068 C 
HETATM   25  C   UNK N   1      28.961  23.425  -8.129  0.00  0.00     0.101 A 
ATOM     26  HN  UNK N   1      28.507  24.360  -9.906  1.00  0.00     0.165 HD
ENDBRANCH   5  19
TORSDOF 3
ENDMDL
MODEL 8
REMARK VINA RESULT:      -6.3      7.491     11.469
REMARK  3 active torsions:
REMARK  status: ('A' for Active; 'I' for Inactive)
REMARK    1  A    between atoms: S_2  and  C_11 
REMARK    2  A    between atoms: C_9  and  C_10 
REMARK    3  A    between atoms: C_12  and  C_17 
ROOT
HETATM    1 Cl   UNK N   1      37.432  15.741  16.063  0.00  0.00    -0.083 Cl
HETATM    2  N   UNK N   1      36.089  12.244  14.677  0.00  0.00    -0.363 N 
ATOM      3  HN  UNK N   1      35.935  11.309  15.055  1.00  0.00     0.165 HD
HETATM    4  C   UNK N   1      35.965  13.801  12.840  0.00  0.00     0.003 A 
HETATM    5  C   UNK N   1      35.807  12.476  13.360  0.00  0.00     0.055 A 
HETATM    6  C   UNK N   1      36.488  14.789  13.685  0.00  0.00     0.040 A 
HETATM    7  C   UNK N   1      36.797  14.496  15.010  0.00  0.00     0.050 A 
HETATM    8  C   UNK N   1      36.566  13.214  15.499  0.00  0.00     0.112 A 
ENDROOT
BRANCH   4   9
HETATM    9  C   UNK N   1      35.554  14.198  11.461  0.00  0.00    -0.024 A 
HETATM   10  C   UNK N   1      36.472  14.156  10.396  0.00  0.00     0.014 A 
HETATM   11  C   UNK N   1      36.136  14.644   9.137  0.00  0.00     0.024 A 
HETATM   12  C   UNK N   1      34.858  15.144   8.913  0.00  0.00     0.058 A 
HETATM   13  C   UNK N   1      33.902  15.111   9.937  0.00  0.00     0.024 A 
HETATM   14  C   UNK N   1      34.242  14.617  11.201  0.00  0.00     0.014 A 
BRANCH  12  15
HETATM   15  S   UNK N   1      34.524  16.058   7.416  0.00  0.00     0.171 S 
HETATM   16  O   UNK N   1      33.321  15.224   6.961  0.00  0.00    -0.223 OA
HETATM   17  O   UNK N   1      35.452  15.614   6.276  0.00  0.00    -0.223 OA
HETATM   18  C   UNK N   1      33.813  17.697   7.094  0.00  0.00     0.167 C 
ENDBRANCH  12  15
ENDBRANCH   4   9
BRANCH   5  19
HETATM   19  C   UNK N   1      35.423  11.308  12.517  0.00  0.00     0.007 A 
HETATM   20  C   UNK N   1      34.123  10.794  12.553  0.00  0.00     0.017 A 
HETATM   21  C   UNK N   1      33.774   9.720  11.727  0.00  0.00     0.025 A 
HETATM   22  C   UNK N   1      34.742   9.148  10.896  0.00  0.00     0.005 A 
HETATM   23  N   UNK N   1      36.017   9.611  10.920  0.00  0.00    -0.369 N 
HETATM   24  C   UNK N   1      34.381   8.033   9.984  0.00  0.00     0.068 C 
HETATM   25  C   UNK N   1      36.372  10.654  11.711  0.00  0.00     0.101 A 
ATOM     26  HN  UNK N   1      36.722   9.165  10.333  1.00  0.00     0.165 HD
ENDBRANCH   5  19
TORSDOF 3
ENDMDL
MODEL 9
REMARK VINA RESULT:      -6.3      6.994      8.927
REMARK  3 active torsions:
REMARK  status: ('A' for Active; 'I' for Inactive)
REMARK    1  A    between atoms: S_2  and  C_11 
REMARK    2  A    between atoms: C_9  and  C_10 
REMARK    3  A    between atoms: C_12  and  C_17 
ROOT
HETATM    1 Cl   UNK N   1      18.783  10.492  -0.261  0.00  0.00    -0.083 Cl
HETATM    2  N   UNK N   1      18.474  14.344   0.750  0.00  0.00    -0.363 N 
ATOM      3  HN  UNK N   1      17.730  15.041   0.786  1.00  0.00     0.165 HD
HETATM    4  C   UNK N   1      20.775  13.722   1.117  0.00  0.00     0.003 A 
HETATM    5  C   UNK N   1      19.740  14.713   1.110  0.00  0.00     0.055 A 
HETATM    6  C   UNK N   1      20.463  12.432   0.670  0.00  0.00     0.040 A 
HETATM    7  C   UNK N   1      19.167  12.113   0.278  0.00  0.00     0.050 A 
HETATM    8  C   UNK N   1      18.172  13.083   0.348  0.00  0.00     0.112 A 
ENDROOT
BRANCH   4   9
HETATM    9  C   UNK N   1      22.155  13.980   1.626  0.00  0.00    -0.024 A 
HETATM   10  C   UNK N   1      22.424  13.980   3.006  0.00  0.00     0.014 A 
HETATM   11  C   UNK N   1      23.676  14.344   3.494  0.00  0.00     0.024 A 
HETATM   12  C   UNK N   1      24.691  14.674   2.604  0.00  0.00     0.058 A 
HETATM   13  C   UNK N   1      24.467  14.592   1.223  0.00  0.00     0.024 A 
HETATM   14  C   UNK N   1      23.210  14.223   0.735  0.00  0.00     0.014 A 
BRANCH  12  15
HETATM   15  S   UNK N   1      26.180  15.446   3.218  0.00  0.00     0.171 S 
HETATM   16  O   UNK N   1      26.972  15.377   1.907  0.00  0.00    -0.223 OA
HETATM   17  O   UNK N   1      27.056  14.437   3.974  0.00  0.00    -0.223 OA
HETATM   18  C   UNK N   1      26.600  17.156   3.659  0.00  0.00     0.167 C 
ENDBRANCH  12  15
ENDBRANCH   4   9
BRANCH   5  19
HETATM   19  C   UNK N   1      19.987  16.155   1.398  0.00  0.00     0.007 A 
HETATM   20  C   UNK N   1      20.139  16.606   2.713  0.00  0.00     0.017 A 
HETATM   21  C   UNK N   1      20.407  17.957   2.960  0.00  0.00     0.025 A 
HETATM   22  C   UNK N   1      20.484  18.851   1.887  0.00  0.00     0.005 A 
HETATM   23  N   UNK N   1      20.267  18.414   0.622  0.00  0.00    -0.369 N 
HETATM   24  C   UNK N   1      20.805  20.281   2.126  0.00  0.00     0.068 C 
HETATM   25  C   UNK N   1      20.011  17.106   0.363  0.00  0.00     0.101 A 
ATOM     26  HN  UNK N   1      20.294  19.080  -0.150  1.00  0.00     0.165 HD
ENDBRANCH   5  19
TORSDOF 3
ENDMDL
