MODEL 1
REMARK VINA RESULT:     -25.1      0.000      0.000
REMARK  10 active torsions:
REMARK  status: ('A' for Active; 'I' for Inactive)
REMARK    1  A    between atoms: C_25  and  C_28 
REMARK    2  A    between atoms: C_27  and  C_31 
REMARK    3  A    between atoms: C_34  and  C_35 
REMARK    4  A    between atoms: C_35  and  C_36 
REMARK    5  A    between atoms: C_38  and  C_42 
REMARK    6  A    between atoms: C_48  and  C_51 
REMARK    7  A    between atoms: C_59  and  C_60 
REMARK    8  A    between atoms: C_64  and  C_65 
REMARK    9  A    between atoms: C_70  and  C_71 
REMARK   10  A    between atoms: C_76  and  C_77 
ROOT
HETATM    1  O   UNK N   1      31.106  16.382   4.438  0.00  0.00    -0.393 OA
HETATM    2  O   UNK N   1      31.723  17.540   7.314  0.00  0.00    -0.271 OA
HETATM    3  O   UNK N   1      30.187  16.634   5.381  0.00  0.00    -0.271 OA
HETATM    4  O   UNK N   1      29.340  18.358  10.191  0.00  0.00    -0.394 OA
HETATM    5  O   UNK N   1      34.562  17.603   6.627  0.00  0.00    -0.393 OA
HETATM    6  O   UNK N   1      29.140  16.744   5.986  0.00  0.00    -0.374 OA
HETATM    7  O   UNK N   1      28.056  17.149   7.382  0.00  0.00    -0.391 OA
HETATM    8  O   UNK N   1      30.436  18.145   9.298  0.00  0.00    -0.272 OA
HETATM    9  O   UNK N   1      29.229  17.304   7.439  0.00  0.00    -0.277 OA
HETATM   10  O   UNK N   1      31.520  17.343   6.856  0.00  0.00    -0.390 OA
HETATM   11  O   UNK N   1      33.026  18.350   9.062  0.00  0.00    -0.271 OA
HETATM   12  O   UNK N   1      27.238  17.915   9.653  0.00  0.00    -0.393 OA
HETATM   13  O   UNK N   1      32.917  17.276   6.258  0.00  0.00    -0.388 OA
HETATM   14  O   UNK N   1      29.982  18.287   9.812  0.00  0.00    -0.271 OA
HETATM   15  O   UNK N   1      30.518  17.320   7.094  0.00  0.00    -0.268 OA
HETATM   16  O   UNK N   1      35.525  18.499   8.707  0.00  0.00    -0.361 OA
HETATM   17  O   UNK N   1      24.457  14.422   1.260  0.00  0.00    -0.351 OA
HETATM   18  N   UNK N   1      32.187  17.137   6.110  0.00  0.00    -0.334 N 
HETATM   19  N   UNK N   1      29.649  17.426   7.636  0.00  0.00    -0.235 N 
HETATM   20  N   UNK N   1      30.272  17.127   6.659  0.00  0.00    -0.331 N 
HETATM   21  N   UNK N   1      33.398  17.899   7.759  0.00  0.00    -0.344 N 
HETATM   22  N   UNK N   1      31.442  18.039   8.718  0.00  0.00    -0.344 N 
HETATM   23  N   UNK N   1      28.862  18.068   9.568  0.00  0.00    -0.344 N 
HETATM   24  N   UNK N   1      29.989  17.490   7.704  0.00  0.00    -0.344 N 
HETATM   25  C   UNK N   1      32.463  16.705   4.886  0.00  0.00     0.031 A 
HETATM   26  C   UNK N   1      31.652  16.654   4.994  0.00  0.00     0.155 A 
HETATM   27  C   UNK N   1      31.477  16.920   5.749  0.00  0.00     0.208 A 
HETATM   28  C   UNK N   1      32.793  17.003   5.575  0.00  0.00     0.134 A 
HETATM   29  C   UNK N   1      32.876  16.494   4.204  0.00  0.00     0.014 A 
HETATM   30  C   UNK N   1      32.396  17.441   6.849  0.00  0.00     0.246 A 
HETATM   31  C   UNK N   1      30.685  16.916   5.977  0.00  0.00     0.245 A 
HETATM   32  C   UNK N   1      33.188  17.596   7.021  0.00  0.00     0.205 A 
HETATM   33  C   UNK N   1      30.441  17.581   7.808  0.00  0.00     0.160 A 
HETATM   34  C   UNK N   1      30.681  18.034   8.932  0.00  0.00     0.062 A 
HETATM   35  C   UNK N   1      29.555  18.097   9.437  0.00  0.00     0.133 A 
HETATM   36  C   UNK N   1      28.833  17.671   8.530  0.00  0.00     0.131 A 
HETATM   37  C   UNK N   1      33.770  17.448   6.455  0.00  0.00     0.146 A 
HETATM   38  C   UNK N   1      29.452  17.044   6.687  0.00  0.00     0.249 A 
HETATM   39  C   UNK N   1      32.024  17.891   8.152  0.00  0.00     0.208 A 
HETATM   40  C   UNK N   1      30.651  17.884   8.546  0.00  0.00     0.236 A 
HETATM   41  C   UNK N   1      29.067  17.574   8.202  0.00  0.00     0.226 A 
HETATM   42  C   UNK N   1      28.870  17.192   7.253  0.00  0.00     0.169 A 
HETATM   43  C   UNK N   1      32.816  18.047   8.325  0.00  0.00     0.243 A 
HETATM   44  C   UNK N   1      28.454  17.774   8.914  0.00  0.00     0.199 A 
HETATM   45  C   UNK N   1      32.099  17.608   7.381  0.00  0.00     0.183 A 
HETATM   46  C   UNK N   1      28.867  17.484   8.025  0.00  0.00     0.071 A 
HETATM   47  C   UNK N   1      33.985  17.187   5.703  0.00  0.00     0.042 A 
HETATM   48  C   UNK N   1      29.576  17.701   8.386  0.00  0.00     0.179 A 
HETATM   49  C   UNK N   1      27.634  17.698   8.961  0.00  0.00     0.145 A 
HETATM   50  C   UNK N   1      32.843  17.560   7.029  0.00  0.00     0.182 A 
HETATM   51  C   UNK N   1      29.574  17.993   9.158  0.00  0.00     0.241 A 
HETATM   52  C   UNK N   1      27.209  17.406   8.317  0.00  0.00     0.042 A 
HETATM   53  C   UNK N   1      33.514  17.795   7.449  0.00  0.00    -0.027 A 
HETATM   54  C   UNK N   1      29.710  17.188   6.988  0.00  0.00     0.252 A 
HETATM   55  C   UNK N   1      34.259  17.746   7.097  0.00  0.00     0.012 A 
HETATM   56  C   UNK N   1      33.439  18.078   8.220  0.00  0.00     0.012 A 
HETATM   57  C   UNK N   1      29.185  16.911   6.415  0.00  0.00     0.032 A 
HETATM   58  C   UNK N   1      34.929  17.981   7.516  0.00  0.00     0.037 A 
HETATM   59  C   UNK N   1      34.110  18.313   8.639  0.00  0.00     0.037 A 
HETATM   60  C   UNK N   1      34.854  18.264   8.287  0.00  0.00     0.065 A 
HETATM   61  C   UNK N   1      29.469  16.665   5.681  0.00  0.00     0.018 A 
HETATM   62  C   UNK N   1      28.376  16.881   6.578  0.00  0.00     0.018 A 
HETATM   63  C   UNK N   1      28.943  16.389   5.108  0.00  0.00     0.013 A 
HETATM   64  C   UNK N   1      27.851  16.604   6.005  0.00  0.00     0.013 A 
HETATM   65  C   UNK N   1      28.134  16.358   5.269  0.00  0.00    -0.026 A 
HETATM   66  C   UNK N   1      27.609  16.081   4.696  0.00  0.00    -0.026 A 
HETATM   67  C   UNK N   1      27.892  15.836   3.962  0.00  0.00     0.013 A 
HETATM   68  C   UNK N   1      26.800  16.051   4.859  0.00  0.00     0.013 A 
HETATM   69  C   UNK N   1      27.367  15.559   3.389  0.00  0.00     0.013 A 
HETATM   70  C   UNK N   1      26.276  15.775   4.286  0.00  0.00     0.013 A 
HETATM   71  C   UNK N   1      26.559  15.529   3.551  0.00  0.00    -0.026 A 
HETATM   72  C   UNK N   1      26.033  15.252   2.978  0.00  0.00    -0.026 A 
HETATM   73  C   UNK N   1      25.225  15.221   3.140  0.00  0.00     0.015 A 
HETATM   74  C   UNK N   1      26.316  15.006   2.243  0.00  0.00     0.015 A 
HETATM   75  C   UNK N   1      24.700  14.945   2.567  0.00  0.00     0.037 A 
HETATM   76  C   UNK N   1      25.790  14.729   1.670  0.00  0.00     0.037 A 
HETATM   77  C   UNK N   1      24.982  14.699   1.833  0.00  0.00     0.068 A 
HETATM   78  C   UNK N   1      23.124  14.115   0.848  0.00  0.00     0.027 A 
HETATM   79  C   UNK N   1      23.649  14.392   1.421  0.00  0.00     0.175 A 
HETATM   80  C   UNK N   1      22.315  14.084   1.011  0.00  0.00     0.002 A 
HETATM   81  C   UNK N   1      21.790  13.808   0.438  0.00  0.00    -0.004 A 
HETATM   82  C   UNK N   1      20.981  13.777   0.600  0.00  0.00     0.005 A 
HETATM   83  H   UNK N   1      30.161  16.357   4.658  0.00  0.00     0.210 HD
HETATM   84  H   UNK N   1      30.020  18.669  10.809  0.00  0.00     0.210 HD
HETATM   85  H   UNK N   1      35.246  17.429   5.963  0.00  0.00     0.210 HD
HETATM   86  H   UNK N   1      28.184  16.602   5.900  0.00  0.00     0.212 HD
HETATM   87  H   UNK N   1      27.684  17.428   8.233  0.00  0.00     0.210 HD
HETATM   88  H   UNK N   1      30.588  17.338   7.123  0.00  0.00     0.210 HD
HETATM   89  H   UNK N   1      27.739  18.258  10.410  0.00  0.00     0.210 HD
HETATM   90  H   UNK N   1      32.129  17.000   5.765  0.00  0.00     0.210 HD
HETATM   91  H   UNK N   1      36.371  18.444   8.307  0.00  0.00     0.217 HD
HETATM   92  H   UNK N   1      30.758  17.478   7.440  0.00  0.00     0.165 HD
HETATM   93  H   UNK N   1      34.343  18.084   7.964  0.00  0.00     0.163 HD
HETATM   94  H   UNK N   1      31.693  18.401   9.599  0.00  0.00     0.163 HD
HETATM   95  H   UNK N   1      28.605  18.378  10.466  0.00  0.00     0.163 HD
HETATM   96  H   UNK N   1      30.964  17.619   7.750  0.00  0.00     0.163 HD
ENDROOT
TORSDOF 10
ENDMDL
MODEL 2
REMARK VINA RESULT:     -23.9     11.952     14.194
REMARK  10 active torsions:
REMARK  status: ('A' for Active; 'I' for Inactive)
REMARK    1  A    between atoms: C_25  and  C_28 
REMARK    2  A    between atoms: C_27  and  C_31 
REMARK    3  A    between atoms: C_34  and  C_35 
REMARK    4  A    between atoms: C_35  and  C_36 
REMARK    5  A    between atoms: C_38  and  C_42 
REMARK    6  A    between atoms: C_48  and  C_51 
REMARK    7  A    between atoms: C_59  and  C_60 
REMARK    8  A    between atoms: C_64  and  C_65 
REMARK    9  A    between atoms: C_70  and  C_71 
REMARK   10  A    between atoms: C_76  and  C_77 
ROOT
HETATM    1  O   UNK N   1      27.648  22.736  -7.516  0.00  0.00    -0.393 OA
HETATM    2  O   UNK N   1      28.050  24.024  -4.657  0.00  0.00    -0.271 OA
HETATM    3  O   UNK N   1      28.558  22.342  -6.613  0.00  0.00    -0.271 OA
HETATM    4  O   UNK N   1      30.535  23.130  -1.891  0.00  0.00    -0.394 OA
HETATM    5  O   UNK N   1      25.879  25.890  -5.246  0.00  0.00    -0.393 OA
HETATM    6  O   UNK N   1      29.460  21.757  -6.049  0.00  0.00    -0.374 OA
HETATM    7  O   UNK N   1      30.616  21.376  -4.705  0.00  0.00    -0.391 OA
HETATM    8  O   UNK N   1      29.516  23.667  -2.738  0.00  0.00    -0.272 OA
HETATM    9  O   UNK N   1      29.818  22.246  -4.612  0.00  0.00    -0.277 OA
HETATM   10  O   UNK N   1      28.058  23.743  -5.116  0.00  0.00    -0.390 OA
HETATM   11  O   UNK N   1      27.649  25.483  -2.890  0.00  0.00    -0.271 OA
HETATM   12  O   UNK N   1      31.839  21.444  -2.489  0.00  0.00    -0.393 OA
HETATM   13  O   UNK N   1      26.915  24.585  -5.662  0.00  0.00    -0.388 OA
HETATM   14  O   UNK N   1      29.980  23.487  -2.245  0.00  0.00    -0.271 OA
HETATM   15  O   UNK N   1      28.823  23.083  -4.912  0.00  0.00    -0.268 OA
HETATM   16  O   UNK N   1      25.811  27.198  -3.163  0.00  0.00    -0.361 OA
HETATM   17  O   UNK N   1      31.349  16.969 -10.862  0.00  0.00    -0.351 OA
HETATM   18  N   UNK N   1      27.380  24.010  -5.831  0.00  0.00    -0.334 N 
HETATM   19  N   UNK N   1      29.583  22.609  -4.404  0.00  0.00    -0.235 N 
HETATM   20  N   UNK N   1      28.868  22.777  -5.349  0.00  0.00    -0.331 N 
HETATM   21  N   UNK N   1      27.015  25.373  -4.165  0.00  0.00    -0.344 N 
HETATM   22  N   UNK N   1      28.650  24.230  -3.280  0.00  0.00    -0.344 N 
HETATM   23  N   UNK N   1      30.687  22.600  -2.521  0.00  0.00    -0.344 N 
HETATM   24  N   UNK N   1      29.366  22.876  -4.327  0.00  0.00    -0.344 N 
HETATM   25  C   UNK N   1      26.835  23.854  -7.031  0.00  0.00     0.031 A 
HETATM   26  C   UNK N   1      27.430  23.295  -6.950  0.00  0.00     0.155 A 
HETATM   27  C   UNK N   1      27.769  23.388  -6.209  0.00  0.00     0.208 A 
HETATM   28  C   UNK N   1      26.805  24.295  -6.341  0.00  0.00     0.134 A 
HETATM   29  C   UNK N   1      26.352  23.955  -7.692  0.00  0.00     0.014 A 
HETATM   30  C   UNK N   1      27.448  24.378  -5.095  0.00  0.00     0.246 A 
HETATM   31  C   UNK N   1      28.385  22.878  -6.010  0.00  0.00     0.245 A 
HETATM   32  C   UNK N   1      26.947  25.005  -4.901  0.00  0.00     0.205 A 
HETATM   33  C   UNK N   1      29.083  23.235  -4.210  0.00  0.00     0.160 A 
HETATM   34  C   UNK N   1      29.240  23.738  -3.092  0.00  0.00     0.062 A 
HETATM   35  C   UNK N   1      30.168  23.067  -2.629  0.00  0.00     0.133 A 
HETATM   36  C   UNK N   1      30.408  22.276  -3.547  0.00  0.00     0.131 A 
HETATM   37  C   UNK N   1      26.380  25.263  -5.441  0.00  0.00     0.146 A 
HETATM   38  C   UNK N   1      29.446  22.188  -5.347  0.00  0.00     0.249 A 
HETATM   39  C   UNK N   1      28.082  24.488  -3.820  0.00  0.00     0.208 A 
HETATM   40  C   UNK N   1      29.150  23.604  -3.474  0.00  0.00     0.236 A 
HETATM   41  C   UNK N   1      30.150  22.351  -3.864  0.00  0.00     0.226 A 
HETATM   42  C   UNK N   1      30.014  21.930  -4.807  0.00  0.00     0.169 A 
HETATM   43  C   UNK N   1      27.582  25.115  -3.624  0.00  0.00     0.243 A 
HETATM   44  C   UNK N   1      30.782  22.112  -3.180  0.00  0.00     0.199 A 
HETATM   45  C   UNK N   1      27.808  24.317  -4.579  0.00  0.00     0.183 A 
HETATM   46  C   UNK N   1      30.239  22.153  -4.045  0.00  0.00     0.071 A 
HETATM   47  C   UNK N   1      26.014  25.200  -6.177  0.00  0.00     0.042 A 
HETATM   48  C   UNK N   1      29.850  22.775  -3.666  0.00  0.00     0.179 A 
HETATM   49  C   UNK N   1      31.365  21.529  -3.159  0.00  0.00     0.145 A 
HETATM   50  C   UNK N   1      27.190  24.756  -4.903  0.00  0.00     0.182 A 
HETATM   51  C   UNK N   1      30.075  22.999  -2.903  0.00  0.00     0.241 A 
HETATM   52  C   UNK N   1      31.474  21.032  -3.808  0.00  0.00     0.042 A 
HETATM   53  C   UNK N   1      26.845  25.367  -4.467  0.00  0.00    -0.027 A 
HETATM   54  C   UNK N   1      29.354  22.464  -5.042  0.00  0.00     0.252 A 
HETATM   55  C   UNK N   1      26.226  25.806  -4.792  0.00  0.00     0.012 A 
HETATM   56  C   UNK N   1      27.119  25.538  -3.708  0.00  0.00     0.012 A 
HETATM   57  C   UNK N   1      29.553  21.915  -5.624  0.00  0.00     0.032 A 
HETATM   58  C   UNK N   1      25.881  26.416  -4.357  0.00  0.00     0.037 A 
HETATM   59  C   UNK N   1      26.774  26.148  -3.274  0.00  0.00     0.037 A 
HETATM   60  C   UNK N   1      26.155  26.587  -3.598  0.00  0.00     0.065 A 
HETATM   61  C   UNK N   1      29.144  21.907  -6.340  0.00  0.00     0.018 A 
HETATM   62  C   UNK N   1      30.161  21.374  -5.489  0.00  0.00     0.018 A 
HETATM   63  C   UNK N   1      29.344  21.357  -6.922  0.00  0.00     0.013 A 
HETATM   64  C   UNK N   1      30.361  20.824  -6.071  0.00  0.00     0.013 A 
HETATM   65  C   UNK N   1      29.952  20.816  -6.788  0.00  0.00    -0.026 A 
HETATM   66  C   UNK N   1      30.152  20.266  -7.370  0.00  0.00    -0.026 A 
HETATM   67  C   UNK N   1      29.743  20.258  -8.087  0.00  0.00     0.013 A 
HETATM   68  C   UNK N   1      30.760  19.725  -7.236  0.00  0.00     0.013 A 
HETATM   69  C   UNK N   1      29.942  19.708  -8.669  0.00  0.00     0.013 A 
HETATM   70  C   UNK N   1      30.959  19.176  -7.817  0.00  0.00     0.013 A 
HETATM   71  C   UNK N   1      30.550  19.167  -8.534  0.00  0.00    -0.026 A 
HETATM   72  C   UNK N   1      30.750  18.618  -9.116  0.00  0.00    -0.026 A 
HETATM   73  C   UNK N   1      31.358  18.077  -8.982  0.00  0.00     0.015 A 
HETATM   74  C   UNK N   1      30.342  18.609  -9.833  0.00  0.00     0.015 A 
HETATM   75  C   UNK N   1      31.558  17.527  -9.564  0.00  0.00     0.037 A 
HETATM   76  C   UNK N   1      30.542  18.059 -10.415  0.00  0.00     0.037 A 
HETATM   77  C   UNK N   1      31.150  17.518 -10.280  0.00  0.00     0.068 A 
HETATM   78  C   UNK N   1      32.156  15.879 -11.310  0.00  0.00     0.027 A 
HETATM   79  C   UNK N   1      31.957  16.428 -10.728  0.00  0.00     0.175 A 
HETATM   80  C   UNK N   1      32.765  15.338 -11.176  0.00  0.00     0.002 A 
HETATM   81  C   UNK N   1      32.964  14.788 -11.758  0.00  0.00    -0.004 A 
HETATM   82  C   UNK N   1      33.573  14.247 -11.623  0.00  0.00     0.005 A 
HETATM   83  H   UNK N   1      28.368  22.112  -7.328  0.00  0.00     0.210 HD
HETATM   84  H   UNK N   1      30.241  23.805  -1.260  0.00  0.00     0.210 HD
HETATM   85  H   UNK N   1      25.213  26.193  -5.881  0.00  0.00     0.210 HD
HETATM   86  H   UNK N   1      30.099  21.036  -6.164  0.00  0.00     0.212 HD
HETATM   87  H   UNK N   1      31.120  21.353  -3.876  0.00  0.00     0.210 HD
HETATM   88  H   UNK N   1      28.783  23.142  -4.881  0.00  0.00     0.210 HD
HETATM   89  H   UNK N   1      31.710  22.029  -1.726  0.00  0.00     0.210 HD
HETATM   90  H   UNK N   1      27.320  23.868  -6.173  0.00  0.00     0.210 HD
HETATM   91  H   UNK N   1      25.108  27.697  -3.531  0.00  0.00     0.217 HD
HETATM   92  H   UNK N   1      28.756  23.359  -4.563  0.00  0.00     0.165 HD
HETATM   93  H   UNK N   1      26.417  26.121  -3.933  0.00  0.00     0.163 HD
HETATM   94  H   UNK N   1      28.729  24.670  -2.402  0.00  0.00     0.163 HD
HETATM   95  H   UNK N   1      31.124  22.676  -1.643  0.00  0.00     0.163 HD
HETATM   96  H   UNK N   1      28.702  23.599  -4.251  0.00  0.00     0.163 HD
ENDROOT
TORSDOF 10
ENDMDL
MODEL 3
REMARK VINA RESULT:     -23.5      4.222      8.669
REMARK  10 active torsions:
REMARK  status: ('A' for Active; 'I' for Inactive)
REMARK    1  A    between atoms: C_25  and  C_28 
REMARK    2  A    between atoms: C_27  and  C_31 
REMARK    3  A    between atoms: C_34  and  C_35 
REMARK    4  A    between atoms: C_35  and  C_36 
REMARK    5  A    between atoms: C_38  and  C_42 
REMARK    6  A    between atoms: C_48  and  C_51 
REMARK    7  A    between atoms: C_59  and  C_60 
REMARK    8  A    between atoms: C_64  and  C_65 
REMARK    9  A    between atoms: C_70  and  C_71 
REMARK   10  A    between atoms: C_76  and  C_77 
ROOT
HETATM    1  O   UNK N   1      26.359  19.548   3.430  0.00  0.00    -0.393 OA
HETATM    2  O   UNK N   1      23.463  18.528   4.182  0.00  0.00    -0.271 OA
HETATM    3  O   UNK N   1      26.092  18.460   4.166  0.00  0.00    -0.271 OA
HETATM    4  O   UNK N   1      22.392  15.491   6.244  0.00  0.00    -0.394 OA
HETATM    5  O   UNK N   1      22.337  20.780   2.698  0.00  0.00    -0.393 OA
HETATM    6  O   UNK N   1      26.199  17.455   4.838  0.00  0.00    -0.374 OA
HETATM    7  O   UNK N   1      25.635  16.029   5.807  0.00  0.00    -0.391 OA
HETATM    8  O   UNK N   1      22.507  16.673   5.448  0.00  0.00    -0.272 OA
HETATM    9  O   UNK N   1      24.871  16.790   5.315  0.00  0.00    -0.277 OA
HETATM   10  O   UNK N   1      23.988  18.621   4.108  0.00  0.00    -0.390 OA
HETATM   11  O   UNK N   1      21.137  18.531   4.234  0.00  0.00    -0.271 OA
HETATM   12  O   UNK N   1      24.143  14.347   6.970  0.00  0.00    -0.393 OA
HETATM   13  O   UNK N   1      23.661  19.858   3.286  0.00  0.00    -0.388 OA
HETATM   14  O   UNK N   1      22.333  16.111   5.829  0.00  0.00    -0.271 OA
HETATM   15  O   UNK N   1      24.389  17.828   4.630  0.00  0.00    -0.268 OA
HETATM   16  O   UNK N   1      19.928  20.389   3.017  0.00  0.00    -0.361 OA
HETATM   17  O   UNK N   1      33.192  16.665   5.204  0.00  0.00    -0.351 OA
HETATM   18  N   UNK N   1      24.236  19.440   3.552  0.00  0.00    -0.334 N 
HETATM   19  N   UNK N   1      24.443  16.973   5.202  0.00  0.00    -0.235 N 
HETATM   20  N   UNK N   1      24.921  17.880   4.583  0.00  0.00    -0.331 N 
HETATM   21  N   UNK N   1      22.053  19.432   3.609  0.00  0.00    -0.344 N 
HETATM   22  N   UNK N   1      22.403  17.639   4.803  0.00  0.00    -0.344 N 
HETATM   23  N   UNK N   1      23.229  15.480   6.231  0.00  0.00    -0.344 N 
HETATM   24  N   UNK N   1      24.177  17.168   5.077  0.00  0.00    -0.344 N 
HETATM   25  C   UNK N   1      25.141  20.237   2.997  0.00  0.00     0.031 A 
HETATM   26  C   UNK N   1      25.540  19.638   3.389  0.00  0.00     0.155 A 
HETATM   27  C   UNK N   1      24.984  19.144   3.734  0.00  0.00     0.208 A 
HETATM   28  C   UNK N   1      24.336  20.115   3.097  0.00  0.00     0.134 A 
HETATM   29  C   UNK N   1      25.487  20.855   2.574  0.00  0.00     0.014 A 
HETATM   30  C   UNK N   1      23.461  19.213   3.723  0.00  0.00     0.246 A 
HETATM   31  C   UNK N   1      25.267  18.498   4.160  0.00  0.00     0.245 A 
HETATM   32  C   UNK N   1      22.828  19.659   3.438  0.00  0.00     0.205 A 
HETATM   33  C   UNK N   1      23.811  17.420   4.917  0.00  0.00     0.160 A 
HETATM   34  C   UNK N   1      22.679  17.020   5.211  0.00  0.00     0.062 A 
HETATM   35  C   UNK N   1      22.922  16.011   5.882  0.00  0.00     0.133 A 
HETATM   36  C   UNK N   1      24.157  15.978   5.876  0.00  0.00     0.131 A 
HETATM   37  C   UNK N   1      22.970  20.333   2.983  0.00  0.00     0.146 A 
HETATM   38  C   UNK N   1      25.395  17.314   4.951  0.00  0.00     0.249 A 
HETATM   39  C   UNK N   1      22.545  18.312   4.348  0.00  0.00     0.208 A 
HETATM   40  C   UNK N   1      23.036  17.192   5.088  0.00  0.00     0.236 A 
HETATM   41  C   UNK N   1      24.302  16.300   5.657  0.00  0.00     0.226 A 
HETATM   42  C   UNK N   1      25.253  16.641   5.406  0.00  0.00     0.169 A 
HETATM   43  C   UNK N   1      21.911  18.758   4.064  0.00  0.00     0.243 A 
HETATM   44  C   UNK N   1      24.051  15.532   6.177  0.00  0.00     0.199 A 
HETATM   45  C   UNK N   1      23.176  18.747   4.042  0.00  0.00     0.183 A 
HETATM   46  C   UNK N   1      24.579  16.253   5.681  0.00  0.00     0.071 A 
HETATM   47  C   UNK N   1      23.498  20.853   2.622  0.00  0.00     0.042 A 
HETATM   48  C   UNK N   1      23.830  16.550   5.500  0.00  0.00     0.179 A 
HETATM   49  C   UNK N   1      24.509  14.958   6.552  0.00  0.00     0.145 A 
HETATM   50  C   UNK N   1      23.031  19.423   3.592  0.00  0.00     0.182 A 
HETATM   51  C   UNK N   1      23.155  16.163   5.775  0.00  0.00     0.241 A 
HETATM   52  C   UNK N   1      25.332  14.993   6.509  0.00  0.00     0.042 A 
HETATM   53  C   UNK N   1      22.255  19.664   3.448  0.00  0.00    -0.027 A 
HETATM   54  C   UNK N   1      24.974  17.338   4.945  0.00  0.00     0.252 A 
HETATM   55  C   UNK N   1      22.110  20.341   2.998  0.00  0.00     0.012 A 
HETATM   56  C   UNK N   1      21.624  19.230   3.754  0.00  0.00     0.012 A 
HETATM   57  C   UNK N   1      25.796  17.270   4.971  0.00  0.00     0.032 A 
HETATM   58  C   UNK N   1      21.335  20.582   2.854  0.00  0.00     0.037 A 
HETATM   59  C   UNK N   1      20.849  19.472   3.610  0.00  0.00     0.037 A 
HETATM   60  C   UNK N   1      20.704  20.147   3.160  0.00  0.00     0.065 A 
HETATM   61  C   UNK N   1      26.267  17.828   4.586  0.00  0.00     0.018 A 
HETATM   62  C   UNK N   1      26.145  16.646   5.381  0.00  0.00     0.018 A 
HETATM   63  C   UNK N   1      27.089  17.761   4.612  0.00  0.00     0.013 A 
HETATM   64  C   UNK N   1      26.967  16.579   5.407  0.00  0.00     0.013 A 
HETATM   65  C   UNK N   1      27.440  17.136   5.023  0.00  0.00    -0.026 A 
HETATM   66  C   UNK N   1      28.262  17.069   5.049  0.00  0.00    -0.026 A 
HETATM   67  C   UNK N   1      28.733  17.626   4.664  0.00  0.00     0.013 A 
HETATM   68  C   UNK N   1      28.611  16.445   5.459  0.00  0.00     0.013 A 
HETATM   69  C   UNK N   1      29.555  17.559   4.690  0.00  0.00     0.013 A 
HETATM   70  C   UNK N   1      29.432  16.378   5.485  0.00  0.00     0.013 A 
HETATM   71  C   UNK N   1      29.905  16.935   5.100  0.00  0.00    -0.026 A 
HETATM   72  C   UNK N   1      30.727  16.868   5.126  0.00  0.00    -0.026 A 
HETATM   73  C   UNK N   1      31.076  16.243   5.537  0.00  0.00     0.015 A 
HETATM   74  C   UNK N   1      31.199  17.424   4.742  0.00  0.00     0.015 A 
HETATM   75  C   UNK N   1      31.898  16.176   5.563  0.00  0.00     0.037 A 
HETATM   76  C   UNK N   1      32.021  17.357   4.768  0.00  0.00     0.037 A 
HETATM   77  C   UNK N   1      32.370  16.732   5.179  0.00  0.00     0.068 A 
HETATM   78  C   UNK N   1      34.364  15.975   5.640  0.00  0.00     0.027 A 
HETATM   79  C   UNK N   1      33.542  16.042   5.614  0.00  0.00     0.175 A 
HETATM   80  C   UNK N   1      34.714  15.350   6.051  0.00  0.00     0.002 A 
HETATM   81  C   UNK N   1      35.536  15.283   6.077  0.00  0.00    -0.004 A 
HETATM   82  C   UNK N   1      35.886  14.659   6.487  0.00  0.00     0.005 A 
HETATM   83  H   UNK N   1      26.741  18.804   3.921  0.00  0.00     0.210 HD
HETATM   84  H   UNK N   1      21.437  15.639   6.166  0.00  0.00     0.210 HD
HETATM   85  H   UNK N   1      22.503  21.571   2.164  0.00  0.00     0.210 HD
HETATM   86  H   UNK N   1      26.857  16.855   5.225  0.00  0.00     0.212 HD
HETATM   87  H   UNK N   1      25.116  15.355   6.272  0.00  0.00     0.210 HD
HETATM   88  H   UNK N   1      24.322  17.861   4.610  0.00  0.00     0.210 HD
HETATM   89  H   UNK N   1      23.175  14.305   7.021  0.00  0.00     0.210 HD
HETATM   90  H   UNK N   1      24.573  19.574   3.455  0.00  0.00     0.210 HD
HETATM   91  H   UNK N   1      19.763  21.157   2.505  0.00  0.00     0.217 HD
HETATM   92  H   UNK N   1      23.940  17.817   4.648  0.00  0.00     0.165 HD
HETATM   93  H   UNK N   1      21.299  19.965   3.269  0.00  0.00     0.163 HD
HETATM   94  H   UNK N   1      21.479  17.368   5.006  0.00  0.00     0.163 HD
HETATM   95  H   UNK N   1      22.598  14.859   6.662  0.00  0.00     0.163 HD
HETATM   96  H   UNK N   1      23.543  17.800   4.668  0.00  0.00     0.163 HD
ENDROOT
TORSDOF 10
ENDMDL
MODEL 4
REMARK VINA RESULT:     -23.2     12.086     14.608
REMARK  10 active torsions:
REMARK  status: ('A' for Active; 'I' for Inactive)
REMARK    1  A    between atoms: C_25  and  C_28 
REMARK    2  A    between atoms: C_27  and  C_31 
REMARK    3  A    between atoms: C_34  and  C_35 
REMARK    4  A    between atoms: C_35  and  C_36 
REMARK    5  A    between atoms: C_38  and  C_42 
REMARK    6  A    between atoms: C_48  and  C_51 
REMARK    7  A    between atoms: C_59  and  C_60 
REMARK    8  A    between atoms: C_64  and  C_65 
REMARK    9  A    between atoms: C_70  and  C_71 
REMARK   10  A    between atoms: C_76  and  C_77 
ROOT
HETATM    1  O   UNK N   1      35.325   9.250  15.161  0.00  0.00    -0.393 OA
HETATM    2  O   UNK N   1      35.705  12.379  15.409  0.00  0.00    -0.271 OA
HETATM    3  O   UNK N   1      35.218   9.952  16.298  0.00  0.00    -0.271 OA
HETATM    4  O   UNK N   1      35.466  14.642  18.482  0.00  0.00    -0.394 OA
HETATM    5  O   UNK N   1      36.231  12.494  12.537  0.00  0.00    -0.393 OA
HETATM    6  O   UNK N   1      35.055  10.270  17.459  0.00  0.00    -0.374 OA
HETATM    7  O   UNK N   1      34.954  11.389  18.882  0.00  0.00    -0.391 OA
HETATM    8  O   UNK N   1      35.614  14.043  17.193  0.00  0.00    -0.272 OA
HETATM    9  O   UNK N   1      35.201  11.786  17.793  0.00  0.00    -0.277 OA
HETATM   10  O   UNK N   1      35.623  11.850  15.468  0.00  0.00    -0.390 OA
HETATM   11  O   UNK N   1      36.128  14.549  14.686  0.00  0.00    -0.271 OA
HETATM   12  O   UNK N   1      34.985  13.482  20.306  0.00  0.00    -0.393 OA
HETATM   13  O   UNK N   1      35.859  11.640  13.980  0.00  0.00    -0.388 OA
HETATM   14  O   UNK N   1      35.565  14.438  17.768  0.00  0.00    -0.271 OA
HETATM   15  O   UNK N   1      35.437  11.805  16.480  0.00  0.00    -0.268 OA
HETATM   16  O   UNK N   1      36.613  14.906  12.230  0.00  0.00    -0.361 OA
HETATM   17  O   UNK N   1      33.673   4.068  20.507  0.00  0.00    -0.351 OA
HETATM   18  N   UNK N   1      35.695  11.278  14.625  0.00  0.00    -0.334 N 
HETATM   19  N   UNK N   1      35.305  12.110  17.455  0.00  0.00    -0.235 N 
HETATM   20  N   UNK N   1      35.348  11.287  16.587  0.00  0.00    -0.331 N 
HETATM   21  N   UNK N   1      36.090  13.319  13.960  0.00  0.00    -0.344 N 
HETATM   22  N   UNK N   1      35.771  13.738  16.078  0.00  0.00    -0.344 N 
HETATM   23  N   UNK N   1      35.313  13.864  18.753  0.00  0.00    -0.344 N 
HETATM   24  N   UNK N   1      35.381  12.277  17.154  0.00  0.00    -0.344 N 
HETATM   25  C   UNK N   1      35.645  10.101  14.012  0.00  0.00     0.031 A 
HETATM   26  C   UNK N   1      35.487   9.978  14.807  0.00  0.00     0.155 A 
HETATM   27  C   UNK N   1      35.517  10.702  15.190  0.00  0.00     0.208 A 
HETATM   28  C   UNK N   1      35.774  10.903  13.900  0.00  0.00     0.134 A 
HETATM   29  C   UNK N   1      35.670   9.521  13.427  0.00  0.00     0.014 A 
HETATM   30  C   UNK N   1      35.804  12.096  14.641  0.00  0.00     0.246 A 
HETATM   31  C   UNK N   1      35.373  10.707  16.001  0.00  0.00     0.245 A 
HETATM   32  C   UNK N   1      35.982  12.501  13.945  0.00  0.00     0.205 A 
HETATM   33  C   UNK N   1      35.484  12.515  16.759  0.00  0.00     0.160 A 
HETATM   34  C   UNK N   1      35.632  13.738  16.857  0.00  0.00     0.062 A 
HETATM   35  C   UNK N   1      35.444  13.931  18.062  0.00  0.00     0.133 A 
HETATM   36  C   UNK N   1      35.215  12.791  18.481  0.00  0.00     0.131 A 
HETATM   37  C   UNK N   1      36.053  12.088  13.233  0.00  0.00     0.146 A 
HETATM   38  C   UNK N   1      35.181  11.079  17.367  0.00  0.00     0.249 A 
HETATM   39  C   UNK N   1      35.841  13.325  15.367  0.00  0.00     0.208 A 
HETATM   40  C   UNK N   1      35.592  13.333  16.774  0.00  0.00     0.236 A 
HETATM   41  C   UNK N   1      35.235  12.522  18.166  0.00  0.00     0.226 A 
HETATM   42  C   UNK N   1      35.111  11.492  18.078  0.00  0.00     0.169 A 
HETATM   43  C   UNK N   1      36.020  13.732  14.671  0.00  0.00     0.243 A 
HETATM   44  C   UNK N   1      35.171  13.076  18.949  0.00  0.00     0.199 A 
HETATM   45  C   UNK N   1      35.789  12.556  15.074  0.00  0.00     0.183 A 
HETATM   46  C   UNK N   1      35.178  12.283  18.304  0.00  0.00     0.071 A 
HETATM   47  C   UNK N   1      36.031  11.379  12.814  0.00  0.00     0.042 A 
HETATM   48  C   UNK N   1      35.356  12.858  17.740  0.00  0.00     0.179 A 
HETATM   49  C   UNK N   1      35.006  12.887  19.734  0.00  0.00     0.145 A 
HETATM   50  C   UNK N   1      35.912  12.410  14.272  0.00  0.00     0.182 A 
HETATM   51  C   UNK N   1      35.423  13.650  17.965  0.00  0.00     0.241 A 
HETATM   52  C   UNK N   1      34.861  12.104  19.949  0.00  0.00     0.042 A 
HETATM   53  C   UNK N   1      36.087  13.034  13.762  0.00  0.00    -0.027 A 
HETATM   54  C   UNK N   1      35.261  11.463  17.210  0.00  0.00     0.252 A 
HETATM   55  C   UNK N   1      36.210  12.888  12.958  0.00  0.00     0.012 A 
HETATM   56  C   UNK N   1      36.139  13.804  14.054  0.00  0.00     0.012 A 
HETATM   57  C   UNK N   1      35.102  10.724  17.540  0.00  0.00     0.032 A 
HETATM   58  C   UNK N   1      36.385  13.512  12.448  0.00  0.00     0.037 A 
HETATM   59  C   UNK N   1      36.315  14.427  13.543  0.00  0.00     0.037 A 
HETATM   60  C   UNK N   1      36.437  14.281  12.740  0.00  0.00     0.065 A 
HETATM   61  C   UNK N   1      35.096  10.052  17.061  0.00  0.00     0.018 A 
HETATM   62  C   UNK N   1      34.950  10.657  18.348  0.00  0.00     0.018 A 
HETATM   63  C   UNK N   1      34.937   9.312  17.391  0.00  0.00     0.013 A 
HETATM   64  C   UNK N   1      34.791   9.917  18.678  0.00  0.00     0.013 A 
HETATM   65  C   UNK N   1      34.785   9.244  18.199  0.00  0.00    -0.026 A 
HETATM   66  C   UNK N   1      34.626   8.505  18.529  0.00  0.00    -0.026 A 
HETATM   67  C   UNK N   1      34.620   7.833  18.050  0.00  0.00     0.013 A 
HETATM   68  C   UNK N   1      34.473   8.438  19.337  0.00  0.00     0.013 A 
HETATM   69  C   UNK N   1      34.461   7.093  18.380  0.00  0.00     0.013 A 
HETATM   70  C   UNK N   1      34.314   7.699  19.666  0.00  0.00     0.013 A 
HETATM   71  C   UNK N   1      34.308   7.026  19.188  0.00  0.00    -0.026 A 
HETATM   72  C   UNK N   1      34.150   6.287  19.517  0.00  0.00    -0.026 A 
HETATM   73  C   UNK N   1      33.997   6.220  20.325  0.00  0.00     0.015 A 
HETATM   74  C   UNK N   1      34.143   5.615  19.040  0.00  0.00     0.015 A 
HETATM   75  C   UNK N   1      33.838   5.480  20.655  0.00  0.00     0.037 A 
HETATM   76  C   UNK N   1      33.984   4.875  19.369  0.00  0.00     0.037 A 
HETATM   77  C   UNK N   1      33.832   4.808  20.177  0.00  0.00     0.068 A 
HETATM   78  C   UNK N   1      33.362   3.261  21.643  0.00  0.00     0.027 A 
HETATM   79  C   UNK N   1      33.520   4.001  21.314  0.00  0.00     0.175 A 
HETATM   80  C   UNK N   1      33.209   3.194  22.452  0.00  0.00     0.002 A 
HETATM   81  C   UNK N   1      33.050   2.455  22.781  0.00  0.00    -0.004 A 
HETATM   82  C   UNK N   1      32.897   2.388  23.589  0.00  0.00     0.005 A 
HETATM   83  H   UNK N   1      35.150   9.203  16.114  0.00  0.00     0.210 HD
HETATM   84  H   UNK N   1      35.661  15.472  18.020  0.00  0.00     0.210 HD
HETATM   85  H   UNK N   1      36.314  12.010  11.702  0.00  0.00     0.210 HD
HETATM   86  H   UNK N   1      34.850   9.906  18.334  0.00  0.00     0.212 HD
HETATM   87  H   UNK N   1      34.952  12.155  19.477  0.00  0.00     0.210 HD
HETATM   88  H   UNK N   1      35.454  11.854  16.423  0.00  0.00     0.210 HD
HETATM   89  H   UNK N   1      35.154  14.404  20.053  0.00  0.00     0.210 HD
HETATM   90  H   UNK N   1      35.653  10.907  14.580  0.00  0.00     0.210 HD
HETATM   91  H   UNK N   1      36.753  14.740  11.317  0.00  0.00     0.217 HD
HETATM   92  H   UNK N   1      35.517  12.229  16.353  0.00  0.00     0.165 HD
HETATM   93  H   UNK N   1      36.304  13.802  13.129  0.00  0.00     0.163 HD
HETATM   94  H   UNK N   1      35.900  14.714  16.095  0.00  0.00     0.163 HD
HETATM   95  H   UNK N   1      35.338  14.712  19.253  0.00  0.00     0.163 HD
HETATM   96  H   UNK N   1      35.587  12.606  16.249  0.00  0.00     0.163 HD
ENDROOT
TORSDOF 10
ENDMDL
MODEL 5
REMARK VINA RESULT:     -23.0      4.404      9.462
REMARK  10 active torsions:
REMARK  status: ('A' for Active; 'I' for Inactive)
REMARK    1  A    between atoms: C_25  and  C_28 
REMARK    2  A    between atoms: C_27  and  C_31 
REMARK    3  A    between atoms: C_34  and  C_35 
REMARK    4  A    between atoms: C_35  and  C_36 
REMARK    5  A    between atoms: C_38  and  C_42 
REMARK    6  A    between atoms: C_48  and  C_51 
REMARK    7  A    between atoms: C_59  and  C_60 
REMARK    8  A    between atoms: C_64  and  C_65 
REMARK    9  A    between atoms: C_70  and  C_71 
REMARK   10  A    between atoms: C_76  and  C_77 
ROOT
HETATM    1  O   UNK N   1      24.424  16.268   6.145  0.00  0.00    -0.393 OA
HETATM    2  O   UNK N   1      22.817  18.123   4.153  0.00  0.00    -0.271 OA
HETATM    3  O   UNK N   1      24.929  17.331   5.504  0.00  0.00    -0.271 OA
HETATM    4  O   UNK N   1      23.971  21.197   2.194  0.00  0.00    -0.394 OA
HETATM    5  O   UNK N   1      20.450  16.466   4.595  0.00  0.00    -0.393 OA
HETATM    6  O   UNK N   1      25.675  18.200   5.099  0.00  0.00    -0.374 OA
HETATM    7  O   UNK N   1      26.168  19.663   4.147  0.00  0.00    -0.391 OA
HETATM    8  O   UNK N   1      23.284  20.099   2.798  0.00  0.00    -0.272 OA
HETATM    9  O   UNK N   1      25.067  19.227   4.095  0.00  0.00    -0.277 OA
HETATM   10  O   UNK N   1      23.169  17.869   4.472  0.00  0.00    -0.390 OA
HETATM   11  O   UNK N   1      20.985  18.873   2.931  0.00  0.00    -0.271 OA
HETATM   12  O   UNK N   1      26.100  21.657   2.590  0.00  0.00    -0.393 OA
HETATM   13  O   UNK N   1      22.098  16.864   4.868  0.00  0.00    -0.388 OA
HETATM   14  O   UNK N   1      23.517  20.659   2.448  0.00  0.00    -0.271 OA
HETATM   15  O   UNK N   1      24.005  18.451   4.319  0.00  0.00    -0.268 OA
HETATM   16  O   UNK N   1      18.812  17.597   3.148  0.00  0.00    -0.361 OA
HETATM   17  O   UNK N   1      31.694  16.642   8.415  0.00  0.00    -0.351 OA
HETATM   18  N   UNK N   1      22.825  17.053   4.979  0.00  0.00    -0.334 N 
HETATM   19  N   UNK N   1      24.609  19.201   3.954  0.00  0.00    -0.235 N 
HETATM   20  N   UNK N   1      24.389  18.233   4.622  0.00  0.00    -0.331 N 
HETATM   21  N   UNK N   1      21.113  17.768   3.827  0.00  0.00    -0.344 N 
HETATM   22  N   UNK N   1      22.567  19.265   3.187  0.00  0.00    -0.344 N 
HETATM   23  N   UNK N   1      24.636  20.935   2.630  0.00  0.00    -0.344 N 
HETATM   24  N   UNK N   1      24.272  19.112   3.904  0.00  0.00    -0.344 N 
HETATM   25  C   UNK N   1      23.013  16.044   5.821  0.00  0.00     0.031 A 
HETATM   26  C   UNK N   1      23.720  16.453   5.755  0.00  0.00     0.155 A 
HETATM   27  C   UNK N   1      23.608  17.077   5.236  0.00  0.00     0.208 A 
HETATM   28  C   UNK N   1      22.460  16.414   5.341  0.00  0.00     0.134 A 
HETATM   29  C   UNK N   1      22.879  15.377   6.287  0.00  0.00     0.014 A 
HETATM   30  C   UNK N   1      22.364  17.508   4.466  0.00  0.00     0.246 A 
HETATM   31  C   UNK N   1      24.256  17.565   5.088  0.00  0.00     0.245 A 
HETATM   32  C   UNK N   1      21.573  17.312   4.339  0.00  0.00     0.205 A 
HETATM   33  C   UNK N   1      23.818  19.005   3.827  0.00  0.00     0.160 A 
HETATM   34  C   UNK N   1      23.191  19.731   3.048  0.00  0.00     0.062 A 
HETATM   35  C   UNK N   1      24.045  20.558   2.712  0.00  0.00     0.133 A 
HETATM   36  C   UNK N   1      25.038  20.187   3.346  0.00  0.00     0.131 A 
HETATM   37  C   UNK N   1      21.242  16.662   4.723  0.00  0.00     0.146 A 
HETATM   38  C   UNK N   1      25.134  18.587   4.611  0.00  0.00     0.249 A 
HETATM   39  C   UNK N   1      22.236  18.614   3.571  0.00  0.00     0.208 A 
HETATM   40  C   UNK N   1      23.358  19.461   3.315  0.00  0.00     0.236 A 
HETATM   41  C   UNK N   1      24.941  19.852   3.570  0.00  0.00     0.226 A 
HETATM   42  C   UNK N   1      25.465  19.237   4.228  0.00  0.00     0.169 A 
HETATM   43  C   UNK N   1      21.445  18.419   3.443  0.00  0.00     0.243 A 
HETATM   44  C   UNK N   1      25.248  20.623   3.086  0.00  0.00     0.199 A 
HETATM   45  C   UNK N   1      22.446  18.019   4.102  0.00  0.00     0.183 A 
HETATM   46  C   UNK N   1      25.189  19.804   3.695  0.00  0.00     0.071 A 
HETATM   47  C   UNK N   1      21.316  16.024   5.239  0.00  0.00     0.042 A 
HETATM   48  C   UNK N   1      24.406  19.780   3.438  0.00  0.00     0.179 A 
HETATM   49  C   UNK N   1      25.986  20.990   3.062  0.00  0.00     0.145 A 
HETATM   50  C   UNK N   1      21.888  17.459   4.337  0.00  0.00     0.182 A 
HETATM   51  C   UNK N   1      24.129  20.346   2.904  0.00  0.00     0.241 A 
HETATM   52  C   UNK N   1      26.610  20.692   3.512  0.00  0.00     0.042 A 
HETATM   53  C   UNK N   1      21.119  17.494   4.039  0.00  0.00    -0.027 A 
HETATM   54  C   UNK N   1      24.787  18.702   4.401  0.00  0.00     0.252 A 
HETATM   55  C   UNK N   1      20.560  16.933   4.274  0.00  0.00     0.012 A 
HETATM   56  C   UNK N   1      20.909  18.089   3.508  0.00  0.00     0.012 A 
HETATM   57  C   UNK N   1      25.478  18.496   4.802  0.00  0.00     0.032 A 
HETATM   58  C   UNK N   1      19.792  16.968   3.977  0.00  0.00     0.037 A 
HETATM   59  C   UNK N   1      20.140  18.123   3.211  0.00  0.00     0.037 A 
HETATM   60  C   UNK N   1      19.582  17.562   3.446  0.00  0.00     0.065 A 
HETATM   61  C   UNK N   1      25.482  17.843   5.306  0.00  0.00     0.018 A 
HETATM   62  C   UNK N   1      26.164  18.943   4.699  0.00  0.00     0.018 A 
HETATM   63  C   UNK N   1      26.173  17.637   5.708  0.00  0.00     0.013 A 
HETATM   64  C   UNK N   1      26.854  18.737   5.101  0.00  0.00     0.013 A 
HETATM   65  C   UNK N   1      26.859  18.084   5.605  0.00  0.00    -0.026 A 
HETATM   66  C   UNK N   1      27.550  17.878   6.007  0.00  0.00    -0.026 A 
HETATM   67  C   UNK N   1      27.555  17.225   6.511  0.00  0.00     0.013 A 
HETATM   68  C   UNK N   1      28.236  18.325   5.904  0.00  0.00     0.013 A 
HETATM   69  C   UNK N   1      28.245  17.018   6.912  0.00  0.00     0.013 A 
HETATM   70  C   UNK N   1      28.926  18.119   6.305  0.00  0.00     0.013 A 
HETATM   71  C   UNK N   1      28.931  17.466   6.809  0.00  0.00    -0.026 A 
HETATM   72  C   UNK N   1      29.622  17.260   7.211  0.00  0.00    -0.026 A 
HETATM   73  C   UNK N   1      30.307  17.707   7.108  0.00  0.00     0.015 A 
HETATM   74  C   UNK N   1      29.627  16.607   7.715  0.00  0.00     0.015 A 
HETATM   75  C   UNK N   1      30.998  17.501   7.509  0.00  0.00     0.037 A 
HETATM   76  C   UNK N   1      30.318  16.401   8.116  0.00  0.00     0.037 A 
HETATM   77  C   UNK N   1      31.004  16.848   8.013  0.00  0.00     0.068 A 
HETATM   78  C   UNK N   1      33.070  16.883   8.714  0.00  0.00     0.027 A 
HETATM   79  C   UNK N   1      32.380  17.089   8.312  0.00  0.00     0.175 A 
HETATM   80  C   UNK N   1      33.756  17.330   8.611  0.00  0.00     0.002 A 
HETATM   81  C   UNK N   1      34.447  17.124   9.013  0.00  0.00    -0.004 A 
HETATM   82  C   UNK N   1      35.132  17.571   8.910  0.00  0.00     0.005 A 
HETATM   83  H   UNK N   1      25.214  16.813   6.004  0.00  0.00     0.210 HD
HETATM   84  H   UNK N   1      23.121  21.374   1.760  0.00  0.00     0.210 HD
HETATM   85  H   UNK N   1      20.061  15.701   5.046  0.00  0.00     0.210 HD
HETATM   86  H   UNK N   1      26.586  18.525   5.169  0.00  0.00     0.212 HD
HETATM   87  H   UNK N   1      26.203  20.437   3.564  0.00  0.00     0.210 HD
HETATM   88  H   UNK N   1      23.931  18.444   4.298  0.00  0.00     0.210 HD
HETATM   89  H   UNK N   1      25.366  22.008   2.061  0.00  0.00     0.210 HD
HETATM   90  H   UNK N   1      23.002  16.823   5.218  0.00  0.00     0.210 HD
HETATM   91  H   UNK N   1      18.178  16.961   3.415  0.00  0.00     0.217 HD
HETATM   92  H   UNK N   1      23.659  18.606   4.077  0.00  0.00     0.165 HD
HETATM   93  H   UNK N   1      20.169  17.534   3.675  0.00  0.00     0.163 HD
HETATM   94  H   UNK N   1      22.018  19.808   2.576  0.00  0.00     0.163 HD
HETATM   95  H   UNK N   1      24.548  21.698   2.012  0.00  0.00     0.163 HD
HETATM   96  H   UNK N   1      23.358  18.750   3.861  0.00  0.00     0.163 HD
ENDROOT
TORSDOF 10
ENDMDL
MODEL 6
REMARK VINA RESULT:     -22.8      9.885     13.106
REMARK  10 active torsions:
REMARK  status: ('A' for Active; 'I' for Inactive)
REMARK    1  A    between atoms: C_25  and  C_28 
REMARK    2  A    between atoms: C_27  and  C_31 
REMARK    3  A    between atoms: C_34  and  C_35 
REMARK    4  A    between atoms: C_35  and  C_36 
REMARK    5  A    between atoms: C_38  and  C_42 
REMARK    6  A    between atoms: C_48  and  C_51 
REMARK    7  A    between atoms: C_59  and  C_60 
REMARK    8  A    between atoms: C_64  and  C_65 
REMARK    9  A    between atoms: C_70  and  C_71 
REMARK   10  A    between atoms: C_76  and  C_77 
ROOT
HETATM    1  O   UNK N   1      34.182  10.058  13.824  0.00  0.00    -0.393 OA
HETATM    2  O   UNK N   1      35.336  12.731  12.595  0.00  0.00    -0.271 OA
HETATM    3  O   UNK N   1      34.766  11.040  14.525  0.00  0.00    -0.271 OA
HETATM    4  O   UNK N   1      37.041  15.687  14.319  0.00  0.00    -0.394 OA
HETATM    5  O   UNK N   1      34.512  11.812   9.946  0.00  0.00    -0.393 OA
HETATM    6  O   UNK N   1      35.225  11.712  15.426  0.00  0.00    -0.374 OA
HETATM    7  O   UNK N   1      36.039  13.141  16.192  0.00  0.00    -0.391 OA
HETATM    8  O   UNK N   1      36.447  14.737  13.433  0.00  0.00    -0.272 OA
HETATM    9  O   UNK N   1      35.849  13.084  15.024  0.00  0.00    -0.277 OA
HETATM   10  O   UNK N   1      35.171  12.315  12.893  0.00  0.00    -0.390 OA
HETATM   11  O   UNK N   1      35.867  14.270  10.932  0.00  0.00    -0.271 OA
HETATM   12  O   UNK N   1      37.190  15.374  16.506  0.00  0.00    -0.393 OA
HETATM   13  O   UNK N   1      34.651  11.616  11.646  0.00  0.00    -0.388 OA
HETATM   14  O   UNK N   1      36.756  15.268  13.769  0.00  0.00    -0.271 OA
HETATM   15  O   UNK N   1      35.460  12.635  13.829  0.00  0.00    -0.268 OA
HETATM   16  O   UNK N   1      35.252  13.697   8.548  0.00  0.00    -0.361 OA
HETATM   17  O   UNK N   1      34.002   7.663  21.062  0.00  0.00    -0.351 OA
HETATM   18  N   UNK N   1      34.720  11.544  12.398  0.00  0.00    -0.334 N 
HETATM   19  N   UNK N   1      35.859  13.232  14.568  0.00  0.00    -0.235 N 
HETATM   20  N   UNK N   1      35.313  12.245  14.166  0.00  0.00    -0.331 N 
HETATM   21  N   UNK N   1      35.225  12.997  10.848  0.00  0.00    -0.344 N 
HETATM   22  N   UNK N   1      36.006  14.091  12.567  0.00  0.00    -0.344 N 
HETATM   23  N   UNK N   1      36.854  15.141  14.925  0.00  0.00    -0.344 N 
HETATM   24  N   UNK N   1      35.826  13.264  14.218  0.00  0.00    -0.344 N 
HETATM   25  C   UNK N   1      34.130  10.355  12.391  0.00  0.00     0.031 A 
HETATM   26  C   UNK N   1      34.326  10.534  13.166  0.00  0.00     0.155 A 
HETATM   27  C   UNK N   1      34.691  11.268  13.175  0.00  0.00     0.208 A 
HETATM   28  C   UNK N   1      34.373  10.979  11.917  0.00  0.00     0.134 A 
HETATM   29  C   UNK N   1      33.753   9.669  12.132  0.00  0.00     0.014 A 
HETATM   30  C   UNK N   1      35.007  12.226  12.032  0.00  0.00     0.246 A 
HETATM   31  C   UNK N   1      34.937  11.558  13.907  0.00  0.00     0.245 A 
HETATM   32  C   UNK N   1      34.937  12.315  11.214  0.00  0.00     0.205 A 
HETATM   33  C   UNK N   1      35.789  13.320  13.751  0.00  0.00     0.160 A 
HETATM   34  C   UNK N   1      36.240  14.366  13.271  0.00  0.00     0.062 A 
HETATM   35  C   UNK N   1      36.670  14.952  14.270  0.00  0.00     0.133 A 
HETATM   36  C   UNK N   1      36.402  14.158  15.178  0.00  0.00     0.131 A 
HETATM   37  C   UNK N   1      34.581  11.723  10.764  0.00  0.00     0.146 A 
HETATM   38  C   UNK N   1      35.477  12.349  14.967  0.00  0.00     0.249 A 
HETATM   39  C   UNK N   1      35.650  13.499  12.116  0.00  0.00     0.208 A 
HETATM   40  C   UNK N   1      36.076  14.002  13.384  0.00  0.00     0.236 A 
HETATM   41  C   UNK N   1      36.215  13.824  15.018  0.00  0.00     0.226 A 
HETATM   42  C   UNK N   1      35.833  12.941  15.418  0.00  0.00     0.169 A 
HETATM   43  C   UNK N   1      35.581  13.589  11.299  0.00  0.00     0.243 A 
HETATM   44  C   UNK N   1      36.641  14.558  15.469  0.00  0.00     0.199 A 
HETATM   45  C   UNK N   1      35.296  12.760  12.210  0.00  0.00     0.183 A 
HETATM   46  C   UNK N   1      36.174  13.675  15.254  0.00  0.00     0.071 A 
HETATM   47  C   UNK N   1      34.210  10.988  10.715  0.00  0.00     0.042 A 
HETATM   48  C   UNK N   1      36.202  13.951  14.477  0.00  0.00     0.179 A 
HETATM   49  C   UNK N   1      36.813  14.680  16.266  0.00  0.00     0.145 A 
HETATM   50  C   UNK N   1      35.005  12.356  11.553  0.00  0.00     0.182 A 
HETATM   51  C   UNK N   1      36.543  14.685  14.313  0.00  0.00     0.241 A 
HETATM   52  C   UNK N   1      36.607  14.108  16.824  0.00  0.00     0.042 A 
HETATM   53  C   UNK N   1      35.067  12.691  10.801  0.00  0.00    -0.027 A 
HETATM   54  C   UNK N   1      35.562  12.611  14.647  0.00  0.00     0.252 A 
HETATM   55  C   UNK N   1      34.774  12.287  10.143  0.00  0.00     0.012 A 
HETATM   56  C   UNK N   1      35.420  13.431  10.707  0.00  0.00     0.012 A 
HETATM   57  C   UNK N   1      35.406  12.116  15.289  0.00  0.00     0.032 A 
HETATM   58  C   UNK N   1      34.836  12.622   9.393  0.00  0.00     0.037 A 
HETATM   59  C   UNK N   1      35.481  13.765   9.956  0.00  0.00     0.037 A 
HETATM   60  C   UNK N   1      35.190  13.361   9.299  0.00  0.00     0.065 A 
HETATM   61  C   UNK N   1      35.030  11.392  15.169  0.00  0.00     0.018 A 
HETATM   62  C   UNK N   1      35.626  12.346  16.050  0.00  0.00     0.018 A 
HETATM   63  C   UNK N   1      34.874  10.897  15.810  0.00  0.00     0.013 A 
HETATM   64  C   UNK N   1      35.470  11.851  16.692  0.00  0.00     0.013 A 
HETATM   65  C   UNK N   1      35.094  11.126  16.572  0.00  0.00    -0.026 A 
HETATM   66  C   UNK N   1      34.938  10.631  17.214  0.00  0.00    -0.026 A 
HETATM   67  C   UNK N   1      34.562   9.907  17.093  0.00  0.00     0.013 A 
HETATM   68  C   UNK N   1      35.157  10.861  17.975  0.00  0.00     0.013 A 
HETATM   69  C   UNK N   1      34.406   9.412  17.735  0.00  0.00     0.013 A 
HETATM   70  C   UNK N   1      35.002  10.367  18.615  0.00  0.00     0.013 A 
HETATM   71  C   UNK N   1      34.625   9.642  18.496  0.00  0.00    -0.026 A 
HETATM   72  C   UNK N   1      34.469   9.147  19.137  0.00  0.00    -0.026 A 
HETATM   73  C   UNK N   1      34.689   9.377  19.899  0.00  0.00     0.015 A 
HETATM   74  C   UNK N   1      34.094   8.423  19.018  0.00  0.00     0.015 A 
HETATM   75  C   UNK N   1      34.533   8.882  20.540  0.00  0.00     0.037 A 
HETATM   76  C   UNK N   1      33.938   7.928  19.660  0.00  0.00     0.037 A 
HETATM   77  C   UNK N   1      34.158   8.158  20.421  0.00  0.00     0.068 A 
HETATM   78  C   UNK N   1      34.065   7.397  22.465  0.00  0.00     0.027 A 
HETATM   79  C   UNK N   1      34.221   7.892  21.823  0.00  0.00     0.175 A 
HETATM   80  C   UNK N   1      34.285   7.628  23.226  0.00  0.00     0.002 A 
HETATM   81  C   UNK N   1      34.129   7.133  23.867  0.00  0.00    -0.004 A 
HETATM   82  C   UNK N   1      34.349   7.363  24.629  0.00  0.00     0.005 A 
HETATM   83  H   UNK N   1      34.452  10.355  14.708  0.00  0.00     0.210 HD
HETATM   84  H   UNK N   1      37.189  16.211  13.516  0.00  0.00     0.210 HD
HETATM   85  H   UNK N   1      34.093  11.117   9.416  0.00  0.00     0.210 HD
HETATM   86  H   UNK N   1      35.362  11.720  16.386  0.00  0.00     0.212 HD
HETATM   87  H   UNK N   1      36.482  13.984  16.374  0.00  0.00     0.210 HD
HETATM   88  H   UNK N   1      35.460  12.656  13.754  0.00  0.00     0.210 HD
HETATM   89  H   UNK N   1      37.432  16.046  15.849  0.00  0.00     0.210 HD
HETATM   90  H   UNK N   1      34.579  11.222  12.529  0.00  0.00     0.210 HD
HETATM   91  H   UNK N   1      34.920  13.238   7.800  0.00  0.00     0.217 HD
HETATM   92  H   UNK N   1      35.568  12.941  13.517  0.00  0.00     0.165 HD
HETATM   93  H   UNK N   1      35.141  13.102   9.873  0.00  0.00     0.163 HD
HETATM   94  H   UNK N   1      36.348  14.904  12.129  0.00  0.00     0.163 HD
HETATM   95  H   UNK N   1      37.298  16.018  14.983  0.00  0.00     0.163 HD
HETATM   96  H   UNK N   1      35.667  13.216  13.248  0.00  0.00     0.163 HD
ENDROOT
TORSDOF 10
ENDMDL
MODEL 7
REMARK VINA RESULT:     -22.8      3.125      7.884
REMARK  10 active torsions:
REMARK  status: ('A' for Active; 'I' for Inactive)
REMARK    1  A    between atoms: C_25  and  C_28 
REMARK    2  A    between atoms: C_27  and  C_31 
REMARK    3  A    between atoms: C_34  and  C_35 
REMARK    4  A    between atoms: C_35  and  C_36 
REMARK    5  A    between atoms: C_38  and  C_42 
REMARK    6  A    between atoms: C_48  and  C_51 
REMARK    7  A    between atoms: C_59  and  C_60 
REMARK    8  A    between atoms: C_64  and  C_65 
REMARK    9  A    between atoms: C_70  and  C_71 
REMARK   10  A    between atoms: C_76  and  C_77 
ROOT
HETATM    1  O   UNK N   1      29.860  17.851   8.687  0.00  0.00    -0.393 OA
HETATM    2  O   UNK N   1      28.846  18.074   5.701  0.00  0.00    -0.271 OA
HETATM    3  O   UNK N   1      30.361  17.166   7.649  0.00  0.00    -0.271 OA
HETATM    4  O   UNK N   1      30.062  16.270   2.557  0.00  0.00    -0.394 OA
HETATM    5  O   UNK N   1      26.866  20.040   6.571  0.00  0.00    -0.393 OA
HETATM    6  O   UNK N   1      31.024  16.417   6.959  0.00  0.00    -0.374 OA
HETATM    7  O   UNK N   1      31.560  15.591   5.437  0.00  0.00    -0.391 OA
HETATM    8  O   UNK N   1      29.420  17.070   3.551  0.00  0.00    -0.272 OA
HETATM    9  O   UNK N   1      30.677  16.380   5.439  0.00  0.00    -0.277 OA
HETATM   10  O   UNK N   1      29.085  17.968   6.172  0.00  0.00    -0.390 OA
HETATM   11  O   UNK N   1      27.539  18.837   3.935  0.00  0.00    -0.271 OA
HETATM   12  O   UNK N   1      31.730  14.885   3.011  0.00  0.00    -0.393 OA
HETATM   13  O   UNK N   1      28.161  18.952   6.872  0.00  0.00    -0.388 OA
HETATM   14  O   UNK N   1      29.658  16.729   2.988  0.00  0.00    -0.271 OA
HETATM   15  O   UNK N   1      29.784  17.275   5.869  0.00  0.00    -0.268 OA
HETATM   16  O   UNK N   1      25.749  20.550   4.439  0.00  0.00    -0.361 OA
HETATM   17  O   UNK N   1      35.420  13.570  11.674  0.00  0.00    -0.351 OA
HETATM   18  N   UNK N   1      28.733  18.468   6.989  0.00  0.00    -0.334 N 
HETATM   19  N   UNK N   1      30.326  16.650   5.254  0.00  0.00    -0.235 N 
HETATM   20  N   UNK N   1      30.052  17.137   6.313  0.00  0.00    -0.331 N 
HETATM   21  N   UNK N   1      27.514  19.176   5.322  0.00  0.00    -0.344 N 
HETATM   22  N   UNK N   1      28.783  17.790   4.213  0.00  0.00    -0.344 N 
HETATM   23  N   UNK N   1      30.538  15.988   3.185  0.00  0.00    -0.344 N 
HETATM   24  N   UNK N   1      30.060  16.876   5.201  0.00  0.00    -0.344 N 
HETATM   25  C   UNK N   1      28.764  18.737   8.288  0.00  0.00     0.031 A 
HETATM   26  C   UNK N   1      29.347  18.182   8.132  0.00  0.00     0.155 A 
HETATM   27  C   UNK N   1      29.331  18.013   7.330  0.00  0.00     0.208 A 
HETATM   28  C   UNK N   1      28.386  18.914   7.583  0.00  0.00     0.134 A 
HETATM   29  C   UNK N   1      28.589  19.062   9.026  0.00  0.00     0.014 A 
HETATM   30  C   UNK N   1      28.435  18.560   6.225  0.00  0.00     0.246 A 
HETATM   31  C   UNK N   1      29.876  17.462   7.050  0.00  0.00     0.245 A 
HETATM   32  C   UNK N   1      27.812  19.084   6.086  0.00  0.00     0.205 A 
HETATM   33  C   UNK N   1      29.704  17.174   5.116  0.00  0.00     0.160 A 
HETATM   34  C   UNK N   1      29.308  17.261   3.948  0.00  0.00     0.062 A 
HETATM   35  C   UNK N   1      30.048  16.466   3.359  0.00  0.00     0.133 A 
HETATM   36  C   UNK N   1      30.761  16.038   4.273  0.00  0.00     0.131 A 
HETATM   37  C   UNK N   1      27.489  19.515   6.710  0.00  0.00     0.146 A 
HETATM   38  C   UNK N   1      30.656  16.581   6.240  0.00  0.00     0.249 A 
HETATM   39  C   UNK N   1      28.460  18.221   4.837  0.00  0.00     0.208 A 
HETATM   40  C   UNK N   1      29.405  17.266   4.352  0.00  0.00     0.236 A 
HETATM   41  C   UNK N   1      30.650  16.219   4.630  0.00  0.00     0.226 A 
HETATM   42  C   UNK N   1      30.980  16.150   5.615  0.00  0.00     0.169 A 
HETATM   43  C   UNK N   1      27.837  18.745   4.697  0.00  0.00     0.243 A 
HETATM   44  C   UNK N   1      30.968  15.756   3.850  0.00  0.00     0.199 A 
HETATM   45  C   UNK N   1      28.553  18.323   5.650  0.00  0.00     0.183 A 
HETATM   46  C   UNK N   1      30.833  16.095   4.805  0.00  0.00     0.071 A 
HETATM   47  C   UNK N   1      27.474  19.711   7.511  0.00  0.00     0.042 A 
HETATM   48  C   UNK N   1      30.236  16.551   4.464  0.00  0.00     0.179 A 
HETATM   49  C   UNK N   1      31.569  15.199   3.758  0.00  0.00     0.145 A 
HETATM   50  C   UNK N   1      28.068  18.850   6.059  0.00  0.00     0.182 A 
HETATM   51  C   UNK N   1      30.088  16.497   3.653  0.00  0.00     0.241 A 
HETATM   52  C   UNK N   1      32.010  14.955   4.411  0.00  0.00     0.042 A 
HETATM   53  C   UNK N   1      27.488  19.275   5.653  0.00  0.00    -0.027 A 
HETATM   54  C   UNK N   1      30.406  16.735   5.937  0.00  0.00     0.252 A 
HETATM   55  C   UNK N   1      27.002  19.802   6.062  0.00  0.00     0.012 A 
HETATM   56  C   UNK N   1      27.394  19.173   4.840  0.00  0.00     0.012 A 
HETATM   57  C   UNK N   1      30.907  16.419   6.511  0.00  0.00     0.032 A 
HETATM   58  C   UNK N   1      26.422  20.227   5.658  0.00  0.00     0.037 A 
HETATM   59  C   UNK N   1      26.814  19.598   4.436  0.00  0.00     0.037 A 
HETATM   60  C   UNK N   1      26.329  20.125   4.845  0.00  0.00     0.065 A 
HETATM   61  C   UNK N   1      30.838  16.660   7.297  0.00  0.00     0.018 A 
HETATM   62  C   UNK N   1      31.477  15.862   6.298  0.00  0.00     0.018 A 
HETATM   63  C   UNK N   1      31.340  16.344   7.871  0.00  0.00     0.013 A 
HETATM   64  C   UNK N   1      31.979  15.545   6.872  0.00  0.00     0.013 A 
HETATM   65  C   UNK N   1      31.910  15.786   7.658  0.00  0.00    -0.026 A 
HETATM   66  C   UNK N   1      32.412  15.469   8.232  0.00  0.00    -0.026 A 
HETATM   67  C   UNK N   1      32.342  15.711   9.018  0.00  0.00     0.013 A 
HETATM   68  C   UNK N   1      32.982  14.912   8.020  0.00  0.00     0.013 A 
HETATM   69  C   UNK N   1      32.844  15.394   9.592  0.00  0.00     0.013 A 
HETATM   70  C   UNK N   1      33.482  14.596   8.593  0.00  0.00     0.013 A 
HETATM   71  C   UNK N   1      33.414  14.837   9.379  0.00  0.00    -0.026 A 
HETATM   72  C   UNK N   1      33.915  14.520   9.953  0.00  0.00    -0.026 A 
HETATM   73  C   UNK N   1      34.485  13.963   9.740  0.00  0.00     0.015 A 
HETATM   74  C   UNK N   1      33.847  14.760  10.739  0.00  0.00     0.015 A 
HETATM   75  C   UNK N   1      34.987  13.646  10.314  0.00  0.00     0.037 A 
HETATM   76  C   UNK N   1      34.349  14.444  11.313  0.00  0.00     0.037 A 
HETATM   77  C   UNK N   1      34.919  13.887  11.100  0.00  0.00     0.068 A 
HETATM   78  C   UNK N   1      36.491  12.697  12.035  0.00  0.00     0.027 A 
HETATM   79  C   UNK N   1      35.990  13.013  11.462  0.00  0.00     0.175 A 
HETATM   80  C   UNK N   1      37.061  12.139  11.823  0.00  0.00     0.002 A 
HETATM   81  C   UNK N   1      37.562  11.823  12.396  0.00  0.00    -0.004 A 
HETATM   82  C   UNK N   1      38.132  11.266  12.184  0.00  0.00     0.005 A 
HETATM   83  H   UNK N   1      30.520  17.197   8.406  0.00  0.00     0.210 HD
HETATM   84  H   UNK N   1      29.437  16.688   1.944  0.00  0.00     0.210 HD
HETATM   85  H   UNK N   1      26.486  20.546   7.304  0.00  0.00     0.210 HD
HETATM   86  H   UNK N   1      31.751  15.777   6.999  0.00  0.00     0.212 HD
HETATM   87  H   UNK N   1      31.672  15.282   4.524  0.00  0.00     0.210 HD
HETATM   88  H   UNK N   1      29.727  17.320   5.842  0.00  0.00     0.210 HD
HETATM   89  H   UNK N   1      31.212  15.172   2.243  0.00  0.00     0.210 HD
HETATM   90  H   UNK N   1      28.843  18.453   7.348  0.00  0.00     0.210 HD
HETATM   91  H   UNK N   1      25.196  21.149   4.903  0.00  0.00     0.217 HD
HETATM   92  H   UNK N   1      29.539  17.413   5.519  0.00  0.00     0.165 HD
HETATM   93  H   UNK N   1      26.771  19.801   5.157  0.00  0.00     0.163 HD
HETATM   94  H   UNK N   1      28.427  17.900   3.302  0.00  0.00     0.163 HD
HETATM   95  H   UNK N   1      30.556  15.754   2.229  0.00  0.00     0.163 HD
HETATM   96  H   UNK N   1      29.326  17.532   5.204  0.00  0.00     0.163 HD
ENDROOT
TORSDOF 10
ENDMDL
MODEL 8
REMARK VINA RESULT:     -22.4      4.757      8.458
REMARK  10 active torsions:
REMARK  status: ('A' for Active; 'I' for Inactive)
REMARK    1  A    between atoms: C_25  and  C_28 
REMARK    2  A    between atoms: C_27  and  C_31 
REMARK    3  A    between atoms: C_34  and  C_35 
REMARK    4  A    between atoms: C_35  and  C_36 
REMARK    5  A    between atoms: C_38  and  C_42 
REMARK    6  A    between atoms: C_48  and  C_51 
REMARK    7  A    between atoms: C_59  and  C_60 
REMARK    8  A    between atoms: C_64  and  C_65 
REMARK    9  A    between atoms: C_70  and  C_71 
REMARK   10  A    between atoms: C_76  and  C_77 
ROOT
HETATM    1  O   UNK N   1      32.937  12.781   6.800  0.00  0.00    -0.393 OA
HETATM    2  O   UNK N   1      33.235  15.824   5.997  0.00  0.00    -0.271 OA
HETATM    3  O   UNK N   1      33.488  13.731   7.568  0.00  0.00    -0.271 OA
HETATM    4  O   UNK N   1      34.745  18.740   7.956  0.00  0.00    -0.394 OA
HETATM    5  O   UNK N   1      31.956  15.225   3.438  0.00  0.00    -0.393 OA
HETATM    6  O   UNK N   1      34.026  14.320   8.483  0.00  0.00    -0.374 OA
HETATM    7  O   UNK N   1      34.730  15.739   9.367  0.00  0.00    -0.391 OA
HETATM    8  O   UNK N   1      34.133  17.851   7.020  0.00  0.00    -0.272 OA
HETATM    9  O   UNK N   1      34.267  15.849   8.282  0.00  0.00    -0.277 OA
HETATM   10  O   UNK N   1      33.229  15.334   6.221  0.00  0.00    -0.390 OA
HETATM   11  O   UNK N   1      33.041  17.714   4.654  0.00  0.00    -0.271 OA
HETATM   12  O   UNK N   1      35.492  18.086   9.935  0.00  0.00    -0.393 OA
HETATM   13  O   UNK N   1      32.551  14.767   4.983  0.00  0.00    -0.388 OA
HETATM   14  O   UNK N   1      34.414  18.370   7.396  0.00  0.00    -0.271 OA
HETATM   15  O   UNK N   1      33.680  15.542   7.124  0.00  0.00    -0.268 OA
HETATM   16  O   UNK N   1      31.963  17.447   2.382  0.00  0.00    -0.361 OA
HETATM   17  O   UNK N   1      35.020   9.163  13.181  0.00  0.00    -0.351 OA
HETATM   18  N   UNK N   1      32.818  14.581   5.668  0.00  0.00    -0.334 N 
HETATM   19  N   UNK N   1      34.134  16.073   7.880  0.00  0.00    -0.235 N 
HETATM   20  N   UNK N   1      33.697  15.075   7.386  0.00  0.00    -0.331 N 
HETATM   21  N   UNK N   1      32.642  16.363   4.418  0.00  0.00    -0.344 N 
HETATM   22  N   UNK N   1      33.615  17.285   6.140  0.00  0.00    -0.344 N 
HETATM   23  N   UNK N   1      34.820  18.066   8.447  0.00  0.00    -0.344 N 
HETATM   24  N   UNK N   1      34.010  16.159   7.561  0.00  0.00    -0.344 N 
HETATM   25  C   UNK N   1      32.474  13.308   5.514  0.00  0.00     0.031 A 
HETATM   26  C   UNK N   1      32.822  13.387   6.252  0.00  0.00     0.155 A 
HETATM   27  C   UNK N   1      33.036  14.172   6.351  0.00  0.00     0.208 A 
HETATM   28  C   UNK N   1      32.471  14.045   5.154  0.00  0.00     0.134 A 
HETATM   29  C   UNK N   1      32.177  12.610   5.189  0.00  0.00     0.014 A 
HETATM   30  C   UNK N   1      32.874  15.365   5.415  0.00  0.00     0.246 A 
HETATM   31  C   UNK N   1      33.400  14.377   7.062  0.00  0.00     0.245 A 
HETATM   32  C   UNK N   1      32.587  15.579   4.672  0.00  0.00     0.205 A 
HETATM   33  C   UNK N   1      33.847  16.287   7.137  0.00  0.00     0.160 A 
HETATM   34  C   UNK N   1      33.964  17.477   6.824  0.00  0.00     0.062 A 
HETATM   35  C   UNK N   1      34.515  17.959   7.819  0.00  0.00     0.133 A 
HETATM   36  C   UNK N   1      34.634  16.976   8.559  0.00  0.00     0.131 A 
HETATM   37  C   UNK N   1      32.244  15.010   4.182  0.00  0.00     0.146 A 
HETATM   38  C   UNK N   1      34.033  15.070   8.139  0.00  0.00     0.249 A 
HETATM   39  C   UNK N   1      33.272  16.716   5.651  0.00  0.00     0.208 A 
HETATM   40  C   UNK N   1      33.903  17.071   6.883  0.00  0.00     0.236 A 
HETATM   41  C   UNK N   1      34.477  16.642   8.369  0.00  0.00     0.226 A 
HETATM   42  C   UNK N   1      34.376  15.638   8.629  0.00  0.00     0.169 A 
HETATM   43  C   UNK N   1      32.985  16.931   4.908  0.00  0.00     0.243 A 
HETATM   44  C   UNK N   1      34.861  17.363   8.876  0.00  0.00     0.199 A 
HETATM   45  C   UNK N   1      33.096  15.910   5.645  0.00  0.00     0.183 A 
HETATM   46  C   UNK N   1      34.525  16.448   8.569  0.00  0.00     0.071 A 
HETATM   47  C   UNK N   1      32.014  14.230   4.046  0.00  0.00     0.042 A 
HETATM   48  C   UNK N   1      34.306  16.857   7.886  0.00  0.00     0.179 A 
HETATM   49  C   UNK N   1      35.201  17.377   9.627  0.00  0.00     0.145 A 
HETATM   50  C   UNK N   1      32.728  15.573   4.989  0.00  0.00     0.182 A 
HETATM   51  C   UNK N   1      34.455  17.667   7.825  0.00  0.00     0.241 A 
HETATM   52  C   UNK N   1      35.250  16.684  10.071  0.00  0.00     0.042 A 
HETATM   53  C   UNK N   1      32.537  16.042   4.337  0.00  0.00    -0.027 A 
HETATM   54  C   UNK N   1      33.986  15.397   7.876  0.00  0.00     0.252 A 
HETATM   55  C   UNK N   1      32.168  15.704   3.680  0.00  0.00     0.012 A 
HETATM   56  C   UNK N   1      32.713  16.848   4.342  0.00  0.00     0.012 A 
HETATM   57  C   UNK N   1      34.090  14.773   8.407  0.00  0.00     0.032 A 
HETATM   58  C   UNK N   1      31.977  16.172   3.029  0.00  0.00     0.037 A 
HETATM   59  C   UNK N   1      32.522  17.315   3.691  0.00  0.00     0.037 A 
HETATM   60  C   UNK N   1      32.154  16.978   3.034  0.00  0.00     0.065 A 
HETATM   61  C   UNK N   1      33.835  14.015   8.206  0.00  0.00     0.018 A 
HETATM   62  C   UNK N   1      34.447  14.909   9.138  0.00  0.00     0.018 A 
HETATM   63  C   UNK N   1      33.939  13.391   8.736  0.00  0.00     0.013 A 
HETATM   64  C   UNK N   1      34.551  14.285   9.668  0.00  0.00     0.013 A 
HETATM   65  C   UNK N   1      34.296  13.526   9.468  0.00  0.00    -0.026 A 
HETATM   66  C   UNK N   1      34.400  12.903   9.998  0.00  0.00    -0.026 A 
HETATM   67  C   UNK N   1      34.145  12.144   9.797  0.00  0.00     0.013 A 
HETATM   68  C   UNK N   1      34.757  13.038  10.729  0.00  0.00     0.013 A 
HETATM   69  C   UNK N   1      34.248  11.521  10.328  0.00  0.00     0.013 A 
HETATM   70  C   UNK N   1      34.860  12.416  11.259  0.00  0.00     0.013 A 
HETATM   71  C   UNK N   1      34.606  11.656  11.059  0.00  0.00    -0.026 A 
HETATM   72  C   UNK N   1      34.709  11.033  11.589  0.00  0.00    -0.026 A 
HETATM   73  C   UNK N   1      35.067  11.169  12.320  0.00  0.00     0.015 A 
HETATM   74  C   UNK N   1      34.455  10.274  11.389  0.00  0.00     0.015 A 
HETATM   75  C   UNK N   1      35.170  10.545  12.851  0.00  0.00     0.037 A 
HETATM   76  C   UNK N   1      34.559   9.651  11.920  0.00  0.00     0.037 A 
HETATM   77  C   UNK N   1      34.916   9.786  12.651  0.00  0.00     0.068 A 
HETATM   78  C   UNK N   1      35.480   8.675  14.442  0.00  0.00     0.027 A 
HETATM   79  C   UNK N   1      35.377   9.298  13.912  0.00  0.00     0.175 A 
HETATM   80  C   UNK N   1      35.838   8.810  15.173  0.00  0.00     0.002 A 
HETATM   81  C   UNK N   1      35.941   8.187  15.704  0.00  0.00    -0.004 A 
HETATM   82  C   UNK N   1      36.299   8.322  16.435  0.00  0.00     0.005 A 
HETATM   83  H   UNK N   1      33.361  12.971   7.652  0.00  0.00     0.210 HD
HETATM   84  H   UNK N   1      34.588  19.417   7.279  0.00  0.00     0.210 HD
HETATM   85  H   UNK N   1      31.554  14.557   2.863  0.00  0.00     0.210 HD
HETATM   86  H   UNK N   1      34.396  14.190   9.370  0.00  0.00     0.212 HD
HETATM   87  H   UNK N   1      35.042  16.616   9.640  0.00  0.00     0.210 HD
HETATM   88  H   UNK N   1      33.657  15.575   7.057  0.00  0.00     0.210 HD
HETATM   89  H   UNK N   1      35.434  18.901   9.412  0.00  0.00     0.210 HD
HETATM   90  H   UNK N   1      32.776  14.217   5.749  0.00  0.00     0.210 HD
HETATM   91  H   UNK N   1      31.545  17.064   1.636  0.00  0.00     0.217 HD
HETATM   92  H   UNK N   1      33.649  15.914   6.875  0.00  0.00     0.165 HD
HETATM   93  H   UNK N   1      32.299  16.618   3.531  0.00  0.00     0.163 HD
HETATM   94  H   UNK N   1      33.682  18.219   5.837  0.00  0.00     0.163 HD
HETATM   95  H   UNK N   1      35.095  18.998   8.610  0.00  0.00     0.163 HD
HETATM   96  H   UNK N   1      33.624  16.249   6.660  0.00  0.00     0.163 HD
ENDROOT
TORSDOF 10
ENDMDL
MODEL 9
REMARK VINA RESULT:     -22.2     11.319     13.670
REMARK  10 active torsions:
REMARK  status: ('A' for Active; 'I' for Inactive)
REMARK    1  A    between atoms: C_25  and  C_28 
REMARK    2  A    between atoms: C_27  and  C_31 
REMARK    3  A    between atoms: C_34  and  C_35 
REMARK    4  A    between atoms: C_35  and  C_36 
REMARK    5  A    between atoms: C_38  and  C_42 
REMARK    6  A    between atoms: C_48  and  C_51 
REMARK    7  A    between atoms: C_59  and  C_60 
REMARK    8  A    between atoms: C_64  and  C_65 
REMARK    9  A    between atoms: C_70  and  C_71 
REMARK   10  A    between atoms: C_76  and  C_77 
ROOT
HETATM    1  O   UNK N   1      35.505   9.361  14.989  0.00  0.00    -0.393 OA
HETATM    2  O   UNK N   1      35.561   9.725  18.129  0.00  0.00    -0.271 OA
HETATM    3  O   UNK N   1      35.405  10.533  15.632  0.00  0.00    -0.271 OA
HETATM    4  O   UNK N   1      35.301  12.906  20.233  0.00  0.00    -0.394 OA
HETATM    5  O   UNK N   1      35.861   6.831  18.410  0.00  0.00    -0.393 OA
HETATM    6  O   UNK N   1      35.293  11.715  15.885  0.00  0.00    -0.374 OA
HETATM    7  O   UNK N   1      35.175  13.192  16.932  0.00  0.00    -0.391 OA
HETATM    8  O   UNK N   1      35.419  11.584  19.704  0.00  0.00    -0.272 OA
HETATM    9  O   UNK N   1      35.298  12.108  17.395  0.00  0.00    -0.277 OA
HETATM   10  O   UNK N   1      35.541   9.764  17.592  0.00  0.00    -0.390 OA
HETATM   11  O   UNK N   1      35.693   9.074  20.358  0.00  0.00    -0.271 OA
HETATM   12  O   UNK N   1      35.082  14.704  18.960  0.00  0.00    -0.393 OA
HETATM   13  O   UNK N   1      35.690   8.256  17.467  0.00  0.00    -0.388 OA
HETATM   14  O   UNK N   1      35.370  12.179  20.070  0.00  0.00    -0.271 OA
HETATM   15  O   UNK N   1      35.435  10.784  17.489  0.00  0.00    -0.268 OA
HETATM   16  O   UNK N   1      35.956   6.609  20.859  0.00  0.00    -0.361 OA
HETATM   17  O   UNK N   1      34.815  14.565   9.458  0.00  0.00    -0.351 OA
HETATM   18  N   UNK N   1      35.613   8.894  17.064  0.00  0.00    -0.334 N 
HETATM   19  N   UNK N   1      35.342  11.778  17.740  0.00  0.00    -0.235 N 
HETATM   20  N   UNK N   1      35.410  10.873  16.961  0.00  0.00    -0.331 N 
HETATM   21  N   UNK N   1      35.736   8.297  19.160  0.00  0.00    -0.344 N 
HETATM   22  N   UNK N   1      35.527  10.448  19.461  0.00  0.00    -0.344 N 
HETATM   23  N   UNK N   1      35.253  13.151  19.434  0.00  0.00    -0.344 N 
HETATM   24  N   UNK N   1      35.377  11.481  17.926  0.00  0.00    -0.344 N 
HETATM   25  C   UNK N   1      35.646   8.233  15.913  0.00  0.00     0.031 A 
HETATM   26  C   UNK N   1      35.560   9.030  15.743  0.00  0.00     0.155 A 
HETATM   27  C   UNK N   1      35.540   9.442  16.451  0.00  0.00     0.208 A 
HETATM   28  C   UNK N   1      35.679   8.149  16.728  0.00  0.00     0.134 A 
HETATM   29  C   UNK N   1      35.691   7.621  15.361  0.00  0.00     0.014 A 
HETATM   30  C   UNK N   1      35.633   8.939  17.888  0.00  0.00     0.246 A 
HETATM   31  C   UNK N   1      35.456  10.261  16.409  0.00  0.00     0.245 A 
HETATM   32  C   UNK N   1      35.716   8.252  18.336  0.00  0.00     0.205 A 
HETATM   33  C   UNK N   1      35.424  11.091  18.188  0.00  0.00     0.160 A 
HETATM   34  C   UNK N   1      35.446  11.234  19.416  0.00  0.00     0.062 A 
HETATM   35  C   UNK N   1      35.326  12.457  19.541  0.00  0.00     0.133 A 
HETATM   36  C   UNK N   1      35.253  12.839  18.368  0.00  0.00     0.131 A 
HETATM   37  C   UNK N   1      35.779   7.519  17.961  0.00  0.00     0.146 A 
HETATM   38  C   UNK N   1      35.324  11.652  16.706  0.00  0.00     0.249 A 
HETATM   39  C   UNK N   1      35.590   9.716  19.086  0.00  0.00     0.208 A 
HETATM   40  C   UNK N   1      35.444  11.136  19.012  0.00  0.00     0.236 A 
HETATM   41  C   UNK N   1      35.279  12.511  18.115  0.00  0.00     0.226 A 
HETATM   42  C   UNK N   1      35.261  12.385  17.081  0.00  0.00     0.169 A 
HETATM   43  C   UNK N   1      35.673   9.029  19.535  0.00  0.00     0.243 A 
HETATM   44  C   UNK N   1      35.212  13.320  18.628  0.00  0.00     0.199 A 
HETATM   45  C   UNK N   1      35.600   9.393  18.327  0.00  0.00     0.183 A 
HETATM   46  C   UNK N   1      35.258  12.641  17.866  0.00  0.00     0.071 A 
HETATM   47  C   UNK N   1      35.804   7.071  17.270  0.00  0.00     0.042 A 
HETATM   48  C   UNK N   1      35.332  12.093  18.478  0.00  0.00     0.179 A 
HETATM   49  C   UNK N   1      35.126  14.106  18.393  0.00  0.00     0.145 A 
HETATM   50  C   UNK N   1      35.679   8.579  18.226  0.00  0.00     0.182 A 
HETATM   51  C   UNK N   1      35.329  12.348  19.263  0.00  0.00     0.241 A 
HETATM   52  C   UNK N   1      35.083  14.294  17.590  0.00  0.00     0.042 A 
HETATM   53  C   UNK N   1      35.749   8.086  18.885  0.00  0.00    -0.027 A 
HETATM   54  C   UNK N   1      35.350  11.508  17.102  0.00  0.00     0.252 A 
HETATM   55  C   UNK N   1      35.828   7.271  18.783  0.00  0.00     0.012 A 
HETATM   56  C   UNK N   1      35.739   8.409  19.644  0.00  0.00     0.012 A 
HETATM   57  C   UNK N   1      35.297  11.814  16.338  0.00  0.00     0.032 A 
HETATM   58  C   UNK N   1      35.897   6.779  19.441  0.00  0.00     0.037 A 
HETATM   59  C   UNK N   1      35.808   7.916  20.301  0.00  0.00     0.037 A 
HETATM   60  C   UNK N   1      35.887   7.102  20.200  0.00  0.00     0.065 A 
HETATM   61  C   UNK N   1      35.329  11.306  15.688  0.00  0.00     0.018 A 
HETATM   62  C   UNK N   1      35.211  12.627  16.224  0.00  0.00     0.018 A 
HETATM   63  C   UNK N   1      35.275  11.612  14.923  0.00  0.00     0.013 A 
HETATM   64  C   UNK N   1      35.158  12.932  15.459  0.00  0.00     0.013 A 
HETATM   65  C   UNK N   1      35.190  12.425  14.808  0.00  0.00    -0.026 A 
HETATM   66  C   UNK N   1      35.136  12.731  14.044  0.00  0.00    -0.026 A 
HETATM   67  C   UNK N   1      35.168  12.223  13.394  0.00  0.00     0.013 A 
HETATM   68  C   UNK N   1      35.050  13.543  13.930  0.00  0.00     0.013 A 
HETATM   69  C   UNK N   1      35.115  12.529  12.630  0.00  0.00     0.013 A 
HETATM   70  C   UNK N   1      34.997  13.849  13.166  0.00  0.00     0.013 A 
HETATM   71  C   UNK N   1      35.029  13.342  12.516  0.00  0.00    -0.026 A 
HETATM   72  C   UNK N   1      34.976  13.647  11.751  0.00  0.00    -0.026 A 
HETATM   73  C   UNK N   1      34.890  14.460  11.637  0.00  0.00     0.015 A 
HETATM   74  C   UNK N   1      35.007  13.141  11.101  0.00  0.00     0.015 A 
HETATM   75  C   UNK N   1      34.836  14.765  10.872  0.00  0.00     0.037 A 
HETATM   76  C   UNK N   1      34.954  13.447  10.336  0.00  0.00     0.037 A 
HETATM   77  C   UNK N   1      34.868  14.259  10.222  0.00  0.00     0.068 A 
HETATM   78  C   UNK N   1      34.676  15.682   8.578  0.00  0.00     0.027 A 
HETATM   79  C   UNK N   1      34.729  15.377   9.343  0.00  0.00     0.175 A 
HETATM   80  C   UNK N   1      34.590  16.495   8.464  0.00  0.00     0.002 A 
HETATM   81  C   UNK N   1      34.537  16.800   7.700  0.00  0.00    -0.004 A 
HETATM   82  C   UNK N   1      34.451  17.613   7.586  0.00  0.00     0.005 A 
HETATM   83  H   UNK N   1      35.405  10.321  14.886  0.00  0.00     0.210 HD
HETATM   84  H   UNK N   1      35.371  12.470  21.097  0.00  0.00     0.210 HD
HETATM   85  H   UNK N   1      35.935   5.971  17.970  0.00  0.00     0.210 HD
HETATM   86  H   UNK N   1      35.193  12.585  15.467  0.00  0.00     0.212 HD
HETATM   87  H   UNK N   1      35.133  13.820  17.669  0.00  0.00     0.210 HD
HETATM   88  H   UNK N   1      35.442  10.728  17.542  0.00  0.00     0.210 HD
HETATM   89  H   UNK N   1      35.132  14.483  19.903  0.00  0.00     0.210 HD
HETATM   90  H   UNK N   1      35.608   8.834  16.693  0.00  0.00     0.210 HD
HETATM   91  H   UNK N   1      36.047   5.683  20.745  0.00  0.00     0.217 HD
HETATM   92  H   UNK N   1      35.459  10.672  17.923  0.00  0.00     0.165 HD
HETATM   93  H   UNK N   1      35.834   7.476  19.695  0.00  0.00     0.163 HD
HETATM   94  H   UNK N   1      35.551  10.502  20.444  0.00  0.00     0.163 HD
HETATM   95  H   UNK N   1      35.223  13.687  20.260  0.00  0.00     0.163 HD
HETATM   96  H   UNK N   1      35.480  10.580  18.310  0.00  0.00     0.163 HD
ENDROOT
TORSDOF 10
ENDMDL
