MODEL 1
REMARK VINA RESULT:      -5.9      0.000      0.000
REMARK  11 active torsions:
REMARK  status: ('A' for Active; 'I' for Inactive)
REMARK    1  A    between atoms: O_4  and  C_14 
REMARK    2  A    between atoms: O_5  and  N_6 
REMARK    3  A    between atoms: O_5  and  C_21 
REMARK    4  A    between atoms: N_8  and  C_23 
REMARK    5  A    between atoms: C_9  and  C_10 
REMARK    6  A    between atoms: C_9  and  C_11 
REMARK    7  A    between atoms: C_10  and  C_12 
REMARK    8  A    between atoms: C_11  and  C_14 
REMARK    9  A    between atoms: C_12  and  C_13 
REMARK   10  A    between atoms: C_17  and  C_20 
REMARK   11  A    between atoms: C_21  and  C_23 
ROOT
HETATM    1  N   UNK N   1      25.201  23.886  -7.034  0.00  0.00    -0.270 N 
ATOM      2  HN  UNK N   1      24.503  24.264  -7.674  1.00  0.00     0.194 HD
HETATM    3  C   UNK N   1      26.065  24.698  -6.524  0.00  0.00     0.042 C 
ENDROOT
BRANCH   3   4
HETATM    4  C   UNK N   1      25.980  26.146  -6.906  0.00  0.00     0.060 C 
BRANCH   4   5
HETATM    5  C   UNK N   1      25.104  26.947  -5.969  0.00  0.00     0.008 C 
BRANCH   5   6
HETATM    6  C   UNK N   1      26.011  27.876  -5.187  0.00  0.00     0.027 C 
BRANCH   6   7
HETATM    7  C   UNK N   1      25.645  27.876  -3.717  0.00  0.00     0.167 C 
BRANCH   7   8
HETATM    8  O   UNK N   1      26.120  29.042  -3.118  0.00  0.00    -0.396 OA
HETATM    9  C   UNK N   1      27.479  28.806  -2.916  0.00  0.00     0.201 C 
ENDBRANCH   7   8
ENDBRANCH   6   7
ENDBRANCH   5   6
ENDBRANCH   4   5
ENDBRANCH   3   4
BRANCH   3  10
HETATM   10  C   UNK N   1      27.110  24.299  -5.529  0.00  0.00    -0.012 A 
HETATM   11  C   UNK N   1      28.382  23.835  -5.907  0.00  0.00     0.014 A 
HETATM   12  C   UNK N   1      29.291  23.391  -4.934  0.00  0.00     0.017 A 
HETATM   13  C   UNK N   1      28.948  23.430  -3.573  0.00  0.00     0.048 A 
HETATM   14  C   UNK N   1      27.696  23.922  -3.196  0.00  0.00     0.017 A 
HETATM   15  C   UNK N   1      26.784  24.335  -4.164  0.00  0.00     0.014 A 
BRANCH  13  16
HETATM   16  C   UNK N   1      29.887  22.930  -2.512  0.00  0.00     0.417 C 
HETATM   17  F   UNK N   1      31.037  23.698  -2.457  0.00  0.00    -0.166 F 
HETATM   18  F   UNK N   1      30.241  21.622  -2.794  0.00  0.00    -0.166 F 
HETATM   19  F   UNK N   1      29.260  22.970  -1.280  0.00  0.00    -0.166 F 
ENDBRANCH  13  16
ENDBRANCH   3  10
BRANCH   1  20
HETATM   20  O   UNK N   1      25.172  22.592  -6.769  0.00  0.00    -0.279 OA
BRANCH  20  21
HETATM   21  C   UNK N   1      24.861  21.657  -7.742  0.00  0.00     0.220 C 
BRANCH  21  22
HETATM   22  C   UNK N   1      25.985  21.444  -8.758  0.00  0.00     0.139 C 
BRANCH  22  23
HETATM   23  N   UNK N   1      25.449  20.866  -9.976  0.00  0.00    -0.428 N 
HETATM   24  H   UNK N   1      26.069  20.528 -10.711  0.00  0.00     0.150 HD
HETATM   25  H   UNK N   1      24.438  20.798 -10.098  0.00  0.00     0.150 HD
ENDBRANCH  22  23
ENDBRANCH  21  22
ENDBRANCH  20  21
ENDBRANCH   1  20
TORSDOF 11
ENDMDL
MODEL 2
REMARK VINA RESULT:      -5.7      2.718      5.357
REMARK  11 active torsions:
REMARK  status: ('A' for Active; 'I' for Inactive)
REMARK    1  A    between atoms: O_4  and  C_14 
REMARK    2  A    between atoms: O_5  and  N_6 
REMARK    3  A    between atoms: O_5  and  C_21 
REMARK    4  A    between atoms: N_8  and  C_23 
REMARK    5  A    between atoms: C_9  and  C_10 
REMARK    6  A    between atoms: C_9  and  C_11 
REMARK    7  A    between atoms: C_10  and  C_12 
REMARK    8  A    between atoms: C_11  and  C_14 
REMARK    9  A    between atoms: C_12  and  C_13 
REMARK   10  A    between atoms: C_17  and  C_20 
REMARK   11  A    between atoms: C_21  and  C_23 
ROOT
HETATM    1  N   UNK N   1      25.483  28.184  -4.038  0.00  0.00    -0.270 N 
ATOM      2  HN  UNK N   1      24.742  28.748  -4.454  1.00  0.00     0.194 HD
HETATM    3  C   UNK N   1      25.766  27.049  -4.584  0.00  0.00     0.042 C 
ENDROOT
BRANCH   3   4
HETATM    4  C   UNK N   1      24.986  26.639  -5.797  0.00  0.00     0.060 C 
BRANCH   4   5
HETATM    5  C   UNK N   1      25.847  26.533  -7.037  0.00  0.00     0.008 C 
BRANCH   5   6
HETATM    6  C   UNK N   1      25.778  25.097  -7.514  0.00  0.00     0.027 C 
BRANCH   6   7
HETATM    7  C   UNK N   1      27.124  24.415  -7.370  0.00  0.00     0.167 C 
BRANCH   7   8
HETATM    8  O   UNK N   1      27.000  23.313  -6.525  0.00  0.00    -0.396 OA
HETATM    9  C   UNK N   1      28.216  22.641  -6.641  0.00  0.00     0.201 C 
ENDBRANCH   7   8
ENDBRANCH   6   7
ENDBRANCH   5   6
ENDBRANCH   4   5
ENDBRANCH   3   4
BRANCH   3  10
HETATM   10  C   UNK N   1      26.863  26.143  -4.120  0.00  0.00    -0.012 A 
HETATM   11  C   UNK N   1      28.222  26.404  -4.368  0.00  0.00     0.014 A 
HETATM   12  C   UNK N   1      29.203  25.477  -3.986  0.00  0.00     0.017 A 
HETATM   13  C   UNK N   1      28.838  24.290  -3.329  0.00  0.00     0.048 A 
HETATM   14  C   UNK N   1      27.492  24.046  -3.054  0.00  0.00     0.017 A 
HETATM   15  C   UNK N   1      26.516  24.954  -3.459  0.00  0.00     0.014 A 
BRANCH  13  16
HETATM   16  C   UNK N   1      29.863  23.263  -2.939  0.00  0.00     0.417 C 
HETATM   17  F   UNK N   1      31.148  23.727  -3.155  0.00  0.00    -0.166 F 
HETATM   18  F   UNK N   1      29.674  22.117  -3.693  0.00  0.00    -0.166 F 
HETATM   19  F   UNK N   1      29.718  22.947  -1.601  0.00  0.00    -0.166 F 
ENDBRANCH  13  16
ENDBRANCH   3  10
BRANCH   1  20
HETATM   20  O   UNK N   1      26.104  28.654  -2.971  0.00  0.00    -0.279 OA
BRANCH  20  21
HETATM   21  C   UNK N   1      26.995  29.711  -3.054  0.00  0.00     0.220 C 
BRANCH  21  22
HETATM   22  C   UNK N   1      28.299  29.465  -2.293  0.00  0.00     0.139 C 
BRANCH  22  23
HETATM   23  N   UNK N   1      28.203  30.019  -0.956  0.00  0.00    -0.428 N 
HETATM   24  H   UNK N   1      28.548  30.957  -0.752  0.00  0.00     0.150 HD
HETATM   25  H   UNK N   1      27.785  29.463  -0.209  0.00  0.00     0.150 HD
ENDBRANCH  22  23
ENDBRANCH  21  22
ENDBRANCH  20  21
ENDBRANCH   1  20
TORSDOF 11
ENDMDL
MODEL 3
REMARK VINA RESULT:      -5.5     16.087     17.614
REMARK  11 active torsions:
REMARK  status: ('A' for Active; 'I' for Inactive)
REMARK    1  A    between atoms: O_4  and  C_14 
REMARK    2  A    between atoms: O_5  and  N_6 
REMARK    3  A    between atoms: O_5  and  C_21 
REMARK    4  A    between atoms: N_8  and  C_23 
REMARK    5  A    between atoms: C_9  and  C_10 
REMARK    6  A    between atoms: C_9  and  C_11 
REMARK    7  A    between atoms: C_10  and  C_12 
REMARK    8  A    between atoms: C_11  and  C_14 
REMARK    9  A    between atoms: C_12  and  C_13 
REMARK   10  A    between atoms: C_17  and  C_20 
REMARK   11  A    between atoms: C_21  and  C_23 
ROOT
HETATM    1  N   UNK N   1      20.189  16.739   7.232  0.00  0.00    -0.270 N 
ATOM      2  HN  UNK N   1      19.773  17.275   6.470  1.00  0.00     0.194 HD
HETATM    3  C   UNK N   1      20.371  15.473   7.058  0.00  0.00     0.042 C 
ENDROOT
BRANCH   3   4
HETATM    4  C   UNK N   1      19.962  14.878   5.743  0.00  0.00     0.060 C 
BRANCH   4   5
HETATM    5  C   UNK N   1      20.745  15.442   4.578  0.00  0.00     0.008 C 
BRANCH   5   6
HETATM    6  C   UNK N   1      19.758  16.148   3.670  0.00  0.00     0.027 C 
BRANCH   6   7
HETATM    7  C   UNK N   1      20.203  17.569   3.389  0.00  0.00     0.167 C 
BRANCH   7   8
HETATM    8  O   UNK N   1      20.862  18.080   4.506  0.00  0.00    -0.396 OA
HETATM    9  C   UNK N   1      21.758  19.016   3.989  0.00  0.00     0.201 C 
ENDBRANCH   7   8
ENDBRANCH   6   7
ENDBRANCH   5   6
ENDBRANCH   4   5
ENDBRANCH   3   4
BRANCH   3  10
HETATM   10  C   UNK N   1      21.020  14.571   8.061  0.00  0.00    -0.012 A 
HETATM   11  C   UNK N   1      20.383  14.170   9.248  0.00  0.00     0.014 A 
HETATM   12  C   UNK N   1      21.071  13.395  10.194  0.00  0.00     0.017 A 
HETATM   13  C   UNK N   1      22.394  12.991   9.951  0.00  0.00     0.048 A 
HETATM   14  C   UNK N   1      23.015  13.361   8.757  0.00  0.00     0.017 A 
HETATM   15  C   UNK N   1      22.341  14.155   7.832  0.00  0.00     0.014 A 
BRANCH  13  16
HETATM   16  C   UNK N   1      23.167  12.189  10.960  0.00  0.00     0.417 C 
HETATM   17  F   UNK N   1      22.680  12.387  12.239  0.00  0.00    -0.166 F 
HETATM   18  F   UNK N   1      24.497  12.573  10.929  0.00  0.00    -0.166 F 
HETATM   19  F   UNK N   1      23.081  10.844  10.649  0.00  0.00    -0.166 F 
ENDBRANCH  13  16
ENDBRANCH   3  10
BRANCH   1  20
HETATM   20  O   UNK N   1      20.513  17.375   8.343  0.00  0.00    -0.279 OA
BRANCH  20  21
HETATM   21  C   UNK N   1      19.568  18.053   9.096  0.00  0.00     0.220 C 
BRANCH  21  22
HETATM   22  C   UNK N   1      18.241  17.301   9.220  0.00  0.00     0.139 C 
BRANCH  22  23
HETATM   23  N   UNK N   1      17.244  18.156   9.837  0.00  0.00    -0.428 N 
HETATM   24  H   UNK N   1      16.911  17.972  10.783  0.00  0.00     0.150 HD
HETATM   25  H   UNK N   1      16.872  18.951   9.317  0.00  0.00     0.150 HD
ENDBRANCH  22  23
ENDBRANCH  21  22
ENDBRANCH  20  21
ENDBRANCH   1  20
TORSDOF 11
ENDMDL
MODEL 4
REMARK VINA RESULT:      -5.4     12.184     13.981
REMARK  11 active torsions:
REMARK  status: ('A' for Active; 'I' for Inactive)
REMARK    1  A    between atoms: O_4  and  C_14 
REMARK    2  A    between atoms: O_5  and  N_6 
REMARK    3  A    between atoms: O_5  and  C_21 
REMARK    4  A    between atoms: N_8  and  C_23 
REMARK    5  A    between atoms: C_9  and  C_10 
REMARK    6  A    between atoms: C_9  and  C_11 
REMARK    7  A    between atoms: C_10  and  C_12 
REMARK    8  A    between atoms: C_11  and  C_14 
REMARK    9  A    between atoms: C_12  and  C_13 
REMARK   10  A    between atoms: C_17  and  C_20 
REMARK   11  A    between atoms: C_21  and  C_23 
ROOT
HETATM    1  N   UNK N   1      29.426  15.125   5.627  0.00  0.00    -0.270 N 
ATOM      2  HN  UNK N   1      30.034  14.318   5.485  1.00  0.00     0.194 HD
HETATM    3  C   UNK N   1      29.971  16.252   5.942  0.00  0.00     0.042 C 
ENDROOT
BRANCH   3   4
HETATM    4  C   UNK N   1      31.464  16.298   6.073  0.00  0.00     0.060 C 
BRANCH   4   5
HETATM    5  C   UNK N   1      32.160  16.534   4.752  0.00  0.00     0.008 C 
BRANCH   5   6
HETATM    6  C   UNK N   1      33.345  17.440   5.020  0.00  0.00     0.027 C 
BRANCH   6   7
HETATM    7  C   UNK N   1      34.003  17.092   6.339  0.00  0.00     0.167 C 
BRANCH   7   8
HETATM    8  O   UNK N   1      34.487  18.254   6.939  0.00  0.00    -0.396 OA
HETATM    9  C   UNK N   1      34.410  18.002   8.308  0.00  0.00     0.201 C 
ENDBRANCH   7   8
ENDBRANCH   6   7
ENDBRANCH   5   6
ENDBRANCH   4   5
ENDBRANCH   3   4
BRANCH   3  10
HETATM   10  C   UNK N   1      29.213  17.530   6.124  0.00  0.00    -0.012 A 
HETATM   11  C   UNK N   1      28.811  18.003   7.385  0.00  0.00     0.014 A 
HETATM   12  C   UNK N   1      28.028  19.162   7.491  0.00  0.00     0.017 A 
HETATM   13  C   UNK N   1      27.660  19.875   6.338  0.00  0.00     0.048 A 
HETATM   14  C   UNK N   1      28.087  19.424   5.088  0.00  0.00     0.017 A 
HETATM   15  C   UNK N   1      28.841  18.257   4.982  0.00  0.00     0.014 A 
BRANCH  13  16
HETATM   16  C   UNK N   1      26.794  21.100   6.417  0.00  0.00     0.417 C 
HETATM   17  F   UNK N   1      25.833  21.102   5.422  0.00  0.00    -0.166 F 
HETATM   18  F   UNK N   1      27.582  22.229   6.272  0.00  0.00    -0.166 F 
HETATM   19  F   UNK N   1      26.166  21.146   7.648  0.00  0.00    -0.166 F 
ENDBRANCH  13  16
ENDBRANCH   3  10
BRANCH   1  20
HETATM   20  O   UNK N   1      28.124  14.962   5.477  0.00  0.00    -0.279 OA
BRANCH  20  21
HETATM   21  C   UNK N   1      27.604  13.965   4.668  0.00  0.00     0.220 C 
BRANCH  21  22
HETATM   22  C   UNK N   1      26.737  14.501   3.527  0.00  0.00     0.139 C 
BRANCH  22  23
HETATM   23  N   UNK N   1      27.387  15.638   2.904  0.00  0.00    -0.428 N 
HETATM   24  H   UNK N   1      26.894  16.523   2.786  0.00  0.00     0.150 HD
HETATM   25  H   UNK N   1      28.351  15.551   2.579  0.00  0.00     0.150 HD
ENDBRANCH  22  23
ENDBRANCH  21  22
ENDBRANCH  20  21
ENDBRANCH   1  20
TORSDOF 11
ENDMDL
MODEL 5
REMARK VINA RESULT:      -5.3     12.372     14.261
REMARK  11 active torsions:
REMARK  status: ('A' for Active; 'I' for Inactive)
REMARK    1  A    between atoms: O_4  and  C_14 
REMARK    2  A    between atoms: O_5  and  N_6 
REMARK    3  A    between atoms: O_5  and  C_21 
REMARK    4  A    between atoms: N_8  and  C_23 
REMARK    5  A    between atoms: C_9  and  C_10 
REMARK    6  A    between atoms: C_9  and  C_11 
REMARK    7  A    between atoms: C_10  and  C_12 
REMARK    8  A    between atoms: C_11  and  C_14 
REMARK    9  A    between atoms: C_12  and  C_13 
REMARK   10  A    between atoms: C_17  and  C_20 
REMARK   11  A    between atoms: C_21  and  C_23 
ROOT
HETATM    1  N   UNK N   1      29.385  15.152   5.102  0.00  0.00    -0.270 N 
ATOM      2  HN  UNK N   1      29.967  14.329   4.947  1.00  0.00     0.194 HD
HETATM    3  C   UNK N   1      29.902  16.156   5.727  0.00  0.00     0.042 C 
ENDROOT
BRANCH   3   4
HETATM    4  C   UNK N   1      31.328  16.046   6.177  0.00  0.00     0.060 C 
BRANCH   4   5
HETATM    5  C   UNK N   1      32.240  17.028   5.477  0.00  0.00     0.008 C 
BRANCH   5   6
HETATM    6  C   UNK N   1      33.180  17.596   6.520  0.00  0.00     0.027 C 
BRANCH   6   7
HETATM    7  C   UNK N   1      32.608  17.425   7.913  0.00  0.00     0.167 C 
BRANCH   7   8
HETATM    8  O   UNK N   1      33.630  17.539   8.854  0.00  0.00    -0.396 OA
HETATM    9  C   UNK N   1      34.596  18.329   8.231  0.00  0.00     0.201 C 
ENDBRANCH   7   8
ENDBRANCH   6   7
ENDBRANCH   5   6
ENDBRANCH   4   5
ENDBRANCH   3   4
BRANCH   3  10
HETATM   10  C   UNK N   1      29.188  17.448   5.977  0.00  0.00    -0.012 A 
HETATM   11  C   UNK N   1      28.863  17.900   7.268  0.00  0.00     0.014 A 
HETATM   12  C   UNK N   1      28.117  19.076   7.440  0.00  0.00     0.017 A 
HETATM   13  C   UNK N   1      27.710  19.826   6.323  0.00  0.00     0.048 A 
HETATM   14  C   UNK N   1      28.061  19.394   5.043  0.00  0.00     0.017 A 
HETATM   15  C   UNK N   1      28.777  18.212   4.873  0.00  0.00     0.014 A 
BRANCH  13  16
HETATM   16  C   UNK N   1      26.881  21.070   6.475  0.00  0.00     0.417 C 
HETATM   17  F   UNK N   1      25.895  21.138   5.507  0.00  0.00    -0.166 F 
HETATM   18  F   UNK N   1      27.697  22.182   6.354  0.00  0.00    -0.166 F 
HETATM   19  F   UNK N   1      26.287  21.083   7.724  0.00  0.00    -0.166 F 
ENDBRANCH  13  16
ENDBRANCH   3  10
BRANCH   1  20
HETATM   20  O   UNK N   1      28.142  15.134   4.653  0.00  0.00    -0.279 OA
BRANCH  20  21
HETATM   21  C   UNK N   1      27.111  14.575   5.390  0.00  0.00     0.220 C 
BRANCH  21  22
HETATM   22  C   UNK N   1      25.806  15.368   5.304  0.00  0.00     0.139 C 
BRANCH  22  23
HETATM   23  N   UNK N   1      25.735  16.324   6.392  0.00  0.00    -0.428 N 
HETATM   24  H   UNK N   1      26.333  16.228   7.213  0.00  0.00     0.150 HD
HETATM   25  H   UNK N   1      25.078  17.103   6.336  0.00  0.00     0.150 HD
ENDBRANCH  22  23
ENDBRANCH  21  22
ENDBRANCH  20  21
ENDBRANCH   1  20
TORSDOF 11
ENDMDL
MODEL 6
REMARK VINA RESULT:      -5.3     12.585     14.740
REMARK  11 active torsions:
REMARK  status: ('A' for Active; 'I' for Inactive)
REMARK    1  A    between atoms: O_4  and  C_14 
REMARK    2  A    between atoms: O_5  and  N_6 
REMARK    3  A    between atoms: O_5  and  C_21 
REMARK    4  A    between atoms: N_8  and  C_23 
REMARK    5  A    between atoms: C_9  and  C_10 
REMARK    6  A    between atoms: C_9  and  C_11 
REMARK    7  A    between atoms: C_10  and  C_12 
REMARK    8  A    between atoms: C_11  and  C_14 
REMARK    9  A    between atoms: C_12  and  C_13 
REMARK   10  A    between atoms: C_17  and  C_20 
REMARK   11  A    between atoms: C_21  and  C_23 
ROOT
HETATM    1  N   UNK N   1      30.924  17.314   7.512  0.00  0.00    -0.270 N 
ATOM      2  HN  UNK N   1      31.839  16.999   7.835  1.00  0.00     0.194 HD
HETATM    3  C   UNK N   1      30.547  16.975   6.325  0.00  0.00     0.042 C 
ENDROOT
BRANCH   3   4
HETATM    4  C   UNK N   1      31.480  16.137   5.503  0.00  0.00     0.060 C 
BRANCH   4   5
HETATM    5  C   UNK N   1      32.478  16.965   4.725  0.00  0.00     0.008 C 
BRANCH   5   6
HETATM    6  C   UNK N   1      33.851  16.379   4.984  0.00  0.00     0.027 C 
BRANCH   6   7
HETATM    7  C   UNK N   1      34.285  16.631   6.413  0.00  0.00     0.167 C 
BRANCH   7   8
HETATM    8  O   UNK N   1      34.366  18.004   6.640  0.00  0.00    -0.396 OA
HETATM    9  C   UNK N   1      34.383  18.132   8.029  0.00  0.00     0.201 C 
ENDBRANCH   7   8
ENDBRANCH   6   7
ENDBRANCH   5   6
ENDBRANCH   4   5
ENDBRANCH   3   4
BRANCH   3  10
HETATM   10  C   UNK N   1      29.212  17.315   5.738  0.00  0.00    -0.012 A 
HETATM   11  C   UNK N   1      28.971  18.510   5.038  0.00  0.00     0.014 A 
HETATM   12  C   UNK N   1      27.678  18.816   4.585  0.00  0.00     0.017 A 
HETATM   13  C   UNK N   1      26.620  17.919   4.804  0.00  0.00     0.048 A 
HETATM   14  C   UNK N   1      26.867  16.718   5.470  0.00  0.00     0.017 A 
HETATM   15  C   UNK N   1      28.144  16.428   5.945  0.00  0.00     0.014 A 
BRANCH  13  16
HETATM   16  C   UNK N   1      25.220  18.236   4.361  0.00  0.00     0.417 C 
HETATM   17  F   UNK N   1      24.622  19.157   5.202  0.00  0.00    -0.166 F 
HETATM   18  F   UNK N   1      24.464  17.076   4.366  0.00  0.00    -0.166 F 
HETATM   19  F   UNK N   1      25.244  18.749   3.077  0.00  0.00    -0.166 F 
ENDBRANCH  13  16
ENDBRANCH   3  10
BRANCH   1  20
HETATM   20  O   UNK N   1      30.188  18.044   8.330  0.00  0.00    -0.279 OA
BRANCH  20  21
HETATM   21  C   UNK N   1      29.562  17.492   9.435  0.00  0.00     0.220 C 
BRANCH  21  22
HETATM   22  C   UNK N   1      28.036  17.512   9.341  0.00  0.00     0.139 C 
BRANCH  22  23
HETATM   23  N   UNK N   1      27.594  18.754   8.735  0.00  0.00    -0.428 N 
HETATM   24  H   UNK N   1      28.262  19.392   8.304  0.00  0.00     0.150 HD
HETATM   25  H   UNK N   1      26.601  18.991   8.740  0.00  0.00     0.150 HD
ENDBRANCH  22  23
ENDBRANCH  21  22
ENDBRANCH  20  21
ENDBRANCH   1  20
TORSDOF 11
ENDMDL
MODEL 7
REMARK VINA RESULT:      -5.2      3.570      5.419
REMARK  11 active torsions:
REMARK  status: ('A' for Active; 'I' for Inactive)
REMARK    1  A    between atoms: O_4  and  C_14 
REMARK    2  A    between atoms: O_5  and  N_6 
REMARK    3  A    between atoms: O_5  and  C_21 
REMARK    4  A    between atoms: N_8  and  C_23 
REMARK    5  A    between atoms: C_9  and  C_10 
REMARK    6  A    between atoms: C_9  and  C_11 
REMARK    7  A    between atoms: C_10  and  C_12 
REMARK    8  A    between atoms: C_11  and  C_14 
REMARK    9  A    between atoms: C_12  and  C_13 
REMARK   10  A    between atoms: C_17  and  C_20 
REMARK   11  A    between atoms: C_21  and  C_23 
ROOT
HETATM    1  N   UNK N   1      28.317  22.042  -6.809  0.00  0.00    -0.270 N 
ATOM      2  HN  UNK N   1      28.942  21.267  -7.030  1.00  0.00     0.194 HD
HETATM    3  C   UNK N   1      28.708  22.913  -5.940  0.00  0.00     0.042 C 
ENDROOT
BRANCH   3   4
HETATM    4  C   UNK N   1      30.060  22.727  -5.319  0.00  0.00     0.060 C 
BRANCH   4   5
HETATM    5  C   UNK N   1      30.257  21.339  -4.751  0.00  0.00     0.008 C 
BRANCH   5   6
HETATM    6  C   UNK N   1      30.946  21.493  -3.410  0.00  0.00     0.027 C 
BRANCH   6   7
HETATM    7  C   UNK N   1      30.903  22.933  -2.943  0.00  0.00     0.167 C 
BRANCH   7   8
HETATM    8  O   UNK N   1      30.461  22.981  -1.621  0.00  0.00    -0.396 OA
HETATM    9  C   UNK N   1      29.071  23.026  -1.715  0.00  0.00     0.201 C 
ENDBRANCH   7   8
ENDBRANCH   6   7
ENDBRANCH   5   6
ENDBRANCH   4   5
ENDBRANCH   3   4
BRANCH   3  10
HETATM   10  C   UNK N   1      27.925  24.130  -5.558  0.00  0.00    -0.012 A 
HETATM   11  C   UNK N   1      27.003  24.139  -4.497  0.00  0.00     0.014 A 
HETATM   12  C   UNK N   1      26.232  25.282  -4.238  0.00  0.00     0.017 A 
HETATM   13  C   UNK N   1      26.393  26.437  -5.021  0.00  0.00     0.048 A 
HETATM   14  C   UNK N   1      27.332  26.439  -6.054  0.00  0.00     0.017 A 
HETATM   15  C   UNK N   1      28.076  25.293  -6.329  0.00  0.00     0.014 A 
BRANCH  13  16
HETATM   16  C   UNK N   1      25.558  27.664  -4.789  0.00  0.00     0.417 C 
HETATM   17  F   UNK N   1      25.258  27.822  -3.448  0.00  0.00    -0.166 F 
HETATM   18  F   UNK N   1      24.374  27.554  -5.498  0.00  0.00    -0.166 F 
HETATM   19  F   UNK N   1      26.242  28.782  -5.232  0.00  0.00    -0.166 F 
ENDBRANCH  13  16
ENDBRANCH   3  10
BRANCH   1  20
HETATM   20  O   UNK N   1      27.150  22.102  -7.426  0.00  0.00    -0.279 OA
BRANCH  20  21
HETATM   21  C   UNK N   1      27.047  22.503  -8.748  0.00  0.00     0.220 C 
BRANCH  21  22
HETATM   22  C   UNK N   1      25.900  23.484  -8.995  0.00  0.00     0.139 C 
BRANCH  22  23
HETATM   23  N   UNK N   1      25.925  23.939 -10.372  0.00  0.00    -0.428 N 
HETATM   24  H   UNK N   1      25.853  23.276 -11.143  0.00  0.00     0.150 HD
HETATM   25  H   UNK N   1      26.016  24.936 -10.571  0.00  0.00     0.150 HD
ENDBRANCH  22  23
ENDBRANCH  21  22
ENDBRANCH  20  21
ENDBRANCH   1  20
TORSDOF 11
ENDMDL
MODEL 8
REMARK VINA RESULT:      -5.2     12.626     15.029
REMARK  11 active torsions:
REMARK  status: ('A' for Active; 'I' for Inactive)
REMARK    1  A    between atoms: O_4  and  C_14 
REMARK    2  A    between atoms: O_5  and  N_6 
REMARK    3  A    between atoms: O_5  and  C_21 
REMARK    4  A    between atoms: N_8  and  C_23 
REMARK    5  A    between atoms: C_9  and  C_10 
REMARK    6  A    between atoms: C_9  and  C_11 
REMARK    7  A    between atoms: C_10  and  C_12 
REMARK    8  A    between atoms: C_11  and  C_14 
REMARK    9  A    between atoms: C_12  and  C_13 
REMARK   10  A    between atoms: C_17  and  C_20 
REMARK   11  A    between atoms: C_21  and  C_23 
ROOT
HETATM    1  N   UNK N   1      31.919  16.662   6.866  0.00  0.00    -0.270 N 
ATOM      2  HN  UNK N   1      32.567  15.876   6.914  1.00  0.00     0.194 HD
HETATM    3  C   UNK N   1      30.739  16.451   6.386  0.00  0.00     0.042 C 
ENDROOT
BRANCH   3   4
HETATM    4  C   UNK N   1      30.403  15.061   5.934  0.00  0.00     0.060 C 
BRANCH   4   5
HETATM    5  C   UNK N   1      31.602  14.317   5.389  0.00  0.00     0.008 C 
BRANCH   5   6
HETATM    6  C   UNK N   1      31.726  14.671   3.922  0.00  0.00     0.027 C 
BRANCH   6   7
HETATM    7  C   UNK N   1      33.144  15.085   3.584  0.00  0.00     0.167 C 
BRANCH   7   8
HETATM    8  O   UNK N   1      33.121  16.029   2.558  0.00  0.00    -0.396 OA
HETATM    9  C   UNK N   1      32.388  17.096   3.076  0.00  0.00     0.201 C 
ENDBRANCH   7   8
ENDBRANCH   6   7
ENDBRANCH   5   6
ENDBRANCH   4   5
ENDBRANCH   3   4
BRANCH   3  10
HETATM   10  C   UNK N   1      29.665  17.491   6.307  0.00  0.00    -0.012 A 
HETATM   11  C   UNK N   1      29.187  18.000   5.087  0.00  0.00     0.014 A 
HETATM   12  C   UNK N   1      28.241  19.036   5.074  0.00  0.00     0.017 A 
HETATM   13  C   UNK N   1      27.745  19.557   6.280  0.00  0.00     0.048 A 
HETATM   14  C   UNK N   1      28.196  19.029   7.491  0.00  0.00     0.017 A 
HETATM   15  C   UNK N   1      29.156  18.020   7.503  0.00  0.00     0.014 A 
BRANCH  13  16
HETATM   16  C   UNK N   1      26.758  20.689   6.298  0.00  0.00     0.417 C 
HETATM   17  F   UNK N   1      27.329  21.862   5.836  0.00  0.00    -0.166 F 
HETATM   18  F   UNK N   1      26.317  20.893   7.595  0.00  0.00    -0.166 F 
HETATM   19  F   UNK N   1      25.673  20.372   5.500  0.00  0.00    -0.166 F 
ENDBRANCH  13  16
ENDBRANCH   3  10
BRANCH   1  20
HETATM   20  O   UNK N   1      32.329  17.840   7.301  0.00  0.00    -0.279 OA
BRANCH  20  21
HETATM   21  C   UNK N   1      33.476  17.975   8.065  0.00  0.00     0.220 C 
BRANCH  21  22
HETATM   22  C   UNK N   1      33.806  16.728   8.887  0.00  0.00     0.139 C 
BRANCH  22  23
HETATM   23  N   UNK N   1      34.600  17.093  10.044  0.00  0.00    -0.428 N 
HETATM   24  H   UNK N   1      34.781  16.420  10.788  0.00  0.00     0.150 HD
HETATM   25  H   UNK N   1      34.983  18.037  10.115  0.00  0.00     0.150 HD
ENDBRANCH  22  23
ENDBRANCH  21  22
ENDBRANCH  20  21
ENDBRANCH   1  20
TORSDOF 11
ENDMDL
MODEL 9
REMARK VINA RESULT:      -5.1     11.790     14.073
REMARK  11 active torsions:
REMARK  status: ('A' for Active; 'I' for Inactive)
REMARK    1  A    between atoms: O_4  and  C_14 
REMARK    2  A    between atoms: O_5  and  N_6 
REMARK    3  A    between atoms: O_5  and  C_21 
REMARK    4  A    between atoms: N_8  and  C_23 
REMARK    5  A    between atoms: C_9  and  C_10 
REMARK    6  A    between atoms: C_9  and  C_11 
REMARK    7  A    between atoms: C_10  and  C_12 
REMARK    8  A    between atoms: C_11  and  C_14 
REMARK    9  A    between atoms: C_12  and  C_13 
REMARK   10  A    between atoms: C_17  and  C_20 
REMARK   11  A    between atoms: C_21  and  C_23 
ROOT
HETATM    1  N   UNK N   1      27.229  17.314   7.035  0.00  0.00    -0.270 N 
ATOM      2  HN  UNK N   1      26.275  17.670   7.092  1.00  0.00     0.194 HD
HETATM    3  C   UNK N   1      28.201  18.158   7.131  0.00  0.00     0.042 C 
ENDROOT
BRANCH   3   4
HETATM    4  C   UNK N   1      27.859  19.605   7.326  0.00  0.00     0.060 C 
BRANCH   4   5
HETATM    5  C   UNK N   1      26.986  20.154   6.219  0.00  0.00     0.008 C 
BRANCH   5   6
HETATM    6  C   UNK N   1      27.832  20.210   4.963  0.00  0.00     0.027 C 
BRANCH   6   7
HETATM    7  C   UNK N   1      27.103  19.581   3.793  0.00  0.00     0.167 C 
BRANCH   7   8
HETATM    8  O   UNK N   1      27.063  18.197   3.958  0.00  0.00    -0.396 OA
HETATM    9  C   UNK N   1      25.797  17.825   3.508  0.00  0.00     0.201 C 
ENDBRANCH   7   8
ENDBRANCH   6   7
ENDBRANCH   5   6
ENDBRANCH   4   5
ENDBRANCH   3   4
BRANCH   3  10
HETATM   10  C   UNK N   1      29.649  17.778   7.122  0.00  0.00    -0.012 A 
HETATM   11  C   UNK N   1      30.456  17.827   8.272  0.00  0.00     0.014 A 
HETATM   12  C   UNK N   1      31.827  17.543   8.188  0.00  0.00     0.017 A 
HETATM   13  C   UNK N   1      32.401  17.182   6.957  0.00  0.00     0.048 A 
HETATM   14  C   UNK N   1      31.593  17.100   5.822  0.00  0.00     0.017 A 
HETATM   15  C   UNK N   1      30.237  17.411   5.901  0.00  0.00     0.014 A 
BRANCH  13  16
HETATM   16  C   UNK N   1      33.872  16.905   6.830  0.00  0.00     0.417 C 
HETATM   17  F   UNK N   1      34.219  15.725   7.463  0.00  0.00    -0.166 F 
HETATM   18  F   UNK N   1      34.586  17.943   7.406  0.00  0.00    -0.166 F 
HETATM   19  F   UNK N   1      34.214  16.815   5.493  0.00  0.00    -0.166 F 
ENDBRANCH  13  16
ENDBRANCH   3  10
BRANCH   1  20
HETATM   20  O   UNK N   1      27.405  16.016   6.867  0.00  0.00    -0.279 OA
BRANCH  20  21
HETATM   21  C   UNK N   1      26.519  15.251   6.126  0.00  0.00     0.220 C 
BRANCH  21  22
HETATM   22  C   UNK N   1      25.190  15.001   6.841  0.00  0.00     0.139 C 
BRANCH  22  23
HETATM   23  N   UNK N   1      25.336  13.915   7.791  0.00  0.00    -0.428 N 
HETATM   24  H   UNK N   1      24.533  13.350   8.067  0.00  0.00     0.150 HD
HETATM   25  H   UNK N   1      26.254  13.715   8.190  0.00  0.00     0.150 HD
ENDBRANCH  22  23
ENDBRANCH  21  22
ENDBRANCH  20  21
ENDBRANCH   1  20
TORSDOF 11
ENDMDL
