MODEL 1
REMARK VINA RESULT:      -7.0      0.000      0.000
REMARK  11 active torsions:
REMARK  status: ('A' for Active; 'I' for Inactive)
REMARK    1  A    between atoms: O_1  and  C_18 
REMARK    2  A    between atoms: C_11  and  N_4 
REMARK    3  A    between atoms: N_4  and  C_13 
REMARK       I    between atoms: N_4  and  C_14 
REMARK    4  A    between atoms: C_11  and  C_12 
REMARK    5  A    between atoms: C_11  and  C_18 
REMARK    6  A    between atoms: C_13  and  C_19 
REMARK    7  A    between atoms: C_14  and  C_17 
REMARK    8  A    between atoms: C_17  and  C_20 
REMARK    9  A    between atoms: C_20  and  C_21 
REMARK   10  A    between atoms: C_24  and  C_28 
REMARK   11  A    between atoms: C_29  and  C_33 
ROOT
HETATM    1  C   UNK N   1      22.906  16.438   5.993  0.00  0.00    -0.040 A 
HETATM    2  C   UNK N   1      23.799  15.480   6.482  0.00  0.00     0.010 A 
HETATM    3  C   UNK N   1      23.371  17.509   5.236  0.00  0.00     0.010 A 
HETATM    4  C   UNK N   1      25.616  16.645   5.358  0.00  0.00    -0.025 A 
HETATM    5  C   UNK N   1      25.153  15.582   6.159  0.00  0.00     0.013 A 
HETATM    6  C   UNK N   1      24.717  17.625   4.940  0.00  0.00     0.013 A 
ENDROOT
BRANCH   1   7
HETATM    7  C   UNK N   1      21.454  16.388   6.302  0.00  0.00     0.165 C 
BRANCH   7   8
HETATM    8  N   UNK N   1      20.933  15.035   6.215  0.00  0.00    -0.333 N 
HETATM    9  C   UNK N   1      20.816  14.256   7.346  0.00  0.00     0.220 C 
HETATM   10  O   UNK N   1      20.368  13.121   7.261  0.00  0.00    -0.273 OA
BRANCH   8  11
HETATM   11  C   UNK N   1      20.386  14.556   4.941  0.00  0.00     0.188 C 
BRANCH  11  12
HETATM   12  C   UNK N   1      21.230  14.993   3.711  0.00  0.00     0.011 C 
HETATM   13  C   UNK N   1      20.433  15.097   2.421  0.00  0.00     0.012 C 
HETATM   14  C   UNK N   1      22.372  14.025   3.464  0.00  0.00     0.012 C 
ENDBRANCH  11  12
BRANCH  11  15
HETATM   15  C   UNK N   1      18.950  15.039   4.811  0.00  0.00     0.164 C 
HETATM   16  O   UNK N   1      18.019  14.250   4.887  0.00  0.00    -0.648 OA
BRANCH  15  17
HETATM   17  O   UNK N   1      18.691  16.340   4.589  0.00  0.00    -0.775 OA
HETATM   18  H   UNK N   1      18.440  16.706   3.763  0.00  0.00     0.167 HD
ENDBRANCH  15  17
ENDBRANCH  11  15
ENDBRANCH   8  11
BRANCH   9  19
HETATM   19  C   UNK N   1      21.201  14.793   8.707  0.00  0.00     0.103 C 
BRANCH  19  20
HETATM   20  C   UNK N   1      21.238  13.749   9.807  0.00  0.00     0.009 C 
BRANCH  20  21
HETATM   21  C   UNK N   1      22.651  13.223   9.956  0.00  0.00    -0.004 C 
HETATM   22  C   UNK N   1      22.714  12.282  11.139  0.00  0.00     0.005 C 
ENDBRANCH  20  21
ENDBRANCH  19  20
ENDBRANCH   9  19
ENDBRANCH   7   8
ENDBRANCH   1   7
BRANCH   4  23
HETATM   23  C   UNK N   1      27.011  16.736   4.883  0.00  0.00    -0.012 A 
HETATM   24  C   UNK N   1      28.070  17.276   5.667  0.00  0.00     0.021 A 
HETATM   25  C   UNK N   1      29.360  17.325   5.119  0.00  0.00     0.016 A 
HETATM   26  C   UNK N   1      29.616  16.828   3.838  0.00  0.00     0.001 A 
HETATM   27  C   UNK N   1      28.587  16.270   3.086  0.00  0.00     0.001 A 
HETATM   28  C   UNK N   1      27.296  16.226   3.604  0.00  0.00     0.013 A 
BRANCH  24  29
HETATM   29  C   UNK N   1      27.912  17.687   7.087  0.00  0.00     0.145 A 
HETATM   30  N   UNK N   1      27.604  18.926   7.514  0.00  0.00    -0.271 N 
HETATM   31  N   UNK N   1      27.519  18.847   8.828  0.00  0.00    -0.225 N 
ATOM     32  HN  UNK N   1      27.464  19.757   6.940  1.00  0.00     0.190 HD
HETATM   33  N   UNK N   1      27.749  17.597   9.205  0.00  0.00    -0.005 NA
HETATM   34  H   UNK N   1      27.316  19.597   9.432  0.00  0.00     0.205 HD
HETATM   35  N   UNK N   1      27.980  16.852   8.138  0.00  0.00    -0.266 N 
ATOM     36  HN  UNK N   1      28.170  15.849   8.116  1.00  0.00     0.186 HD
ENDBRANCH  24  29
ENDBRANCH   4  23
TORSDOF 11
ENDMDL
MODEL 2
REMARK VINA RESULT:      -6.9      1.680      2.520
REMARK  11 active torsions:
REMARK  status: ('A' for Active; 'I' for Inactive)
REMARK    1  A    between atoms: O_1  and  C_18 
REMARK    2  A    between atoms: C_11  and  N_4 
REMARK    3  A    between atoms: N_4  and  C_13 
REMARK       I    between atoms: N_4  and  C_14 
REMARK    4  A    between atoms: C_11  and  C_12 
REMARK    5  A    between atoms: C_11  and  C_18 
REMARK    6  A    between atoms: C_13  and  C_19 
REMARK    7  A    between atoms: C_14  and  C_17 
REMARK    8  A    between atoms: C_17  and  C_20 
REMARK    9  A    between atoms: C_20  and  C_21 
REMARK   10  A    between atoms: C_24  and  C_28 
REMARK   11  A    between atoms: C_29  and  C_33 
ROOT
HETATM    1  C   UNK N   1      22.497  17.669   4.735  0.00  0.00    -0.040 A 
HETATM    2  C   UNK N   1      23.110  16.587   5.372  0.00  0.00     0.010 A 
HETATM    3  C   UNK N   1      23.245  18.530   3.938  0.00  0.00     0.010 A 
HETATM    4  C   UNK N   1      25.215  17.198   4.318  0.00  0.00    -0.025 A 
HETATM    5  C   UNK N   1      24.468  16.349   5.158  0.00  0.00     0.013 A 
HETATM    6  C   UNK N   1      24.597  18.311   3.749  0.00  0.00     0.013 A 
ENDROOT
BRANCH   1   7
HETATM    7  C   UNK N   1      21.056  17.978   4.923  0.00  0.00     0.165 C 
BRANCH   7   8
HETATM    8  N   UNK N   1      20.209  16.901   4.442  0.00  0.00    -0.333 N 
HETATM    9  C   UNK N   1      19.579  16.056   5.330  0.00  0.00     0.220 C 
HETATM   10  O   UNK N   1      18.862  15.158   4.913  0.00  0.00    -0.273 OA
BRANCH   8  11
HETATM   11  C   UNK N   1      19.902  16.813   3.010  0.00  0.00     0.188 C 
BRANCH  11  12
HETATM   12  C   UNK N   1      21.031  16.133   2.185  0.00  0.00     0.011 C 
HETATM   13  C   UNK N   1      20.645  15.830   0.746  0.00  0.00     0.012 C 
HETATM   14  C   UNK N   1      21.460  14.826   2.826  0.00  0.00     0.012 C 
ENDBRANCH  11  12
BRANCH  11  15
HETATM   15  C   UNK N   1      19.612  18.209   2.483  0.00  0.00     0.164 C 
HETATM   16  O   UNK N   1      20.511  18.901   2.027  0.00  0.00    -0.648 OA
BRANCH  15  17
HETATM   17  O   UNK N   1      18.364  18.707   2.536  0.00  0.00    -0.775 OA
HETATM   18  H   UNK N   1      18.148  19.616   2.618  0.00  0.00     0.167 HD
ENDBRANCH  15  17
ENDBRANCH  11  15
ENDBRANCH   8  11
BRANCH   9  19
HETATM   19  C   UNK N   1      19.730  16.240   6.824  0.00  0.00     0.103 C 
BRANCH  19  20
HETATM   20  C   UNK N   1      20.562  15.172   7.508  0.00  0.00     0.009 C 
BRANCH  20  21
HETATM   21  C   UNK N   1      20.573  15.422   9.003  0.00  0.00    -0.004 C 
HETATM   22  C   UNK N   1      20.548  14.097   9.732  0.00  0.00     0.005 C 
ENDBRANCH  20  21
ENDBRANCH  19  20
ENDBRANCH   9  19
ENDBRANCH   7   8
ENDBRANCH   1   7
BRANCH   4  23
HETATM   23  C   UNK N   1      26.621  16.926   3.956  0.00  0.00    -0.012 A 
HETATM   24  C   UNK N   1      27.726  17.601   4.551  0.00  0.00     0.021 A 
HETATM   25  C   UNK N   1      29.023  17.275   4.130  0.00  0.00     0.016 A 
HETATM   26  C   UNK N   1      29.239  16.285   3.167  0.00  0.00     0.001 A 
HETATM   27  C   UNK N   1      28.161  15.603   2.611  0.00  0.00     0.001 A 
HETATM   28  C   UNK N   1      26.864  15.922   3.003  0.00  0.00     0.013 A 
BRANCH  24  29
HETATM   29  C   UNK N   1      27.591  18.556   5.682  0.00  0.00     0.145 A 
HETATM   30  N   UNK N   1      27.508  18.220   6.984  0.00  0.00    -0.271 N 
HETATM   31  N   UNK N   1      27.444  19.357   7.649  0.00  0.00    -0.225 N 
ATOM     32  HN  UNK N   1      27.497  17.279   7.377  1.00  0.00     0.190 HD
HETATM   33  N   UNK N   1      27.502  20.367   6.792  0.00  0.00    -0.005 NA
HETATM   34  H   UNK N   1      27.365  19.443   8.626  0.00  0.00     0.205 HD
HETATM   35  N   UNK N   1      27.610  19.894   5.562  0.00  0.00    -0.266 N 
ATOM     36  HN  UNK N   1      27.693  20.433   4.699  1.00  0.00     0.186 HD
ENDBRANCH  24  29
ENDBRANCH   4  23
TORSDOF 11
ENDMDL
MODEL 3
REMARK VINA RESULT:      -6.7     14.877     17.279
REMARK  11 active torsions:
REMARK  status: ('A' for Active; 'I' for Inactive)
REMARK    1  A    between atoms: O_1  and  C_18 
REMARK    2  A    between atoms: C_11  and  N_4 
REMARK    3  A    between atoms: N_4  and  C_13 
REMARK       I    between atoms: N_4  and  C_14 
REMARK    4  A    between atoms: C_11  and  C_12 
REMARK    5  A    between atoms: C_11  and  C_18 
REMARK    6  A    between atoms: C_13  and  C_19 
REMARK    7  A    between atoms: C_14  and  C_17 
REMARK    8  A    between atoms: C_17  and  C_20 
REMARK    9  A    between atoms: C_20  and  C_21 
REMARK   10  A    between atoms: C_24  and  C_28 
REMARK   11  A    between atoms: C_29  and  C_33 
ROOT
HETATM    1  C   UNK N   1      29.368  25.708  -4.687  0.00  0.00    -0.040 A 
HETATM    2  C   UNK N   1      28.808  24.640  -3.980  0.00  0.00     0.010 A 
HETATM    3  C   UNK N   1      29.952  25.497  -5.932  0.00  0.00     0.010 A 
HETATM    4  C   UNK N   1      29.348  23.167  -5.840  0.00  0.00    -0.025 A 
HETATM    5  C   UNK N   1      28.793  23.371  -4.561  0.00  0.00     0.013 A 
HETATM    6  C   UNK N   1      29.962  24.234  -6.495  0.00  0.00     0.013 A 
ENDROOT
BRANCH   1   7
HETATM    7  C   UNK N   1      29.417  27.081  -4.124  0.00  0.00     0.165 C 
BRANCH   7   8
HETATM    8  N   UNK N   1      28.284  27.880  -4.558  0.00  0.00    -0.333 N 
HETATM    9  C   UNK N   1      28.479  29.123  -5.121  0.00  0.00     0.220 C 
HETATM   10  O   UNK N   1      27.517  29.783  -5.489  0.00  0.00    -0.273 OA
BRANCH   8  11
HETATM   11  C   UNK N   1      26.939  27.293  -4.535  0.00  0.00     0.188 C 
BRANCH  11  12
HETATM   12  C   UNK N   1      26.138  27.551  -5.842  0.00  0.00     0.011 C 
HETATM   13  C   UNK N   1      24.673  27.158  -5.754  0.00  0.00     0.012 C 
HETATM   14  C   UNK N   1      26.744  26.792  -7.009  0.00  0.00     0.012 C 
ENDBRANCH  11  12
BRANCH  11  15
HETATM   15  C   UNK N   1      26.190  27.830  -3.326  0.00  0.00     0.164 C 
HETATM   16  O   UNK N   1      25.934  27.102  -2.379  0.00  0.00    -0.648 OA
BRANCH  15  17
HETATM   17  O   UNK N   1      25.781  29.112  -3.297  0.00  0.00    -0.775 OA
HETATM   18  H   UNK N   1      24.895  29.398  -3.404  0.00  0.00     0.167 HD
ENDBRANCH  15  17
ENDBRANCH  11  15
ENDBRANCH   8  11
BRANCH   9  19
HETATM   19  C   UNK N   1      29.871  29.677  -5.328  0.00  0.00     0.103 C 
BRANCH  19  20
HETATM   20  C   UNK N   1      30.229  29.954  -6.776  0.00  0.00     0.009 C 
BRANCH  20  21
HETATM   21  C   UNK N   1      30.219  28.654  -7.555  0.00  0.00    -0.004 C 
HETATM   22  C   UNK N   1      29.343  28.810  -8.777  0.00  0.00     0.005 C 
ENDBRANCH  20  21
ENDBRANCH  19  20
ENDBRANCH   9  19
ENDBRANCH   7   8
ENDBRANCH   1   7
BRANCH   4  23
HETATM   23  C   UNK N   1      29.252  21.878  -6.555  0.00  0.00    -0.012 A 
HETATM   24  C   UNK N   1      28.149  21.525  -7.385  0.00  0.00     0.021 A 
HETATM   25  C   UNK N   1      28.150  20.272  -8.013  0.00  0.00     0.016 A 
HETATM   26  C   UNK N   1      29.223  19.390  -7.857  0.00  0.00     0.001 A 
HETATM   27  C   UNK N   1      30.315  19.749  -7.072  0.00  0.00     0.001 A 
HETATM   28  C   UNK N   1      30.327  20.982  -6.427  0.00  0.00     0.013 A 
BRANCH  24  29
HETATM   29  C   UNK N   1      27.044  22.461  -7.721  0.00  0.00     0.145 A 
HETATM   30  N   UNK N   1      26.930  23.160  -8.867  0.00  0.00    -0.271 N 
HETATM   31  N   UNK N   1      25.796  23.825  -8.776  0.00  0.00    -0.225 N 
ATOM     32  HN  UNK N   1      27.588  23.173  -9.646  1.00  0.00     0.190 HD
HETATM   33  N   UNK N   1      25.213  23.537  -7.620  0.00  0.00    -0.005 NA
HETATM   34  H   UNK N   1      25.437  24.438  -9.457  0.00  0.00     0.205 HD
HETATM   35  N   UNK N   1      25.963  22.677  -6.953  0.00  0.00    -0.266 N 
ATOM     36  HN  UNK N   1      25.762  22.261  -6.042  1.00  0.00     0.186 HD
ENDBRANCH  24  29
ENDBRANCH   4  23
TORSDOF 11
ENDMDL
MODEL 4
REMARK VINA RESULT:      -6.7      3.423      6.630
REMARK  11 active torsions:
REMARK  status: ('A' for Active; 'I' for Inactive)
REMARK    1  A    between atoms: O_1  and  C_18 
REMARK    2  A    between atoms: C_11  and  N_4 
REMARK    3  A    between atoms: N_4  and  C_13 
REMARK       I    between atoms: N_4  and  C_14 
REMARK    4  A    between atoms: C_11  and  C_12 
REMARK    5  A    between atoms: C_11  and  C_18 
REMARK    6  A    between atoms: C_13  and  C_19 
REMARK    7  A    between atoms: C_14  and  C_17 
REMARK    8  A    between atoms: C_17  and  C_20 
REMARK    9  A    between atoms: C_20  and  C_21 
REMARK   10  A    between atoms: C_24  and  C_28 
REMARK   11  A    between atoms: C_29  and  C_33 
ROOT
HETATM    1  C   UNK N   1      20.308  15.488   5.854  0.00  0.00    -0.040 A 
HETATM    2  C   UNK N   1      20.370  14.099   5.713  0.00  0.00     0.010 A 
HETATM    3  C   UNK N   1      20.662  16.088   7.059  0.00  0.00     0.010 A 
HETATM    4  C   UNK N   1      21.238  13.939   7.981  0.00  0.00    -0.025 A 
HETATM    5  C   UNK N   1      20.841  13.326   6.776  0.00  0.00     0.013 A 
HETATM    6  C   UNK N   1      21.102  15.319   8.121  0.00  0.00     0.013 A 
ENDROOT
BRANCH   1   7
HETATM    7  C   UNK N   1      19.815  16.366   4.763  0.00  0.00     0.165 C 
BRANCH   7   8
HETATM    8  N   UNK N   1      20.783  16.482   3.687  0.00  0.00    -0.333 N 
HETATM    9  C   UNK N   1      20.688  15.682   2.570  0.00  0.00     0.220 C 
HETATM   10  O   UNK N   1      21.505  15.794   1.667  0.00  0.00    -0.273 OA
BRANCH   8  11
HETATM   11  C   UNK N   1      21.775  17.564   3.726  0.00  0.00     0.188 C 
BRANCH  11  12
HETATM   12  C   UNK N   1      22.935  17.293   4.725  0.00  0.00     0.011 C 
HETATM   13  C   UNK N   1      24.081  18.286   4.622  0.00  0.00     0.012 C 
HETATM   14  C   UNK N   1      23.514  15.905   4.522  0.00  0.00     0.012 C 
ENDBRANCH  11  12
BRANCH  11  15
HETATM   15  C   UNK N   1      21.066  18.867   4.058  0.00  0.00     0.164 C 
HETATM   16  O   UNK N   1      20.470  19.489   3.192  0.00  0.00    -0.648 OA
BRANCH  15  17
HETATM   17  O   UNK N   1      21.108  19.360   5.309  0.00  0.00    -0.775 OA
HETATM   18  H   UNK N   1      20.430  19.867   5.712  0.00  0.00     0.167 HD
ENDBRANCH  15  17
ENDBRANCH  11  15
ENDBRANCH   8  11
BRANCH   9  19
HETATM   19  C   UNK N   1      19.562  14.682   2.420  0.00  0.00     0.103 C 
BRANCH  19  20
HETATM   20  C   UNK N   1      19.948  13.403   1.701  0.00  0.00     0.009 C 
BRANCH  20  21
HETATM   21  C   UNK N   1      18.952  13.126   0.594  0.00  0.00    -0.004 C 
HETATM   22  C   UNK N   1      18.384  14.434   0.091  0.00  0.00     0.005 C 
ENDBRANCH  20  21
ENDBRANCH  19  20
ENDBRANCH   9  19
ENDBRANCH   7   8
ENDBRANCH   1   7
BRANCH   4  23
HETATM   23  C   UNK N   1      21.858  13.188   9.091  0.00  0.00    -0.012 A 
HETATM   24  C   UNK N   1      23.198  12.704   9.055  0.00  0.00     0.021 A 
HETATM   25  C   UNK N   1      23.689  11.993  10.159  0.00  0.00     0.016 A 
HETATM   26  C   UNK N   1      22.896  11.784  11.291  0.00  0.00     0.001 A 
HETATM   27  C   UNK N   1      21.599  12.286  11.338  0.00  0.00     0.001 A 
HETATM   28  C   UNK N   1      21.086  12.980  10.247  0.00  0.00     0.013 A 
BRANCH  24  29
HETATM   29  C   UNK N   1      24.151  13.011   7.957  0.00  0.00     0.145 A 
HETATM   30  N   UNK N   1      24.991  14.064   7.919  0.00  0.00    -0.271 N 
HETATM   31  N   UNK N   1      25.682  13.938   6.804  0.00  0.00    -0.225 N 
ATOM     32  HN  UNK N   1      25.075  14.808   8.612  1.00  0.00     0.190 HD
HETATM   33  N   UNK N   1      25.299  12.835   6.176  0.00  0.00    -0.005 NA
HETATM   34  H   UNK N   1      26.373  14.563   6.488  0.00  0.00     0.205 HD
HETATM   35  N   UNK N   1      24.358  12.231   6.882  0.00  0.00    -0.266 N 
ATOM     36  HN  UNK N   1      23.887  11.354   6.658  1.00  0.00     0.186 HD
ENDBRANCH  24  29
ENDBRANCH   4  23
TORSDOF 11
ENDMDL
MODEL 5
REMARK VINA RESULT:      -6.6      7.393      9.955
REMARK  11 active torsions:
REMARK  status: ('A' for Active; 'I' for Inactive)
REMARK    1  A    between atoms: O_1  and  C_18 
REMARK    2  A    between atoms: C_11  and  N_4 
REMARK    3  A    between atoms: N_4  and  C_13 
REMARK       I    between atoms: N_4  and  C_14 
REMARK    4  A    between atoms: C_11  and  C_12 
REMARK    5  A    between atoms: C_11  and  C_18 
REMARK    6  A    between atoms: C_13  and  C_19 
REMARK    7  A    between atoms: C_14  and  C_17 
REMARK    8  A    between atoms: C_17  and  C_20 
REMARK    9  A    between atoms: C_20  and  C_21 
REMARK   10  A    between atoms: C_24  and  C_28 
REMARK   11  A    between atoms: C_29  and  C_33 
ROOT
HETATM    1  C   UNK N   1      31.198  15.133   5.563  0.00  0.00    -0.040 A 
HETATM    2  C   UNK N   1      29.823  14.894   5.650  0.00  0.00     0.010 A 
HETATM    3  C   UNK N   1      31.677  16.431   5.417  0.00  0.00     0.010 A 
HETATM    4  C   UNK N   1      29.431  17.293   5.537  0.00  0.00    -0.025 A 
HETATM    5  C   UNK N   1      28.941  15.976   5.644  0.00  0.00     0.013 A 
HETATM    6  C   UNK N   1      30.800  17.500   5.382  0.00  0.00     0.013 A 
ENDROOT
BRANCH   1   7
HETATM    7  C   UNK N   1      32.188  14.026   5.562  0.00  0.00     0.165 C 
BRANCH   7   8
HETATM    8  N   UNK N   1      33.551  14.525   5.604  0.00  0.00    -0.333 N 
HETATM    9  C   UNK N   1      34.094  14.978   6.786  0.00  0.00     0.220 C 
HETATM   10  O   UNK N   1      35.246  15.388   6.811  0.00  0.00    -0.273 OA
BRANCH   8  11
HETATM   11  C   UNK N   1      34.400  14.401   4.413  0.00  0.00     0.188 C 
BRANCH  11  12
HETATM   12  C   UNK N   1      33.602  14.501   3.082  0.00  0.00     0.011 C 
HETATM   13  C   UNK N   1      34.251  13.770   1.918  0.00  0.00     0.012 C 
HETATM   14  C   UNK N   1      33.419  15.949   2.665  0.00  0.00     0.012 C 
ENDBRANCH  11  12
BRANCH  11  15
HETATM   15  C   UNK N   1      35.164  13.089   4.489  0.00  0.00     0.164 C 
HETATM   16  O   UNK N   1      36.385  13.078   4.449  0.00  0.00    -0.648 OA
BRANCH  15  17
HETATM   17  O   UNK N   1      34.499  11.923   4.580  0.00  0.00    -0.775 OA
HETATM   18  H   UNK N   1      33.658  11.751   4.205  0.00  0.00     0.167 HD
ENDBRANCH  15  17
ENDBRANCH  11  15
ENDBRANCH   8  11
BRANCH   9  19
HETATM   19  C   UNK N   1      33.301  14.943   8.074  0.00  0.00     0.103 C 
BRANCH  19  20
HETATM   20  C   UNK N   1      33.625  16.065   9.043  0.00  0.00     0.009 C 
BRANCH  20  21
HETATM   21  C   UNK N   1      32.859  17.311   8.645  0.00  0.00    -0.004 C 
HETATM   22  C   UNK N   1      33.818  18.321   8.055  0.00  0.00     0.005 C 
ENDBRANCH  20  21
ENDBRANCH  19  20
ENDBRANCH   9  19
ENDBRANCH   7   8
ENDBRANCH   1   7
BRANCH   4  23
HETATM   23  C   UNK N   1      28.558  18.479   5.649  0.00  0.00    -0.012 A 
HETATM   24  C   UNK N   1      28.076  18.980   6.892  0.00  0.00     0.021 A 
HETATM   25  C   UNK N   1      27.244  20.109   6.888  0.00  0.00     0.016 A 
HETATM   26  C   UNK N   1      26.914  20.755   5.694  0.00  0.00     0.001 A 
HETATM   27  C   UNK N   1      27.413  20.285   4.483  0.00  0.00     0.001 A 
HETATM   28  C   UNK N   1      28.227  19.156   4.462  0.00  0.00     0.013 A 
BRANCH  24  29
HETATM   29  C   UNK N   1      28.499  18.443   8.212  0.00  0.00     0.145 A 
HETATM   30  N   UNK N   1      29.614  18.796   8.881  0.00  0.00    -0.271 N 
HETATM   31  N   UNK N   1      29.585  18.124  10.014  0.00  0.00    -0.225 N 
ATOM     32  HN  UNK N   1      30.333  19.450   8.573  1.00  0.00     0.190 HD
HETATM   33  N   UNK N   1      28.482  17.390  10.059  0.00  0.00    -0.005 NA
HETATM   34  H   UNK N   1      30.274  18.160  10.717  0.00  0.00     0.205 HD
HETATM   35  N   UNK N   1      27.780  17.584   8.955  0.00  0.00    -0.266 N 
ATOM     36  HN  UNK N   1      26.879  17.168   8.717  1.00  0.00     0.186 HD
ENDBRANCH  24  29
ENDBRANCH   4  23
TORSDOF 11
ENDMDL
MODEL 6
REMARK VINA RESULT:      -6.6     14.423     16.565
REMARK  11 active torsions:
REMARK  status: ('A' for Active; 'I' for Inactive)
REMARK    1  A    between atoms: O_1  and  C_18 
REMARK    2  A    between atoms: C_11  and  N_4 
REMARK    3  A    between atoms: N_4  and  C_13 
REMARK       I    between atoms: N_4  and  C_14 
REMARK    4  A    between atoms: C_11  and  C_12 
REMARK    5  A    between atoms: C_11  and  C_18 
REMARK    6  A    between atoms: C_13  and  C_19 
REMARK    7  A    between atoms: C_14  and  C_17 
REMARK    8  A    between atoms: C_17  and  C_20 
REMARK    9  A    between atoms: C_20  and  C_21 
REMARK   10  A    between atoms: C_24  and  C_28 
REMARK   11  A    between atoms: C_29  and  C_33 
ROOT
HETATM    1  C   UNK N   1      27.920  25.766  -4.342  0.00  0.00    -0.040 A 
HETATM    2  C   UNK N   1      29.152  25.693  -4.998  0.00  0.00     0.010 A 
HETATM    3  C   UNK N   1      27.019  24.708  -4.419  0.00  0.00     0.010 A 
HETATM    4  C   UNK N   1      28.594  23.439  -5.727  0.00  0.00    -0.025 A 
HETATM    5  C   UNK N   1      29.490  24.526  -5.685  0.00  0.00     0.013 A 
HETATM    6  C   UNK N   1      27.343  23.563  -5.123  0.00  0.00     0.013 A 
ENDROOT
BRANCH   1   7
HETATM    7  C   UNK N   1      27.500  26.980  -3.596  0.00  0.00     0.165 C 
BRANCH   7   8
HETATM    8  N   UNK N   1      27.937  28.196  -4.259  0.00  0.00    -0.333 N 
HETATM    9  C   UNK N   1      27.425  28.545  -5.489  0.00  0.00     0.220 C 
HETATM   10  O   UNK N   1      27.795  29.576  -6.034  0.00  0.00    -0.273 OA
BRANCH   8  11
HETATM   11  C   UNK N   1      28.813  29.130  -3.542  0.00  0.00     0.188 C 
BRANCH  11  12
HETATM   12  C   UNK N   1      30.066  28.444  -2.929  0.00  0.00     0.011 C 
HETATM   13  C   UNK N   1      30.767  29.277  -1.868  0.00  0.00     0.012 C 
HETATM   14  C   UNK N   1      31.089  28.121  -4.003  0.00  0.00     0.012 C 
ENDBRANCH  11  12
BRANCH  11  15
HETATM   15  C   UNK N   1      28.002  29.836  -2.468  0.00  0.00     0.164 C 
HETATM   16  O   UNK N   1      27.532  30.946  -2.672  0.00  0.00    -0.648 OA
BRANCH  15  17
HETATM   17  O   UNK N   1      27.812  29.253  -1.270  0.00  0.00    -0.775 OA
HETATM   18  H   UNK N   1      27.028  29.311  -0.760  0.00  0.00     0.167 HD
ENDBRANCH  15  17
ENDBRANCH  11  15
ENDBRANCH   8  11
BRANCH   9  19
HETATM   19  C   UNK N   1      26.377  27.692  -6.170  0.00  0.00     0.103 C 
BRANCH  19  20
HETATM   20  C   UNK N   1      26.838  27.041  -7.461  0.00  0.00     0.009 C 
BRANCH  20  21
HETATM   21  C   UNK N   1      25.934  25.869  -7.785  0.00  0.00    -0.004 C 
HETATM   22  C   UNK N   1      26.689  24.874  -8.638  0.00  0.00     0.005 C 
ENDBRANCH  20  21
ENDBRANCH  19  20
ENDBRANCH   9  19
ENDBRANCH   7   8
ENDBRANCH   1   7
BRANCH   4  23
HETATM   23  C   UNK N   1      28.945  22.139  -6.331  0.00  0.00    -0.012 A 
HETATM   24  C   UNK N   1      30.001  21.312  -5.848  0.00  0.00     0.021 A 
HETATM   25  C   UNK N   1      30.260  20.098  -6.500  0.00  0.00     0.016 A 
HETATM   26  C   UNK N   1      29.483  19.683  -7.584  0.00  0.00     0.001 A 
HETATM   27  C   UNK N   1      28.431  20.475  -8.034  0.00  0.00     0.001 A 
HETATM   28  C   UNK N   1      28.166  21.692  -7.413  0.00  0.00     0.013 A 
BRANCH  24  29
HETATM   29  C   UNK N   1      30.774  21.608  -4.614  0.00  0.00     0.145 A 
HETATM   30  N   UNK N   1      32.020  22.121  -4.574  0.00  0.00    -0.271 N 
HETATM   31  N   UNK N   1      32.312  22.266  -3.296  0.00  0.00    -0.225 N 
ATOM     32  HN  UNK N   1      32.615  22.350  -5.369  1.00  0.00     0.190 HD
HETATM   33  N   UNK N   1      31.277  21.873  -2.565  0.00  0.00    -0.005 NA
HETATM   34  H   UNK N   1      33.162  22.610  -2.941  0.00  0.00     0.205 HD
HETATM   35  N   UNK N   1      30.301  21.475  -3.363  0.00  0.00    -0.266 N 
ATOM     36  HN  UNK N   1      29.378  21.137  -3.087  1.00  0.00     0.186 HD
ENDBRANCH  24  29
ENDBRANCH   4  23
TORSDOF 11
ENDMDL
MODEL 7
REMARK VINA RESULT:      -6.5      9.328     12.644
REMARK  11 active torsions:
REMARK  status: ('A' for Active; 'I' for Inactive)
REMARK    1  A    between atoms: O_1  and  C_18 
REMARK    2  A    between atoms: C_11  and  N_4 
REMARK    3  A    between atoms: N_4  and  C_13 
REMARK       I    between atoms: N_4  and  C_14 
REMARK    4  A    between atoms: C_11  and  C_12 
REMARK    5  A    between atoms: C_11  and  C_18 
REMARK    6  A    between atoms: C_13  and  C_19 
REMARK    7  A    between atoms: C_14  and  C_17 
REMARK    8  A    between atoms: C_17  and  C_20 
REMARK    9  A    between atoms: C_20  and  C_21 
REMARK   10  A    between atoms: C_24  and  C_28 
REMARK   11  A    between atoms: C_29  and  C_33 
ROOT
HETATM    1  C   UNK N   1      34.364  16.020   9.894  0.00  0.00    -0.040 A 
HETATM    2  C   UNK N   1      33.680  14.852  10.244  0.00  0.00     0.010 A 
HETATM    3  C   UNK N   1      35.517  16.390  10.579  0.00  0.00     0.010 A 
HETATM    4  C   UNK N   1      35.388  14.391  11.915  0.00  0.00    -0.025 A 
HETATM    5  C   UNK N   1      34.197  14.035  11.250  0.00  0.00     0.013 A 
HETATM    6  C   UNK N   1      36.013  15.595  11.596  0.00  0.00     0.013 A 
ENDROOT
BRANCH   1   7
HETATM    7  C   UNK N   1      33.866  16.933   8.834  0.00  0.00     0.165 C 
BRANCH   7   8
HETATM    8  N   UNK N   1      33.039  16.232   7.866  0.00  0.00    -0.333 N 
HETATM    9  C   UNK N   1      31.667  16.229   7.990  0.00  0.00     0.220 C 
HETATM   10  O   UNK N   1      30.981  15.642   7.165  0.00  0.00    -0.273 OA
BRANCH   8  11
HETATM   11  C   UNK N   1      33.664  15.657   6.669  0.00  0.00     0.188 C 
BRANCH  11  12
HETATM   12  C   UNK N   1      35.019  14.954   6.966  0.00  0.00     0.011 C 
HETATM   13  C   UNK N   1      35.985  14.958   5.792  0.00  0.00     0.012 C 
HETATM   14  C   UNK N   1      34.803  13.508   7.373  0.00  0.00     0.012 C 
ENDBRANCH  11  12
BRANCH  11  15
HETATM   15  C   UNK N   1      33.839  16.754   5.632  0.00  0.00     0.164 C 
HETATM   16  O   UNK N   1      34.270  17.852   5.954  0.00  0.00    -0.648 OA
BRANCH  15  17
HETATM   17  O   UNK N   1      33.498  16.534   4.349  0.00  0.00    -0.775 OA
HETATM   18  H   UNK N   1      33.711  15.764   3.859  0.00  0.00     0.167 HD
ENDBRANCH  15  17
ENDBRANCH  11  15
ENDBRANCH   8  11
BRANCH   9  19
HETATM   19  C   UNK N   1      30.983  16.973   9.116  0.00  0.00     0.103 C 
BRANCH  19  20
HETATM   20  C   UNK N   1      30.550  18.384   8.765  0.00  0.00     0.009 C 
BRANCH  20  21
HETATM   21  C   UNK N   1      29.143  18.355   8.202  0.00  0.00    -0.004 C 
HETATM   22  C   UNK N   1      28.191  17.848   9.261  0.00  0.00     0.005 C 
ENDBRANCH  20  21
ENDBRANCH  19  20
ENDBRANCH   9  19
ENDBRANCH   7   8
ENDBRANCH   1   7
BRANCH   4  23
HETATM   23  C   UNK N   1      36.046  13.508  12.899  0.00  0.00    -0.012 A 
HETATM   24  C   UNK N   1      37.090  12.601  12.559  0.00  0.00     0.021 A 
HETATM   25  C   UNK N   1      37.643  11.799  13.567  0.00  0.00     0.016 A 
HETATM   26  C   UNK N   1      37.205  11.902  14.890  0.00  0.00     0.001 A 
HETATM   27  C   UNK N   1      36.208  12.813  15.227  0.00  0.00     0.001 A 
HETATM   28  C   UNK N   1      35.634  13.607  14.239  0.00  0.00     0.013 A 
BRANCH  24  29
HETATM   29  C   UNK N   1      37.714  12.536  11.211  0.00  0.00     0.145 A 
HETATM   30  N   UNK N   1      38.746  13.291  10.788  0.00  0.00    -0.271 N 
HETATM   31  N   UNK N   1      39.012  12.889   9.561  0.00  0.00    -0.225 N 
ATOM     32  HN  UNK N   1      39.225  14.024  11.310  1.00  0.00     0.190 HD
HETATM   33  N   UNK N   1      38.184  11.905   9.236  0.00  0.00    -0.005 NA
HETATM   34  H   UNK N   1      39.713  13.259   8.978  0.00  0.00     0.205 HD
HETATM   35  N   UNK N   1      37.377  11.656  10.253  0.00  0.00    -0.266 N 
ATOM     36  HN  UNK N   1      36.649  10.942  10.301  1.00  0.00     0.186 HD
ENDBRANCH  24  29
ENDBRANCH   4  23
TORSDOF 11
ENDMDL
MODEL 8
REMARK VINA RESULT:      -6.5      3.234      5.107
REMARK  11 active torsions:
REMARK  status: ('A' for Active; 'I' for Inactive)
REMARK    1  A    between atoms: O_1  and  C_18 
REMARK    2  A    between atoms: C_11  and  N_4 
REMARK    3  A    between atoms: N_4  and  C_13 
REMARK       I    between atoms: N_4  and  C_14 
REMARK    4  A    between atoms: C_11  and  C_12 
REMARK    5  A    between atoms: C_11  and  C_18 
REMARK    6  A    between atoms: C_13  and  C_19 
REMARK    7  A    between atoms: C_14  and  C_17 
REMARK    8  A    between atoms: C_17  and  C_20 
REMARK    9  A    between atoms: C_20  and  C_21 
REMARK   10  A    between atoms: C_24  and  C_28 
REMARK   11  A    between atoms: C_29  and  C_33 
ROOT
HETATM    1  C   UNK N   1      22.342  14.563   6.175  0.00  0.00    -0.040 A 
HETATM    2  C   UNK N   1      22.170  15.742   6.905  0.00  0.00     0.010 A 
HETATM    3  C   UNK N   1      22.313  14.588   4.784  0.00  0.00     0.010 A 
HETATM    4  C   UNK N   1      22.035  16.980   4.815  0.00  0.00    -0.025 A 
HETATM    5  C   UNK N   1      22.023  16.951   6.223  0.00  0.00     0.013 A 
HETATM    6  C   UNK N   1      22.139  15.782   4.109  0.00  0.00     0.013 A 
ENDROOT
BRANCH   1   7
HETATM    7  C   UNK N   1      22.501  13.244   6.840  0.00  0.00     0.165 C 
BRANCH   7   8
HETATM    8  N   UNK N   1      23.782  13.135   7.517  0.00  0.00    -0.333 N 
HETATM    9  C   UNK N   1      23.857  13.216   8.890  0.00  0.00     0.220 C 
HETATM   10  O   UNK N   1      24.940  13.114   9.450  0.00  0.00    -0.273 OA
BRANCH   8  11
HETATM   11  C   UNK N   1      24.977  12.785   6.742  0.00  0.00     0.188 C 
BRANCH  11  12
HETATM   12  C   UNK N   1      25.576  13.991   5.963  0.00  0.00     0.011 C 
HETATM   13  C   UNK N   1      26.911  13.694   5.300  0.00  0.00     0.012 C 
HETATM   14  C   UNK N   1      25.778  15.183   6.880  0.00  0.00     0.012 C 
ENDBRANCH  11  12
BRANCH  11  15
HETATM   15  C   UNK N   1      24.632  11.647   5.795  0.00  0.00     0.164 C 
HETATM   16  O   UNK N   1      24.544  10.500   6.208  0.00  0.00    -0.648 OA
BRANCH  15  17
HETATM   17  O   UNK N   1      24.440  11.890   4.486  0.00  0.00    -0.775 OA
HETATM   18  H   UNK N   1      25.086  11.775   3.816  0.00  0.00     0.167 HD
ENDBRANCH  15  17
ENDBRANCH  11  15
ENDBRANCH   8  11
BRANCH   9  19
HETATM   19  C   UNK N   1      22.611  13.392   9.731  0.00  0.00     0.103 C 
BRANCH  19  20
HETATM   20  C   UNK N   1      21.987  12.094  10.210  0.00  0.00     0.009 C 
BRANCH  20  21
HETATM   21  C   UNK N   1      21.854  12.126  11.719  0.00  0.00    -0.004 C 
HETATM   22  C   UNK N   1      23.213  11.908  12.346  0.00  0.00     0.005 C 
ENDBRANCH  20  21
ENDBRANCH  19  20
ENDBRANCH   9  19
ENDBRANCH   7   8
ENDBRANCH   1   7
BRANCH   4  23
HETATM   23  C   UNK N   1      22.008  18.238   4.043  0.00  0.00    -0.012 A 
HETATM   24  C   UNK N   1      23.166  19.031   3.799  0.00  0.00     0.021 A 
HETATM   25  C   UNK N   1      23.031  20.215   3.061  0.00  0.00     0.016 A 
HETATM   26  C   UNK N   1      21.792  20.604   2.544  0.00  0.00     0.001 A 
HETATM   27  C   UNK N   1      20.668  19.811   2.755  0.00  0.00     0.001 A 
HETATM   28  C   UNK N   1      20.776  18.640   3.498  0.00  0.00     0.013 A 
BRANCH  24  29
HETATM   29  C   UNK N   1      24.540  18.614   4.184  0.00  0.00     0.145 A 
HETATM   30  N   UNK N   1      25.361  17.843   3.445  0.00  0.00    -0.271 N 
HETATM   31  N   UNK N   1      26.486  17.753   4.126  0.00  0.00    -0.225 N 
ATOM     32  HN  UNK N   1      25.154  17.414   2.543  1.00  0.00     0.190 HD
HETATM   33  N   UNK N   1      26.377  18.460   5.243  0.00  0.00    -0.005 NA
HETATM   34  H   UNK N   1      27.281  17.244   3.850  0.00  0.00     0.205 HD
HETATM   35  N   UNK N   1      25.180  19.019   5.294  0.00  0.00    -0.266 N 
ATOM     36  HN  UNK N   1      24.817  19.632   6.025  1.00  0.00     0.186 HD
ENDBRANCH  24  29
ENDBRANCH   4  23
TORSDOF 11
ENDMDL
MODEL 9
REMARK VINA RESULT:      -6.5      3.087      7.099
REMARK  11 active torsions:
REMARK  status: ('A' for Active; 'I' for Inactive)
REMARK    1  A    between atoms: O_1  and  C_18 
REMARK    2  A    between atoms: C_11  and  N_4 
REMARK    3  A    between atoms: N_4  and  C_13 
REMARK       I    between atoms: N_4  and  C_14 
REMARK    4  A    between atoms: C_11  and  C_12 
REMARK    5  A    between atoms: C_11  and  C_18 
REMARK    6  A    between atoms: C_13  and  C_19 
REMARK    7  A    between atoms: C_14  and  C_17 
REMARK    8  A    between atoms: C_17  and  C_20 
REMARK    9  A    between atoms: C_20  and  C_21 
REMARK   10  A    between atoms: C_24  and  C_28 
REMARK   11  A    between atoms: C_29  and  C_33 
ROOT
HETATM    1  C   UNK N   1      25.813  14.226   5.731  0.00  0.00    -0.040 A 
HETATM    2  C   UNK N   1      25.938  15.054   6.851  0.00  0.00     0.010 A 
HETATM    3  C   UNK N   1      25.201  12.981   5.844  0.00  0.00     0.010 A 
HETATM    4  C   UNK N   1      24.739  13.399   8.170  0.00  0.00    -0.025 A 
HETATM    5  C   UNK N   1      25.395  14.641   8.068  0.00  0.00     0.013 A 
HETATM    6  C   UNK N   1      24.688  12.561   7.057  0.00  0.00     0.013 A 
ENDROOT
BRANCH   1   7
HETATM    7  C   UNK N   1      26.371  14.605   4.408  0.00  0.00     0.165 C 
BRANCH   7   8
HETATM    8  N   UNK N   1      25.749  15.810   3.889  0.00  0.00    -0.333 N 
HETATM    9  C   UNK N   1      26.435  17.005   3.885  0.00  0.00     0.220 C 
HETATM   10  O   UNK N   1      25.904  18.012   3.437  0.00  0.00    -0.273 OA
BRANCH   8  11
HETATM   11  C   UNK N   1      24.444  15.717   3.226  0.00  0.00     0.188 C 
BRANCH  11  12
HETATM   12  C   UNK N   1      23.265  15.531   4.222  0.00  0.00     0.011 C 
HETATM   13  C   UNK N   1      21.905  15.417   3.553  0.00  0.00     0.012 C 
HETATM   14  C   UNK N   1      23.194  16.687   5.203  0.00  0.00     0.012 C 
ENDBRANCH  11  12
BRANCH  11  15
HETATM   15  C   UNK N   1      24.486  14.580   2.217  0.00  0.00     0.164 C 
HETATM   16  O   UNK N   1      24.836  14.784   1.064  0.00  0.00    -0.648 OA
BRANCH  15  17
HETATM   17  O   UNK N   1      24.114  13.339   2.581  0.00  0.00    -0.775 OA
HETATM   18  H   UNK N   1      24.693  12.608   2.672  0.00  0.00     0.167 HD
ENDBRANCH  15  17
ENDBRANCH  11  15
ENDBRANCH   8  11
BRANCH   9  19
HETATM   19  C   UNK N   1      27.857  17.092   4.394  0.00  0.00     0.103 C 
BRANCH  19  20
HETATM   20  C   UNK N   1      28.254  18.457   4.923  0.00  0.00     0.009 C 
BRANCH  20  21
HETATM   21  C   UNK N   1      27.828  18.581   6.371  0.00  0.00    -0.004 C 
HETATM   22  C   UNK N   1      28.627  17.611   7.213  0.00  0.00     0.005 C 
ENDBRANCH  20  21
ENDBRANCH  19  20
ENDBRANCH   9  19
ENDBRANCH   7   8
ENDBRANCH   1   7
BRANCH   4  23
HETATM   23  C   UNK N   1      24.039  12.965   9.396  0.00  0.00    -0.012 A 
HETATM   24  C   UNK N   1      22.631  13.083   9.576  0.00  0.00     0.021 A 
HETATM   25  C   UNK N   1      22.065  12.650  10.783  0.00  0.00     0.016 A 
HETATM   26  C   UNK N   1      22.856  12.083  11.786  0.00  0.00     0.001 A 
HETATM   27  C   UNK N   1      24.227  11.937  11.596  0.00  0.00     0.001 A 
HETATM   28  C   UNK N   1      24.812  12.375  10.412  0.00  0.00     0.013 A 
BRANCH  24  29
HETATM   29  C   UNK N   1      21.703  13.535   8.506  0.00  0.00     0.145 A 
HETATM   30  N   UNK N   1      21.428  14.817   8.197  0.00  0.00    -0.271 N 
HETATM   31  N   UNK N   1      20.601  14.774   7.172  0.00  0.00    -0.225 N 
ATOM     32  HN  UNK N   1      21.786  15.651   8.662  1.00  0.00     0.190 HD
HETATM   33  N   UNK N   1      20.381  13.509   6.841  0.00  0.00    -0.005 NA
HETATM   34  H   UNK N   1      20.208  15.557   6.722  0.00  0.00     0.205 HD
HETATM   35  N   UNK N   1      21.070  12.719   7.646  0.00  0.00    -0.266 N 
ATOM     36  HN  UNK N   1      21.112  11.699   7.621  1.00  0.00     0.186 HD
ENDBRANCH  24  29
ENDBRANCH   4  23
TORSDOF 11
ENDMDL
