REMARK  5 active torsions:
REMARK  status: ('A' for Active; 'I' for Inactive)
REMARK    1  A    between atoms: C_5  and  O_1 
REMARK    2  A    between atoms: O_2  and  C_16 
REMARK    3  A    between atoms: N_3  and  C_10 
REMARK    4  A    between atoms: C_4  and  C_10 
REMARK    5  A    between atoms: C_5  and  C_11 
ROOT
HETATM    1  C   UNK N   1       3.428  -1.163   0.247  0.00  0.00     0.053 C 
HETATM    2  C   UNK N   1       4.851  -0.743  -0.225  0.00  0.00     0.090 C 
HETATM    3  C   UNK N   1       3.218  -2.672   0.066  0.00  0.00     0.010 C 
HETATM    4  C   UNK N   1       5.880  -1.594   0.539  0.00  0.00     0.043 C 
HETATM    5  C   UNK N   1       4.267  -3.464   0.832  0.00  0.00     0.001 C 
HETATM    6  C   UNK N   1       5.655  -3.088   0.338  0.00  0.00     0.003 C 
ENDROOT
BRANCH   2   7
HETATM    7  O   UNK N   1       4.979  -0.994  -1.597  0.00  0.00    -0.385 OA
HETATM    8  H   UNK N   1       4.872  -1.158  -2.547  0.00  0.00     0.211 HD
ENDBRANCH   2   7
BRANCH   2   9
HETATM    9  C   UNK N   1       5.202   0.715   0.033  0.00  0.00    -0.021 A 
HETATM   10  C   UNK N   1       6.494   1.170  -0.285  0.00  0.00     0.047 A 
HETATM   11  C   UNK N   1       6.878   2.488  -0.031  0.00  0.00     0.068 A 
HETATM   12  C   UNK N   1       5.949   3.379   0.531  0.00  0.00     0.037 A 
HETATM   13  C   UNK N   1       4.657   2.944   0.840  0.00  0.00     0.003 A 
HETATM   14  C   UNK N   1       4.288   1.617   0.602  0.00  0.00     0.010 A 
BRANCH  11  15
HETATM   15  O   UNK N   1       8.146   2.868  -0.322  0.00  0.00    -0.356 OA
HETATM   16  C   UNK N   1       8.638   4.126  -0.056  0.00  0.00     0.210 C 
ENDBRANCH  11  15
ENDBRANCH   2   9
BRANCH   1  17
HETATM   17  C   UNK N   1       2.301  -0.413  -0.469  0.00  0.00     0.279 C 
BRANCH  17  18
HETATM   18  N   UNK N   1       1.035  -0.592   0.234  0.00  0.00     0.080 N 
HETATM   19  C   UNK N   1       0.231   0.588  -0.022  0.00  0.00     0.309 C 
HETATM   20  C   UNK N   1       0.330  -1.712  -0.367  0.00  0.00     0.309 C 
ENDBRANCH  17  18
ENDBRANCH   1  17
TORSDOF 5
