MODEL 1
REMARK VINA RESULT:      -5.6      0.000      0.000
REMARK  5 active torsions:
REMARK  status: ('A' for Active; 'I' for Inactive)
REMARK    1  A    between atoms: C_5  and  O_1 
REMARK    2  A    between atoms: O_2  and  C_16 
REMARK    3  A    between atoms: N_3  and  C_10 
REMARK    4  A    between atoms: C_4  and  C_10 
REMARK    5  A    between atoms: C_5  and  C_11 
ROOT
HETATM    1  C   UNK N   1      26.481  25.511  -5.537  0.00  0.00     0.053 C 
HETATM    2  C   UNK N   1      27.067  25.597  -4.097  0.00  0.00     0.090 C 
HETATM    3  C   UNK N   1      25.096  26.169  -5.601  0.00  0.00     0.010 C 
HETATM    4  C   UNK N   1      27.078  27.075  -3.672  0.00  0.00     0.043 C 
HETATM    5  C   UNK N   1      25.163  27.624  -5.160  0.00  0.00     0.001 C 
HETATM    6  C   UNK N   1      25.692  27.704  -3.737  0.00  0.00     0.003 C 
ENDROOT
BRANCH   2   7
HETATM    7  O   UNK N   1      26.250  24.875  -3.219  0.00  0.00    -0.385 OA
HETATM    8  H   UNK N   1      25.841  24.376  -2.494  0.00  0.00     0.211 HD
ENDBRANCH   2   7
BRANCH   2   9
HETATM    9  C   UNK N   1      28.493  25.084  -3.960  0.00  0.00    -0.021 A 
HETATM   10  C   UNK N   1      28.702  23.754  -3.554  0.00  0.00     0.047 A 
HETATM   11  C   UNK N   1      29.991  23.248  -3.375  0.00  0.00     0.068 A 
HETATM   12  C   UNK N   1      31.096  24.077  -3.627  0.00  0.00     0.037 A 
HETATM   13  C   UNK N   1      30.904  25.397  -4.044  0.00  0.00     0.003 A 
HETATM   14  C   UNK N   1      29.610  25.902  -4.200  0.00  0.00     0.010 A 
BRANCH  11  15
HETATM   15  O   UNK N   1      30.138  21.971  -2.947  0.00  0.00    -0.356 OA
HETATM   16  C   UNK N   1      30.763  20.993  -3.688  0.00  0.00     0.210 C 
ENDBRANCH  11  15
ENDBRANCH   2   9
BRANCH   1  17
HETATM   17  C   UNK N   1      26.377  24.079  -6.070  0.00  0.00     0.279 C 
BRANCH  17  18
HETATM   18  N   UNK N   1      27.296  23.877  -7.186  0.00  0.00     0.080 N 
HETATM   19  C   UNK N   1      27.930  22.587  -6.992  0.00  0.00     0.309 C 
HETATM   20  C   UNK N   1      26.518  23.777  -8.410  0.00  0.00     0.309 C 
ENDBRANCH  17  18
ENDBRANCH   1  17
TORSDOF 5
ENDMDL
MODEL 2
REMARK VINA RESULT:      -5.4     18.806     22.244
REMARK  5 active torsions:
REMARK  status: ('A' for Active; 'I' for Inactive)
REMARK    1  A    between atoms: C_5  and  O_1 
REMARK    2  A    between atoms: O_2  and  C_16 
REMARK    3  A    between atoms: N_3  and  C_10 
REMARK    4  A    between atoms: C_4  and  C_10 
REMARK    5  A    between atoms: C_5  and  C_11 
ROOT
HETATM    1  C   UNK N   1      35.697  13.269  10.354  0.00  0.00     0.053 C 
HETATM    2  C   UNK N   1      36.392  12.796  11.665  0.00  0.00     0.090 C 
HETATM    3  C   UNK N   1      36.735  13.733   9.325  0.00  0.00     0.010 C 
HETATM    4  C   UNK N   1      37.412  11.704  11.299  0.00  0.00     0.043 C 
HETATM    5  C   UNK N   1      37.724  12.621   9.008  0.00  0.00     0.001 C 
HETATM    6  C   UNK N   1      38.437  12.191  10.281  0.00  0.00     0.003 C 
ENDROOT
BRANCH   2   7
HETATM    7  O   UNK N   1      37.067  13.875  12.249  0.00  0.00    -0.385 OA
HETATM    8  H   UNK N   1      37.486  14.717  12.489  0.00  0.00     0.211 HD
ENDBRANCH   2   7
BRANCH   2   9
HETATM    9  C   UNK N   1      35.453  12.196  12.702  0.00  0.00    -0.021 A 
HETATM   10  C   UNK N   1      35.206  12.910  13.888  0.00  0.00     0.047 A 
HETATM   11  C   UNK N   1      34.384  12.385  14.887  0.00  0.00     0.068 A 
HETATM   12  C   UNK N   1      33.777  11.134  14.692  0.00  0.00     0.037 A 
HETATM   13  C   UNK N   1      34.004  10.419  13.512  0.00  0.00     0.003 A 
HETATM   14  C   UNK N   1      34.845  10.943  12.526  0.00  0.00     0.010 A 
BRANCH  11  15
HETATM   15  O   UNK N   1      34.206  13.095  16.028  0.00  0.00    -0.356 OA
HETATM   16  C   UNK N   1      35.095  13.074  17.078  0.00  0.00     0.210 C 
ENDBRANCH  11  15
ENDBRANCH   2   9
BRANCH   1  17
HETATM   17  C   UNK N   1      34.677  14.390  10.574  0.00  0.00     0.279 C 
BRANCH  17  18
HETATM   18  N   UNK N   1      35.069  15.594   9.848  0.00  0.00     0.080 N 
HETATM   19  C   UNK N   1      33.907  16.047   9.108  0.00  0.00     0.309 C 
HETATM   20  C   UNK N   1      35.377  16.634  10.815  0.00  0.00     0.309 C 
ENDBRANCH  17  18
ENDBRANCH   1  17
TORSDOF 5
ENDMDL
MODEL 3
REMARK VINA RESULT:      -5.4      1.254      2.053
REMARK  5 active torsions:
REMARK  status: ('A' for Active; 'I' for Inactive)
REMARK    1  A    between atoms: C_5  and  O_1 
REMARK    2  A    between atoms: O_2  and  C_16 
REMARK    3  A    between atoms: N_3  and  C_10 
REMARK    4  A    between atoms: C_4  and  C_10 
REMARK    5  A    between atoms: C_5  and  C_11 
ROOT
HETATM    1  C   UNK N   1      26.717  25.096  -5.603  0.00  0.00     0.053 C 
HETATM    2  C   UNK N   1      27.033  25.198  -4.082  0.00  0.00     0.090 C 
HETATM    3  C   UNK N   1      25.407  25.822  -5.937  0.00  0.00     0.010 C 
HETATM    4  C   UNK N   1      27.049  26.686  -3.694  0.00  0.00     0.043 C 
HETATM    5  C   UNK N   1      25.474  27.284  -5.523  0.00  0.00     0.001 C 
HETATM    6  C   UNK N   1      25.735  27.383  -4.028  0.00  0.00     0.003 C 
ENDROOT
BRANCH   2   7
HETATM    7  O   UNK N   1      26.029  24.547  -3.354  0.00  0.00    -0.385 OA
HETATM    8  H   UNK N   1      25.290  24.276  -2.787  0.00  0.00     0.211 HD
ENDBRANCH   2   7
BRANCH   2   9
HETATM    9  C   UNK N   1      28.378  24.618  -3.671  0.00  0.00    -0.021 A 
HETATM   10  C   UNK N   1      29.554  25.214  -4.161  0.00  0.00     0.047 A 
HETATM   11  C   UNK N   1      30.811  24.696  -3.846  0.00  0.00     0.068 A 
HETATM   12  C   UNK N   1      30.903  23.573  -3.007  0.00  0.00     0.037 A 
HETATM   13  C   UNK N   1      29.743  22.978  -2.502  0.00  0.00     0.003 A 
HETATM   14  C   UNK N   1      28.487  23.491  -2.840  0.00  0.00     0.010 A 
BRANCH  11  15
HETATM   15  O   UNK N   1      31.913  25.285  -4.373  0.00  0.00    -0.356 OA
HETATM   16  C   UNK N   1      32.017  26.641  -4.583  0.00  0.00     0.210 C 
ENDBRANCH  11  15
ENDBRANCH   2   9
BRANCH   1  17
HETATM   17  C   UNK N   1      26.634  23.655  -6.114  0.00  0.00     0.279 C 
BRANCH  17  18
HETATM   18  N   UNK N   1      27.648  23.411  -7.134  0.00  0.00     0.080 N 
HETATM   19  C   UNK N   1      28.558  22.412  -6.604  0.00  0.00     0.309 C 
HETATM   20  C   UNK N   1      27.003  22.811  -8.290  0.00  0.00     0.309 C 
ENDBRANCH  17  18
ENDBRANCH   1  17
TORSDOF 5
ENDMDL
MODEL 4
REMARK VINA RESULT:      -5.3      2.429      5.264
REMARK  5 active torsions:
REMARK  status: ('A' for Active; 'I' for Inactive)
REMARK    1  A    between atoms: C_5  and  O_1 
REMARK    2  A    between atoms: O_2  and  C_16 
REMARK    3  A    between atoms: N_3  and  C_10 
REMARK    4  A    between atoms: C_4  and  C_10 
REMARK    5  A    between atoms: C_5  and  C_11 
ROOT
HETATM    1  C   UNK N   1      27.239  24.485  -5.919  0.00  0.00     0.053 C 
HETATM    2  C   UNK N   1      26.059  25.473  -6.151  0.00  0.00     0.090 C 
HETATM    3  C   UNK N   1      26.968  23.141  -6.607  0.00  0.00     0.010 C 
HETATM    4  C   UNK N   1      25.834  25.604  -7.667  0.00  0.00     0.043 C 
HETATM    5  C   UNK N   1      26.743  23.330  -8.100  0.00  0.00     0.001 C 
HETATM    6  C   UNK N   1      25.560  24.258  -8.327  0.00  0.00     0.003 C 
ENDROOT
BRANCH   2   7
HETATM    7  O   UNK N   1      24.898  24.958  -5.560  0.00  0.00    -0.385 OA
HETATM    8  H   UNK N   1      24.008  24.659  -5.317  0.00  0.00     0.211 HD
ENDBRANCH   2   7
BRANCH   2   9
HETATM    9  C   UNK N   1      26.290  26.878  -5.614  0.00  0.00    -0.021 A 
HETATM   10  C   UNK N   1      27.177  27.730  -6.297  0.00  0.00     0.047 A 
HETATM   11  C   UNK N   1      27.453  29.013  -5.823  0.00  0.00     0.068 A 
HETATM   12  C   UNK N   1      26.817  29.468  -4.657  0.00  0.00     0.037 A 
HETATM   13  C   UNK N   1      25.924  28.637  -3.975  0.00  0.00     0.003 A 
HETATM   14  C   UNK N   1      25.669  27.346  -4.444  0.00  0.00     0.010 A 
BRANCH  11  15
HETATM   15  O   UNK N   1      28.343  29.782  -6.498  0.00  0.00    -0.356 OA
HETATM   16  C   UNK N   1      29.383  29.264  -7.235  0.00  0.00     0.210 C 
ENDBRANCH  11  15
ENDBRANCH   2   9
BRANCH   1  17
HETATM   17  C   UNK N   1      27.544  24.235  -4.439  0.00  0.00     0.279 C 
BRANCH  17  18
HETATM   18  N   UNK N   1      28.984  24.191  -4.209  0.00  0.00     0.080 N 
HETATM   19  C   UNK N   1      29.429  25.557  -4.011  0.00  0.00     0.309 C 
HETATM   20  C   UNK N   1      29.229  23.490  -2.960  0.00  0.00     0.309 C 
ENDBRANCH  17  18
ENDBRANCH   1  17
TORSDOF 5
ENDMDL
MODEL 5
REMARK VINA RESULT:      -5.3     11.286     13.874
REMARK  5 active torsions:
REMARK  status: ('A' for Active; 'I' for Inactive)
REMARK    1  A    between atoms: C_5  and  O_1 
REMARK    2  A    between atoms: O_2  and  C_16 
REMARK    3  A    between atoms: N_3  and  C_10 
REMARK    4  A    between atoms: C_4  and  C_10 
REMARK    5  A    between atoms: C_5  and  C_11 
ROOT
HETATM    1  C   UNK N   1      30.918  17.460   6.694  0.00  0.00     0.053 C 
HETATM    2  C   UNK N   1      30.537  16.993   5.258  0.00  0.00     0.090 C 
HETATM    3  C   UNK N   1      32.347  17.025   7.046  0.00  0.00     0.010 C 
HETATM    4  C   UNK N   1      31.594  17.537   4.281  0.00  0.00     0.043 C 
HETATM    5  C   UNK N   1      33.348  17.581   6.044  0.00  0.00     0.001 C 
HETATM    6  C   UNK N   1      33.003  17.087   4.648  0.00  0.00     0.003 C 
ENDROOT
BRANCH   2   7
HETATM    7  O   UNK N   1      30.545  15.593   5.207  0.00  0.00    -0.385 OA
HETATM    8  H   UNK N   1      30.744  14.646   5.151  0.00  0.00     0.211 HD
ENDBRANCH   2   7
BRANCH   2   9
HETATM    9  C   UNK N   1      29.184  17.486   4.768  0.00  0.00    -0.021 A 
HETATM   10  C   UNK N   1      28.855  18.843   4.930  0.00  0.00     0.047 A 
HETATM   11  C   UNK N   1      27.611  19.337   4.533  0.00  0.00     0.068 A 
HETATM   12  C   UNK N   1      26.682  18.466   3.940  0.00  0.00     0.037 A 
HETATM   13  C   UNK N   1      27.001  17.117   3.760  0.00  0.00     0.003 A 
HETATM   14  C   UNK N   1      28.240  16.627   4.181  0.00  0.00     0.010 A 
BRANCH  11  15
HETATM   15  O   UNK N   1      27.328  20.646   4.744  0.00  0.00    -0.356 OA
HETATM   16  C   UNK N   1      27.156  21.189   5.997  0.00  0.00     0.210 C 
ENDBRANCH  11  15
ENDBRANCH   2   9
BRANCH   1  17
HETATM   17  C   UNK N   1      29.961  16.950   7.776  0.00  0.00     0.279 C 
BRANCH  17  18
HETATM   18  N   UNK N   1      29.208  18.055   8.359  0.00  0.00     0.080 N 
HETATM   19  C   UNK N   1      28.035  17.487   8.995  0.00  0.00     0.309 C 
HETATM   20  C   UNK N   1      30.008  18.648   9.419  0.00  0.00     0.309 C 
ENDBRANCH  17  18
ENDBRANCH   1  17
TORSDOF 5
ENDMDL
MODEL 6
REMARK VINA RESULT:      -5.3      2.415      4.814
REMARK  5 active torsions:
REMARK  status: ('A' for Active; 'I' for Inactive)
REMARK    1  A    between atoms: C_5  and  O_1 
REMARK    2  A    between atoms: O_2  and  C_16 
REMARK    3  A    between atoms: N_3  and  C_10 
REMARK    4  A    between atoms: C_4  and  C_10 
REMARK    5  A    between atoms: C_5  and  C_11 
ROOT
HETATM    1  C   UNK N   1      27.157  25.710  -5.015  0.00  0.00     0.053 C 
HETATM    2  C   UNK N   1      26.646  26.619  -6.170  0.00  0.00     0.090 C 
HETATM    3  C   UNK N   1      27.340  26.520  -3.725  0.00  0.00     0.010 C 
HETATM    4  C   UNK N   1      25.355  27.311  -5.701  0.00  0.00     0.043 C 
HETATM    5  C   UNK N   1      26.037  27.189  -3.313  0.00  0.00     0.001 C 
HETATM    6  C   UNK N   1      25.563  28.114  -4.423  0.00  0.00     0.003 C 
ENDROOT
BRANCH   2   7
HETATM    7  O   UNK N   1      27.610  27.595  -6.455  0.00  0.00    -0.385 OA
HETATM    8  H   UNK N   1      28.124  28.376  -6.713  0.00  0.00     0.211 HD
ENDBRANCH   2   7
BRANCH   2   9
HETATM    9  C   UNK N   1      26.312  25.883  -7.459  0.00  0.00    -0.021 A 
HETATM   10  C   UNK N   1      25.562  24.695  -7.389  0.00  0.00     0.047 A 
HETATM   11  C   UNK N   1      25.263  23.961  -8.538  0.00  0.00     0.068 A 
HETATM   12  C   UNK N   1      25.700  24.431  -9.788  0.00  0.00     0.037 A 
HETATM   13  C   UNK N   1      26.436  25.616  -9.874  0.00  0.00     0.003 A 
HETATM   14  C   UNK N   1      26.749  26.333  -8.716  0.00  0.00     0.010 A 
BRANCH  11  15
HETATM   15  O   UNK N   1      24.568  22.804  -8.414  0.00  0.00    -0.356 OA
HETATM   16  C   UNK N   1      25.079  21.677  -7.811  0.00  0.00     0.210 C 
ENDBRANCH  11  15
ENDBRANCH   2   9
BRANCH   1  17
HETATM   17  C   UNK N   1      28.468  24.987  -5.340  0.00  0.00     0.279 C 
BRANCH  17  18
HETATM   18  N   UNK N   1      28.356  23.561  -5.051  0.00  0.00     0.080 N 
HETATM   19  C   UNK N   1      28.593  22.852  -6.294  0.00  0.00     0.309 C 
HETATM   20  C   UNK N   1      29.433  23.189  -4.150  0.00  0.00     0.309 C 
ENDBRANCH  17  18
ENDBRANCH   1  17
TORSDOF 5
ENDMDL
MODEL 7
REMARK VINA RESULT:      -5.3      2.403      5.268
REMARK  5 active torsions:
REMARK  status: ('A' for Active; 'I' for Inactive)
REMARK    1  A    between atoms: C_5  and  O_1 
REMARK    2  A    between atoms: O_2  and  C_16 
REMARK    3  A    between atoms: N_3  and  C_10 
REMARK    4  A    between atoms: C_4  and  C_10 
REMARK    5  A    between atoms: C_5  and  C_11 
ROOT
HETATM    1  C   UNK N   1      27.230  25.783  -4.580  0.00  0.00     0.053 C 
HETATM    2  C   UNK N   1      26.381  26.070  -5.853  0.00  0.00     0.090 C 
HETATM    3  C   UNK N   1      27.427  27.063  -3.757  0.00  0.00     0.010 C 
HETATM    4  C   UNK N   1      25.057  26.716  -5.411  0.00  0.00     0.043 C 
HETATM    5  C   UNK N   1      26.088  27.665  -3.356  0.00  0.00     0.001 C 
HETATM    6  C   UNK N   1      25.279  27.989  -4.602  0.00  0.00     0.003 C 
ENDROOT
BRANCH   2   7
HETATM    7  O   UNK N   1      27.072  26.964  -6.680  0.00  0.00    -0.385 OA
HETATM    8  H   UNK N   1      27.694  27.563  -7.122  0.00  0.00     0.211 HD
ENDBRANCH   2   7
BRANCH   2   9
HETATM    9  C   UNK N   1      26.022  24.837  -6.669  0.00  0.00    -0.021 A 
HETATM   10  C   UNK N   1      25.798  24.978  -8.051  0.00  0.00     0.047 A 
HETATM   11  C   UNK N   1      25.428  23.885  -8.837  0.00  0.00     0.068 A 
HETATM   12  C   UNK N   1      25.299  22.620  -8.239  0.00  0.00     0.037 A 
HETATM   13  C   UNK N   1      25.531  22.463  -6.870  0.00  0.00     0.003 A 
HETATM   14  C   UNK N   1      25.881  23.567  -6.087  0.00  0.00     0.010 A 
BRANCH  11  15
HETATM   15  O   UNK N   1      25.188  24.079 -10.156  0.00  0.00    -0.356 OA
HETATM   16  C   UNK N   1      24.911  25.313 -10.701  0.00  0.00     0.210 C 
ENDBRANCH  11  15
ENDBRANCH   2   9
BRANCH   1  17
HETATM   17  C   UNK N   1      28.599  25.169  -4.884  0.00  0.00     0.279 C 
BRANCH  17  18
HETATM   18  N   UNK N   1      29.274  24.778  -3.651  0.00  0.00     0.080 N 
HETATM   19  C   UNK N   1      29.329  23.328  -3.633  0.00  0.00     0.309 C 
HETATM   20  C   UNK N   1      30.649  25.244  -3.712  0.00  0.00     0.309 C 
ENDBRANCH  17  18
ENDBRANCH   1  17
TORSDOF 5
ENDMDL
MODEL 8
REMARK VINA RESULT:      -5.3     10.426     12.286
REMARK  5 active torsions:
REMARK  status: ('A' for Active; 'I' for Inactive)
REMARK    1  A    between atoms: C_5  and  O_1 
REMARK    2  A    between atoms: O_2  and  C_16 
REMARK    3  A    between atoms: N_3  and  C_10 
REMARK    4  A    between atoms: C_4  and  C_10 
REMARK    5  A    between atoms: C_5  and  C_11 
ROOT
HETATM    1  C   UNK N   1      27.200  17.929   3.946  0.00  0.00     0.053 C 
HETATM    2  C   UNK N   1      27.851  18.457   5.259  0.00  0.00     0.090 C 
HETATM    3  C   UNK N   1      25.892  18.674   3.650  0.00  0.00     0.010 C 
HETATM    4  C   UNK N   1      28.038  19.978   5.123  0.00  0.00     0.043 C 
HETATM    5  C   UNK N   1      26.132  20.172   3.536  0.00  0.00     0.001 C 
HETATM    6  C   UNK N   1      26.724  20.696   4.835  0.00  0.00     0.003 C 
ENDROOT
BRANCH   2   7
HETATM    7  O   UNK N   1      26.998  18.196   6.339  0.00  0.00    -0.385 OA
HETATM    8  H   UNK N   1      26.528  17.865   7.120  0.00  0.00     0.211 HD
ENDBRANCH   2   7
BRANCH   2   9
HETATM    9  C   UNK N   1      29.219  17.869   5.571  0.00  0.00    -0.021 A 
HETATM   10  C   UNK N   1      29.502  17.470   6.890  0.00  0.00     0.047 A 
HETATM   11  C   UNK N   1      30.755  16.961   7.236  0.00  0.00     0.068 A 
HETATM   12  C   UNK N   1      31.741  16.825   6.245  0.00  0.00     0.037 A 
HETATM   13  C   UNK N   1      31.469  17.205   4.927  0.00  0.00     0.003 A 
HETATM   14  C   UNK N   1      30.218  17.733   4.594  0.00  0.00     0.010 A 
BRANCH  11  15
HETATM   15  O   UNK N   1      30.991  16.625   8.528  0.00  0.00    -0.356 OA
HETATM   16  C   UNK N   1      31.957  15.722   8.910  0.00  0.00     0.210 C 
ENDBRANCH  11  15
ENDBRANCH   2   9
BRANCH   1  17
HETATM   17  C   UNK N   1      26.923  16.423   3.966  0.00  0.00     0.279 C 
BRANCH  17  18
HETATM   18  N   UNK N   1      27.623  15.756   2.872  0.00  0.00     0.080 N 
HETATM   19  C   UNK N   1      28.348  14.638   3.445  0.00  0.00     0.309 C 
HETATM   20  C   UNK N   1      26.633  15.190   1.971  0.00  0.00     0.309 C 
ENDBRANCH  17  18
ENDBRANCH   1  17
TORSDOF 5
ENDMDL
MODEL 9
REMARK VINA RESULT:      -5.3     10.234     11.903
REMARK  5 active torsions:
REMARK  status: ('A' for Active; 'I' for Inactive)
REMARK    1  A    between atoms: C_5  and  O_1 
REMARK    2  A    between atoms: O_2  and  C_16 
REMARK    3  A    between atoms: N_3  and  C_10 
REMARK    4  A    between atoms: C_4  and  C_10 
REMARK    5  A    between atoms: C_5  and  C_11 
ROOT
HETATM    1  C   UNK N   1      27.212  17.935   3.936  0.00  0.00     0.053 C 
HETATM    2  C   UNK N   1      27.724  18.454   5.312  0.00  0.00     0.090 C 
HETATM    3  C   UNK N   1      25.942  18.684   3.510  0.00  0.00     0.010 C 
HETATM    4  C   UNK N   1      27.925  19.975   5.206  0.00  0.00     0.043 C 
HETATM    5  C   UNK N   1      26.195  20.183   3.432  0.00  0.00     0.001 C 
HETATM    6  C   UNK N   1      26.650  20.698   4.788  0.00  0.00     0.003 C 
ENDROOT
BRANCH   2   7
HETATM    7  O   UNK N   1      26.764  18.188   6.296  0.00  0.00    -0.385 OA
HETATM    8  H   UNK N   1      26.011  18.164   6.908  0.00  0.00     0.211 HD
ENDBRANCH   2   7
BRANCH   2   9
HETATM    9  C   UNK N   1      29.051  17.861   5.761  0.00  0.00    -0.021 A 
HETATM   10  C   UNK N   1      30.101  17.762   4.831  0.00  0.00     0.047 A 
HETATM   11  C   UNK N   1      31.325  17.189   5.182  0.00  0.00     0.068 A 
HETATM   12  C   UNK N   1      31.517  16.726   6.494  0.00  0.00     0.037 A 
HETATM   13  C   UNK N   1      30.486  16.830   7.432  0.00  0.00     0.003 A 
HETATM   14  C   UNK N   1      29.257  17.385   7.066  0.00  0.00     0.010 A 
BRANCH  11  15
HETATM   15  O   UNK N   1      32.293  17.084   4.239  0.00  0.00    -0.356 OA
HETATM   16  C   UNK N   1      32.028  16.892   2.902  0.00  0.00     0.210 C 
ENDBRANCH  11  15
ENDBRANCH   2   9
BRANCH   1  17
HETATM   17  C   UNK N   1      26.932  16.429   3.917  0.00  0.00     0.279 C 
BRANCH  17  18
HETATM   18  N   UNK N   1      27.654  15.785   2.824  0.00  0.00     0.080 N 
HETATM   19  C   UNK N   1      28.425  14.700   3.400  0.00  0.00     0.309 C 
HETATM   20  C   UNK N   1      26.684  15.175   1.930  0.00  0.00     0.309 C 
ENDBRANCH  17  18
ENDBRANCH   1  17
TORSDOF 5
ENDMDL
