MODEL 1
REMARK VINA RESULT:      -7.2      0.000      0.000
REMARK  8 active torsions:
REMARK  status: ('A' for Active; 'I' for Inactive)
REMARK    1  A    between atoms: O_3  and  C_27 
REMARK    2  A    between atoms: O_4  and  C_28 
REMARK       I    between atoms: N_5  and  C_16 
REMARK    3  A    between atoms: N_5  and  C_17 
REMARK    4  A    between atoms: N_6  and  C_19 
REMARK       I    between atoms: N_6  and  C_20 
REMARK    5  A    between atoms: N_11  and  C_24 
REMARK    6  A    between atoms: C_12  and  C_16 
REMARK    7  A    between atoms: C_17  and  C_18 
REMARK    8  A    between atoms: C_18  and  C_19 
ROOT
HETATM    1  N   UNK N   1      34.012  16.608   8.286  0.00  0.00    -0.222 N 
HETATM    2  N   UNK N   1      32.095  16.799   6.824  0.00  0.00    -0.191 N 
ATOM      3  HN  UNK N   1      32.649  16.365   6.085  1.00  0.00     0.184 HD
HETATM    4  N   UNK N   1      31.899  17.552   9.042  0.00  0.00    -0.176 N 
ATOM      5  HN  UNK N   1      32.315  17.688   9.963  1.00  0.00     0.186 HD
HETATM    6  C   UNK N   1      32.649  16.986   8.055  0.00  0.00     0.681 A 
HETATM    7  C   UNK N   1      34.745  15.975   7.219  0.00  0.00     0.168 C 
HETATM    8  C   UNK N   1      30.043  17.769   7.575  0.00  0.00     0.038 A 
HETATM    9  C   UNK N   1      30.819  17.180   6.563  0.00  0.00     0.066 A 
HETATM   10  C   UNK N   1      30.618  17.941   8.835  0.00  0.00     0.127 A 
HETATM   11  C   UNK N   1      28.735  18.174   7.305  0.00  0.00     0.057 A 
HETATM   12  C   UNK N   1      30.280  17.000   5.290  0.00  0.00     0.070 A 
HETATM   13  C   UNK N   1      28.187  18.001   6.022  0.00  0.00     0.102 A 
HETATM   14  C   UNK N   1      28.963  17.411   5.009  0.00  0.00     0.103 A 
ENDROOT
BRANCH   1  15
HETATM   15  C   UNK N   1      34.756  16.874   9.511  0.00  0.00     0.142 C 
BRANCH  15  16
HETATM   16  C   UNK N   1      34.816  15.749  10.542  0.00  0.00     0.040 C 
BRANCH  16  17
HETATM   17  C   UNK N   1      36.254  15.518  10.980  0.00  0.00     0.124 C 
BRANCH  17  18
HETATM   18  N   UNK N   1      36.263  15.236  12.393  0.00  0.00    -0.359 N 
HETATM   19  C   UNK N   1      36.180  13.971  12.874  0.00  0.00     0.246 C 
HETATM   20  O   UNK N   1      36.217  13.012  12.118  0.00  0.00    -0.271 OA
HETATM   21  H   UNK N   1      36.329  15.985  13.028  0.00  0.00     0.162 HD
BRANCH  19  22
HETATM   22  C   UNK N   1      35.977  13.751  14.334  0.00  0.00     0.213 C 
HETATM   23  O   UNK N   1      34.687  13.277  14.592  0.00  0.00    -0.376 OA
HETATM   24  C   UNK N   1      34.810  12.606  15.817  0.00  0.00     0.168 C 
HETATM   25  C   UNK N   1      36.189  11.988  15.887  0.00  0.00     0.029 C 
HETATM   26  C   UNK N   1      36.954  12.701  14.816  0.00  0.00     0.043 C 
ENDBRANCH  19  22
ENDBRANCH  17  18
ENDBRANCH  16  17
ENDBRANCH  15  16
ENDBRANCH   1  15
BRANCH  10  27
HETATM   27  N   UNK N   1      29.888  18.526   9.893  0.00  0.00    -0.384 N 
HETATM   28  H   UNK N   1      29.917  19.500  10.032  0.00  0.00     0.157 HD
HETATM   29  H   UNK N   1      29.350  17.960  10.492  0.00  0.00     0.157 HD
ENDBRANCH  10  27
BRANCH  14  30
HETATM   30  O   UNK N   1      28.428  17.251   3.774  0.00  0.00    -0.353 OA
HETATM   31  C   UNK N   1      28.555  16.093   3.040  0.00  0.00     0.210 C 
ENDBRANCH  14  30
BRANCH  13  32
HETATM   32  O   UNK N   1      26.922  18.399   5.744  0.00  0.00    -0.353 OA
HETATM   33  C   UNK N   1      26.574  19.714   5.534  0.00  0.00     0.210 C 
ENDBRANCH  13  32
TORSDOF 8
ENDMDL
MODEL 2
REMARK VINA RESULT:      -7.1      1.874      2.036
REMARK  8 active torsions:
REMARK  status: ('A' for Active; 'I' for Inactive)
REMARK    1  A    between atoms: O_3  and  C_27 
REMARK    2  A    between atoms: O_4  and  C_28 
REMARK       I    between atoms: N_5  and  C_16 
REMARK    3  A    between atoms: N_5  and  C_17 
REMARK    4  A    between atoms: N_6  and  C_19 
REMARK       I    between atoms: N_6  and  C_20 
REMARK    5  A    between atoms: N_11  and  C_24 
REMARK    6  A    between atoms: C_12  and  C_16 
REMARK    7  A    between atoms: C_17  and  C_18 
REMARK    8  A    between atoms: C_18  and  C_19 
ROOT
HETATM    1  N   UNK N   1      32.384  15.096   7.846  0.00  0.00    -0.222 N 
HETATM    2  N   UNK N   1      30.665  16.335   6.681  0.00  0.00    -0.191 N 
ATOM      3  HN  UNK N   1      30.878  15.791   5.844  1.00  0.00     0.184 HD
HETATM    4  N   UNK N   1      31.048  16.806   8.951  0.00  0.00    -0.176 N 
ATOM      5  HN  UNK N   1      31.559  16.616   9.814  1.00  0.00     0.186 HD
HETATM    6  C   UNK N   1      31.348  16.087   7.833  0.00  0.00     0.681 A 
HETATM    7  C   UNK N   1      32.630  14.337   6.646  0.00  0.00     0.168 C 
HETATM    8  C   UNK N   1      29.394  18.040   7.775  0.00  0.00     0.038 A 
HETATM    9  C   UNK N   1      29.704  17.292   6.626  0.00  0.00     0.066 A 
HETATM   10  C   UNK N   1      30.092  17.765   8.952  0.00  0.00     0.127 A 
HETATM   11  C   UNK N   1      28.416  19.034   7.717  0.00  0.00     0.057 A 
HETATM   12  C   UNK N   1      29.033  17.545   5.430  0.00  0.00     0.070 A 
HETATM   13  C   UNK N   1      27.740  19.298   6.514  0.00  0.00     0.102 A 
HETATM   14  C   UNK N   1      28.049  18.550   5.363  0.00  0.00     0.103 A 
ENDROOT
BRANCH   1  15
HETATM   15  C   UNK N   1      33.270  14.830   8.972  0.00  0.00     0.142 C 
BRANCH  15  16
HETATM   16  C   UNK N   1      33.703  13.381   9.185  0.00  0.00     0.040 C 
BRANCH  16  17
HETATM   17  C   UNK N   1      35.073  13.336   9.845  0.00  0.00     0.124 C 
BRANCH  17  18
HETATM   18  N   UNK N   1      34.975  12.554  11.050  0.00  0.00    -0.359 N 
HETATM   19  C   UNK N   1      34.960  13.125  12.280  0.00  0.00     0.246 C 
HETATM   20  O   UNK N   1      34.907  14.340  12.403  0.00  0.00    -0.271 OA
HETATM   21  H   UNK N   1      34.918  11.573  10.979  0.00  0.00     0.162 HD
BRANCH  19  22
HETATM   22  C   UNK N   1      35.073  12.267  13.493  0.00  0.00     0.213 C 
HETATM   23  O   UNK N   1      34.583  12.932  14.621  0.00  0.00    -0.376 OA
HETATM   24  C   UNK N   1      34.227  11.896  15.498  0.00  0.00     0.168 C 
HETATM   25  C   UNK N   1      33.741  10.721  14.677  0.00  0.00     0.029 C 
HETATM   26  C   UNK N   1      34.237  11.021  13.297  0.00  0.00     0.043 C 
ENDBRANCH  19  22
ENDBRANCH  17  18
ENDBRANCH  16  17
ENDBRANCH  15  16
ENDBRANCH   1  15
BRANCH  10  27
HETATM   27  N   UNK N   1      29.824  18.481  10.139  0.00  0.00    -0.384 N 
HETATM   28  H   UNK N   1      29.087  19.132  10.166  0.00  0.00     0.157 HD
HETATM   29  H   UNK N   1      30.376  18.330  10.940  0.00  0.00     0.157 HD
ENDBRANCH  10  27
BRANCH  14  30
HETATM   30  O   UNK N   1      27.394  18.813   4.207  0.00  0.00    -0.353 OA
HETATM   31  C   UNK N   1      26.289  18.108   3.787  0.00  0.00     0.210 C 
ENDBRANCH  14  30
BRANCH  13  32
HETATM   32  O   UNK N   1      26.796  20.267   6.441  0.00  0.00    -0.353 OA
HETATM   33  C   UNK N   1      27.096  21.606   6.322  0.00  0.00     0.210 C 
ENDBRANCH  13  32
TORSDOF 8
ENDMDL
MODEL 3
REMARK VINA RESULT:      -7.0      4.410     11.466
REMARK  8 active torsions:
REMARK  status: ('A' for Active; 'I' for Inactive)
REMARK    1  A    between atoms: O_3  and  C_27 
REMARK    2  A    between atoms: O_4  and  C_28 
REMARK       I    between atoms: N_5  and  C_16 
REMARK    3  A    between atoms: N_5  and  C_17 
REMARK    4  A    between atoms: N_6  and  C_19 
REMARK       I    between atoms: N_6  and  C_20 
REMARK    5  A    between atoms: N_11  and  C_24 
REMARK    6  A    between atoms: C_12  and  C_16 
REMARK    7  A    between atoms: C_17  and  C_18 
REMARK    8  A    between atoms: C_18  and  C_19 
ROOT
HETATM    1  N   UNK N   1      28.150  18.127   5.288  0.00  0.00    -0.222 N 
HETATM    2  N   UNK N   1      30.201  17.356   6.311  0.00  0.00    -0.191 N 
ATOM      3  HN  UNK N   1      29.733  17.396   7.217  1.00  0.00     0.184 HD
HETATM    4  N   UNK N   1      30.137  17.617   3.976  0.00  0.00    -0.176 N 
ATOM      5  HN  UNK N   1      29.616  17.863   3.134  1.00  0.00     0.186 HD
HETATM    6  C   UNK N   1      29.511  17.688   5.184  0.00  0.00     0.681 A 
HETATM    7  C   UNK N   1      27.525  18.142   6.587  0.00  0.00     0.168 C 
HETATM    8  C   UNK N   1      32.154  16.903   5.007  0.00  0.00     0.038 A 
HETATM    9  C   UNK N   1      31.501  16.972   6.250  0.00  0.00     0.066 A 
HETATM   10  C   UNK N   1      31.430  17.231   3.860  0.00  0.00     0.127 A 
HETATM   11  C   UNK N   1      33.495  16.521   4.943  0.00  0.00     0.057 A 
HETATM   12  C   UNK N   1      32.196  16.659   7.417  0.00  0.00     0.070 A 
HETATM   13  C   UNK N   1      34.202  16.210   6.117  0.00  0.00     0.102 A 
HETATM   14  C   UNK N   1      33.550  16.279   7.361  0.00  0.00     0.103 A 
ENDROOT
BRANCH   1  15
HETATM   15  C   UNK N   1      27.349  18.632   4.179  0.00  0.00     0.142 C 
BRANCH  15  16
HETATM   16  C   UNK N   1      27.179  20.146   4.083  0.00  0.00     0.040 C 
BRANCH  16  17
HETATM   17  C   UNK N   1      26.069  20.486   3.099  0.00  0.00     0.124 C 
BRANCH  17  18
HETATM   18  N   UNK N   1      24.956  19.604   3.344  0.00  0.00    -0.359 N 
HETATM   19  C   UNK N   1      23.672  20.038   3.303  0.00  0.00     0.246 C 
HETATM   20  O   UNK N   1      23.409  21.174   2.936  0.00  0.00    -0.271 OA
HETATM   21  H   UNK N   1      25.134  18.658   3.549  0.00  0.00     0.162 HD
BRANCH  19  22
HETATM   22  C   UNK N   1      22.577  19.143   3.772  0.00  0.00     0.213 C 
HETATM   23  O   UNK N   1      21.518  19.132   2.859  0.00  0.00    -0.376 OA
HETATM   24  C   UNK N   1      20.874  17.909   3.098  0.00  0.00     0.168 C 
HETATM   25  C   UNK N   1      21.918  16.893   3.508  0.00  0.00     0.029 C 
HETATM   26  C   UNK N   1      23.104  17.729   3.875  0.00  0.00     0.043 C 
ENDBRANCH  19  22
ENDBRANCH  17  18
ENDBRANCH  16  17
ENDBRANCH  15  16
ENDBRANCH   1  15
BRANCH  10  27
HETATM   27  N   UNK N   1      32.029  17.179   2.583  0.00  0.00    -0.384 N 
HETATM   28  H   UNK N   1      32.537  17.951   2.245  0.00  0.00     0.157 HD
HETATM   29  H   UNK N   1      31.940  16.370   2.029  0.00  0.00     0.157 HD
ENDBRANCH  10  27
BRANCH  14  30
HETATM   30  O   UNK N   1      34.241  15.980   8.488  0.00  0.00    -0.353 OA
HETATM   31  C   UNK N   1      34.629  16.926   9.409  0.00  0.00     0.210 C 
ENDBRANCH  14  30
BRANCH  13  32
HETATM   32  O   UNK N   1      35.508  15.848   6.070  0.00  0.00    -0.353 OA
HETATM   33  C   UNK N   1      35.931  14.607   5.652  0.00  0.00     0.210 C 
ENDBRANCH  13  32
TORSDOF 8
ENDMDL
MODEL 4
REMARK VINA RESULT:      -7.0      3.679     11.674
REMARK  8 active torsions:
REMARK  status: ('A' for Active; 'I' for Inactive)
REMARK    1  A    between atoms: O_3  and  C_27 
REMARK    2  A    between atoms: O_4  and  C_28 
REMARK       I    between atoms: N_5  and  C_16 
REMARK    3  A    between atoms: N_5  and  C_17 
REMARK    4  A    between atoms: N_6  and  C_19 
REMARK       I    between atoms: N_6  and  C_20 
REMARK    5  A    between atoms: N_11  and  C_24 
REMARK    6  A    between atoms: C_12  and  C_16 
REMARK    7  A    between atoms: C_17  and  C_18 
REMARK    8  A    between atoms: C_18  and  C_19 
ROOT
HETATM    1  N   UNK N   1      36.614  13.736  12.418  0.00  0.00    -0.222 N 
HETATM    2  N   UNK N   1      37.076  11.774  13.755  0.00  0.00    -0.191 N 
ATOM      3  HN  UNK N   1      37.604  11.395  12.969  1.00  0.00     0.184 HD
HETATM    4  N   UNK N   1      35.811  13.512  14.706  0.00  0.00    -0.176 N 
ATOM      5  HN  UNK N   1      35.386  14.436  14.623  1.00  0.00     0.186 HD
HETATM    6  C   UNK N   1      36.502  13.006  13.647  0.00  0.00     0.681 A 
HETATM    7  C   UNK N   1      37.393  13.170  11.346  0.00  0.00     0.168 C 
HETATM    8  C   UNK N   1      36.240  11.558  15.985  0.00  0.00     0.038 A 
HETATM    9  C   UNK N   1      36.957  11.042  14.892  0.00  0.00     0.066 A 
HETATM   10  C   UNK N   1      35.671  12.826  15.865  0.00  0.00     0.127 A 
HETATM   11  C   UNK N   1      36.105  10.801  17.151  0.00  0.00     0.057 A 
HETATM   12  C   UNK N   1      37.532   9.775  14.974  0.00  0.00     0.070 A 
HETATM   13  C   UNK N   1      36.677   9.520  17.237  0.00  0.00     0.102 A 
HETATM   14  C   UNK N   1      37.395   9.004  16.143  0.00  0.00     0.103 A 
ENDROOT
BRANCH   1  15
HETATM   15  C   UNK N   1      35.940  14.996  12.132  0.00  0.00     0.142 C 
BRANCH  15  16
HETATM   16  C   UNK N   1      36.024  15.516  10.699  0.00  0.00     0.040 C 
BRANCH  16  17
HETATM   17  C   UNK N   1      35.352  16.877  10.596  0.00  0.00     0.124 C 
BRANCH  17  18
HETATM   18  N   UNK N   1      34.605  16.926   9.365  0.00  0.00    -0.359 N 
HETATM   19  C   UNK N   1      34.621  18.015   8.557  0.00  0.00     0.246 C 
HETATM   20  O   UNK N   1      35.371  18.952   8.788  0.00  0.00    -0.271 OA
HETATM   21  H   UNK N   1      34.066  16.145   9.103  0.00  0.00     0.162 HD
BRANCH  19  22
HETATM   22  C   UNK N   1      33.670  18.097   7.413  0.00  0.00     0.213 C 
HETATM   23  O   UNK N   1      34.316  17.806   6.207  0.00  0.00    -0.376 OA
HETATM   24  C   UNK N   1      33.282  17.372   5.364  0.00  0.00     0.168 C 
HETATM   25  C   UNK N   1      32.252  16.650   6.205  0.00  0.00     0.029 C 
HETATM   26  C   UNK N   1      32.576  17.070   7.605  0.00  0.00     0.043 C 
ENDBRANCH  19  22
ENDBRANCH  17  18
ENDBRANCH  16  17
ENDBRANCH  15  16
ENDBRANCH   1  15
BRANCH  10  27
HETATM   27  N   UNK N   1      34.941  13.399  16.930  0.00  0.00    -0.384 N 
HETATM   28  H   UNK N   1      35.412  13.878  17.649  0.00  0.00     0.157 HD
HETATM   29  H   UNK N   1      33.960  13.319  16.953  0.00  0.00     0.157 HD
ENDBRANCH  10  27
BRANCH  14  30
HETATM   30  O   UNK N   1      37.941   7.767  16.234  0.00  0.00    -0.353 OA
HETATM   31  C   UNK N   1      39.272   7.547  16.508  0.00  0.00     0.210 C 
ENDBRANCH  14  30
BRANCH  13  32
HETATM   32  O   UNK N   1      36.545   8.771  18.358  0.00  0.00    -0.353 OA
HETATM   33  C   UNK N   1      36.693   9.282  19.628  0.00  0.00     0.210 C 
ENDBRANCH  13  32
TORSDOF 8
ENDMDL
MODEL 5
REMARK VINA RESULT:      -6.9      1.607      3.065
REMARK  8 active torsions:
REMARK  status: ('A' for Active; 'I' for Inactive)
REMARK    1  A    between atoms: O_3  and  C_27 
REMARK    2  A    between atoms: O_4  and  C_28 
REMARK       I    between atoms: N_5  and  C_16 
REMARK    3  A    between atoms: N_5  and  C_17 
REMARK    4  A    between atoms: N_6  and  C_19 
REMARK       I    between atoms: N_6  and  C_20 
REMARK    5  A    between atoms: N_11  and  C_24 
REMARK    6  A    between atoms: C_12  and  C_16 
REMARK    7  A    between atoms: C_17  and  C_18 
REMARK    8  A    between atoms: C_18  and  C_19 
ROOT
HETATM    1  N   UNK N   1      35.349  15.489   9.484  0.00  0.00    -0.222 N 
HETATM    2  N   UNK N   1      33.222  16.544   9.024  0.00  0.00    -0.191 N 
ATOM      3  HN  UNK N   1      33.280  16.997   9.936  1.00  0.00     0.184 HD
HETATM    4  N   UNK N   1      34.159  15.139   7.389  0.00  0.00    -0.176 N 
ATOM      5  HN  UNK N   1      34.920  14.533   7.083  1.00  0.00     0.186 HD
HETATM    6  C   UNK N   1      34.235  15.730   8.615  0.00  0.00     0.681 A 
HETATM    7  C   UNK N   1      35.398  16.174  10.751  0.00  0.00     0.168 C 
HETATM    8  C   UNK N   1      32.050  16.151   6.977  0.00  0.00     0.038 A 
HETATM    9  C   UNK N   1      32.136  16.762   8.240  0.00  0.00     0.066 A 
HETATM   10  C   UNK N   1      33.102  15.332   6.564  0.00  0.00     0.127 A 
HETATM   11  C   UNK N   1      30.927  16.363   6.174  0.00  0.00     0.057 A 
HETATM   12  C   UNK N   1      31.099  17.580   8.688  0.00  0.00     0.070 A 
HETATM   13  C   UNK N   1      29.877  17.182   6.623  0.00  0.00     0.102 A 
HETATM   14  C   UNK N   1      29.963  17.795   7.886  0.00  0.00     0.103 A 
ENDROOT
BRANCH   1  15
HETATM   15  C   UNK N   1      36.426  14.543   9.219  0.00  0.00     0.142 C 
BRANCH  15  16
HETATM   16  C   UNK N   1      37.598  14.537  10.198  0.00  0.00     0.040 C 
BRANCH  16  17
HETATM   17  C   UNK N   1      37.720  13.172  10.858  0.00  0.00     0.124 C 
BRANCH  17  18
HETATM   18  N   UNK N   1      37.400  13.310  12.255  0.00  0.00    -0.359 N 
HETATM   19  C   UNK N   1      36.147  13.101  12.730  0.00  0.00     0.246 C 
HETATM   20  O   UNK N   1      35.267  12.667  12.001  0.00  0.00    -0.271 OA
HETATM   21  H   UNK N   1      38.112  13.565  12.885  0.00  0.00     0.162 HD
BRANCH  19  22
HETATM   22  C   UNK N   1      35.823  13.463  14.139  0.00  0.00     0.213 C 
HETATM   23  O   UNK N   1      34.523  13.066  14.469  0.00  0.00    -0.376 OA
HETATM   24  C   UNK N   1      34.551  12.938  15.866  0.00  0.00     0.168 C 
HETATM   25  C   UNK N   1      35.929  12.464  16.274  0.00  0.00     0.029 C 
HETATM   26  C   UNK N   1      36.772  12.736  15.067  0.00  0.00     0.043 C 
ENDBRANCH  19  22
ENDBRANCH  17  18
ENDBRANCH  16  17
ENDBRANCH  15  16
ENDBRANCH   1  15
BRANCH  10  27
HETATM   27  N   UNK N   1      33.074  14.692   5.306  0.00  0.00    -0.384 N 
HETATM   28  H   UNK N   1      33.781  14.053   5.063  0.00  0.00     0.157 HD
HETATM   29  H   UNK N   1      32.346  14.884   4.672  0.00  0.00     0.157 HD
ENDBRANCH  10  27
BRANCH  14  30
HETATM   30  O   UNK N   1      28.944  18.580   8.311  0.00  0.00    -0.353 OA
HETATM   31  C   UNK N   1      27.991  18.159   9.211  0.00  0.00     0.210 C 
ENDBRANCH  14  30
BRANCH  13  32
HETATM   32  O   UNK N   1      28.778  17.389   5.858  0.00  0.00    -0.353 OA
HETATM   33  C   UNK N   1      28.767  18.223   4.763  0.00  0.00     0.210 C 
ENDBRANCH  13  32
TORSDOF 8
ENDMDL
MODEL 6
REMARK VINA RESULT:      -6.9      5.300     10.052
REMARK  8 active torsions:
REMARK  status: ('A' for Active; 'I' for Inactive)
REMARK    1  A    between atoms: O_3  and  C_27 
REMARK    2  A    between atoms: O_4  and  C_28 
REMARK       I    between atoms: N_5  and  C_16 
REMARK    3  A    between atoms: N_5  and  C_17 
REMARK    4  A    between atoms: N_6  and  C_19 
REMARK       I    between atoms: N_6  and  C_20 
REMARK    5  A    between atoms: N_11  and  C_24 
REMARK    6  A    between atoms: C_12  and  C_16 
REMARK    7  A    between atoms: C_17  and  C_18 
REMARK    8  A    between atoms: C_18  and  C_19 
ROOT
HETATM    1  N   UNK N   1      25.887  15.784   5.341  0.00  0.00    -0.222 N 
HETATM    2  N   UNK N   1      28.288  15.841   5.624  0.00  0.00    -0.191 N 
ATOM      3  HN  UNK N   1      28.373  15.256   4.793  1.00  0.00     0.184 HD
HETATM    4  N   UNK N   1      26.947  17.025   7.148  0.00  0.00    -0.176 N 
ATOM      5  HN  UNK N   1      26.020  17.319   7.459  1.00  0.00     0.186 HD
HETATM    6  C   UNK N   1      27.052  16.231   6.046  0.00  0.00     0.681 A 
HETATM    7  C   UNK N   1      26.061  14.980   4.157  0.00  0.00     0.168 C 
HETATM    8  C   UNK N   1      29.304  17.032   7.432  0.00  0.00     0.038 A 
HETATM    9  C   UNK N   1      29.409  16.217   6.291  0.00  0.00     0.066 A 
HETATM   10  C   UNK N   1      28.034  17.436   7.843  0.00  0.00     0.127 A 
HETATM   11  C   UNK N   1      30.455  17.409   8.127  0.00  0.00     0.057 A 
HETATM   12  C   UNK N   1      30.662  15.787   5.856  0.00  0.00     0.070 A 
HETATM   13  C   UNK N   1      31.720  16.974   7.697  0.00  0.00     0.102 A 
HETATM   14  C   UNK N   1      31.826  16.159   6.555  0.00  0.00     0.103 A 
ENDROOT
BRANCH   1  15
HETATM   15  C   UNK N   1      24.513  16.022   5.765  0.00  0.00     0.142 C 
BRANCH  15  16
HETATM   16  C   UNK N   1      23.517  16.436   4.683  0.00  0.00     0.040 C 
BRANCH  16  17
HETATM   17  C   UNK N   1      23.058  17.868   4.916  0.00  0.00     0.124 C 
BRANCH  17  18
HETATM   18  N   UNK N   1      24.219  18.685   5.163  0.00  0.00    -0.359 N 
HETATM   19  C   UNK N   1      24.649  19.612   4.272  0.00  0.00     0.246 C 
HETATM   20  O   UNK N   1      23.991  19.871   3.275  0.00  0.00    -0.271 OA
HETATM   21  H   UNK N   1      24.715  18.566   6.005  0.00  0.00     0.162 HD
BRANCH  19  22
HETATM   22  C   UNK N   1      25.967  20.276   4.478  0.00  0.00     0.213 C 
HETATM   23  O   UNK N   1      26.216  20.475   5.839  0.00  0.00    -0.376 OA
HETATM   24  C   UNK N   1      27.614  20.554   5.921  0.00  0.00     0.168 C 
HETATM   25  C   UNK N   1      28.207  19.643   4.867  0.00  0.00     0.029 C 
HETATM   26  C   UNK N   1      27.061  19.380   3.939  0.00  0.00     0.043 C 
ENDBRANCH  19  22
ENDBRANCH  17  18
ENDBRANCH  16  17
ENDBRANCH  15  16
ENDBRANCH   1  15
BRANCH  10  27
HETATM   27  N   UNK N   1      27.865  18.256   8.980  0.00  0.00    -0.384 N 
HETATM   28  H   UNK N   1      28.050  17.898   9.878  0.00  0.00     0.157 HD
HETATM   29  H   UNK N   1      27.562  19.187   8.875  0.00  0.00     0.157 HD
ENDBRANCH  10  27
BRANCH  14  30
HETATM   30  O   UNK N   1      33.049  15.743   6.150  0.00  0.00    -0.353 OA
HETATM   31  C   UNK N   1      33.297  15.236   4.894  0.00  0.00     0.210 C 
ENDBRANCH  14  30
BRANCH  13  32
HETATM   32  O   UNK N   1      32.844  17.324   8.369  0.00  0.00    -0.353 OA
HETATM   33  C   UNK N   1      33.575  18.454   8.078  0.00  0.00     0.210 C 
ENDBRANCH  13  32
TORSDOF 8
ENDMDL
MODEL 7
REMARK VINA RESULT:      -6.9      3.419     10.914
REMARK  8 active torsions:
REMARK  status: ('A' for Active; 'I' for Inactive)
REMARK    1  A    between atoms: O_3  and  C_27 
REMARK    2  A    between atoms: O_4  and  C_28 
REMARK       I    between atoms: N_5  and  C_16 
REMARK    3  A    between atoms: N_5  and  C_17 
REMARK    4  A    between atoms: N_6  and  C_19 
REMARK       I    between atoms: N_6  and  C_20 
REMARK    5  A    between atoms: N_11  and  C_24 
REMARK    6  A    between atoms: C_12  and  C_16 
REMARK    7  A    between atoms: C_17  and  C_18 
REMARK    8  A    between atoms: C_18  and  C_19 
ROOT
HETATM    1  N   UNK N   1      36.579  13.015  11.387  0.00  0.00    -0.222 N 
HETATM    2  N   UNK N   1      35.918  11.888  13.423  0.00  0.00    -0.191 N 
ATOM      3  HN  UNK N   1      35.616  11.096  12.855  1.00  0.00     0.184 HD
HETATM    4  N   UNK N   1      36.882  14.025  13.582  0.00  0.00    -0.176 N 
ATOM      5  HN  UNK N   1      37.296  14.839  13.126  1.00  0.00     0.186 HD
HETATM    6  C   UNK N   1      36.467  12.978  12.816  0.00  0.00     0.681 A 
HETATM    7  C   UNK N   1      36.163  11.861  10.631  0.00  0.00     0.168 C 
HETATM    8  C   UNK N   1      36.186  12.918  15.564  0.00  0.00     0.038 A 
HETATM    9  C   UNK N   1      35.765  11.837  14.770  0.00  0.00     0.066 A 
HETATM   10  C   UNK N   1      36.761  14.021  14.931  0.00  0.00     0.127 A 
HETATM   11  C   UNK N   1      36.017  12.874  16.950  0.00  0.00     0.057 A 
HETATM   12  C   UNK N   1      35.179  10.723  15.369  0.00  0.00     0.070 A 
HETATM   13  C   UNK N   1      35.422  11.755  17.558  0.00  0.00     0.102 A 
HETATM   14  C   UNK N   1      35.001  10.673  16.764  0.00  0.00     0.103 A 
ENDROOT
BRANCH   1  15
HETATM   15  C   UNK N   1      37.024  14.168  10.615  0.00  0.00     0.142 C 
BRANCH  15  16
HETATM   16  C   UNK N   1      36.186  14.550   9.397  0.00  0.00     0.040 C 
BRANCH  16  17
HETATM   17  C   UNK N   1      35.041  15.460   9.815  0.00  0.00     0.124 C 
BRANCH  17  18
HETATM   18  N   UNK N   1      34.445  16.020   8.629  0.00  0.00    -0.359 N 
HETATM   19  C   UNK N   1      34.459  17.352   8.377  0.00  0.00     0.246 C 
HETATM   20  O   UNK N   1      35.088  18.116   9.094  0.00  0.00    -0.271 OA
HETATM   21  H   UNK N   1      34.013  15.416   7.982  0.00  0.00     0.162 HD
BRANCH  19  22
HETATM   22  C   UNK N   1      33.647  17.897   7.252  0.00  0.00     0.213 C 
HETATM   23  O   UNK N   1      34.252  17.619   6.022  0.00  0.00    -0.376 OA
HETATM   24  C   UNK N   1      33.190  17.656   5.106  0.00  0.00     0.168 C 
HETATM   25  C   UNK N   1      31.942  17.155   5.800  0.00  0.00     0.029 C 
HETATM   26  C   UNK N   1      32.289  17.231   7.254  0.00  0.00     0.043 C 
ENDBRANCH  19  22
ENDBRANCH  17  18
ENDBRANCH  16  17
ENDBRANCH  15  16
ENDBRANCH   1  15
BRANCH  10  27
HETATM   27  N   UNK N   1      37.205  15.136  15.675  0.00  0.00    -0.384 N 
HETATM   28  H   UNK N   1      38.021  15.614  15.405  0.00  0.00     0.157 HD
HETATM   29  H   UNK N   1      36.698  15.435  16.463  0.00  0.00     0.157 HD
ENDBRANCH  10  27
BRANCH  14  30
HETATM   30  O   UNK N   1      34.425   9.600  17.359  0.00  0.00    -0.353 OA
HETATM   31  C   UNK N   1      35.110   8.445  17.660  0.00  0.00     0.210 C 
ENDBRANCH  14  30
BRANCH  13  32
HETATM   32  O   UNK N   1      35.243  11.704  18.900  0.00  0.00    -0.353 OA
HETATM   33  C   UNK N   1      35.013  12.819  19.674  0.00  0.00     0.210 C 
ENDBRANCH  13  32
TORSDOF 8
ENDMDL
MODEL 8
REMARK VINA RESULT:      -6.7      4.212     11.969
REMARK  8 active torsions:
REMARK  status: ('A' for Active; 'I' for Inactive)
REMARK    1  A    between atoms: O_3  and  C_27 
REMARK    2  A    between atoms: O_4  and  C_28 
REMARK       I    between atoms: N_5  and  C_16 
REMARK    3  A    between atoms: N_5  and  C_17 
REMARK    4  A    between atoms: N_6  and  C_19 
REMARK       I    between atoms: N_6  and  C_20 
REMARK    5  A    between atoms: N_11  and  C_24 
REMARK    6  A    between atoms: C_12  and  C_16 
REMARK    7  A    between atoms: C_17  and  C_18 
REMARK    8  A    between atoms: C_18  and  C_19 
ROOT
HETATM    1  N   UNK N   1      35.968  12.895  14.037  0.00  0.00    -0.222 N 
HETATM    2  N   UNK N   1      35.671  11.379  15.899  0.00  0.00    -0.191 N 
ATOM      3  HN  UNK N   1      35.762  10.601  15.245  1.00  0.00     0.184 HD
HETATM    4  N   UNK N   1      35.667  13.692  16.319  0.00  0.00    -0.176 N 
ATOM      5  HN  UNK N   1      35.747  14.648  15.971  1.00  0.00     0.186 HD
HETATM    6  C   UNK N   1      35.774  12.658  15.438  0.00  0.00     0.681 A 
HETATM    7  C   UNK N   1      36.116  11.763  13.158  0.00  0.00     0.168 C 
HETATM    8  C   UNK N   1      35.334  12.185  18.124  0.00  0.00     0.038 A 
HETATM    9  C   UNK N   1      35.451  11.122  17.213  0.00  0.00     0.066 A 
HETATM   10  C   UNK N   1      35.456  13.489  17.641  0.00  0.00     0.127 A 
HETATM   11  C   UNK N   1      35.094  11.924  19.475  0.00  0.00     0.057 A 
HETATM   12  C   UNK N   1      35.326   9.807  17.660  0.00  0.00     0.070 A 
HETATM   13  C   UNK N   1      34.961  10.601  19.930  0.00  0.00     0.102 A 
HETATM   14  C   UNK N   1      35.079   9.536  19.018  0.00  0.00     0.103 A 
ENDROOT
BRANCH   1  15
HETATM   15  C   UNK N   1      35.962  14.208  13.405  0.00  0.00     0.142 C 
BRANCH  15  16
HETATM   16  C   UNK N   1      35.237  14.328  12.066  0.00  0.00     0.040 C 
BRANCH  16  17
HETATM   17  C   UNK N   1      36.120  15.045  11.057  0.00  0.00     0.124 C 
BRANCH  17  18
HETATM   18  N   UNK N   1      35.308  15.429   9.930  0.00  0.00    -0.359 N 
HETATM   19  C   UNK N   1      35.055  16.728   9.634  0.00  0.00     0.246 C 
HETATM   20  O   UNK N   1      35.611  17.627  10.247  0.00  0.00    -0.271 OA
HETATM   21  H   UNK N   1      34.924  14.725   9.358  0.00  0.00     0.162 HD
BRANCH  19  22
HETATM   22  C   UNK N   1      34.042  17.062   8.594  0.00  0.00     0.213 C 
HETATM   23  O   UNK N   1      34.594  17.886   7.608  0.00  0.00    -0.376 OA
HETATM   24  C   UNK N   1      33.786  17.660   6.484  0.00  0.00     0.168 C 
HETATM   25  C   UNK N   1      33.323  16.219   6.511  0.00  0.00     0.029 C 
HETATM   26  C   UNK N   1      33.584  15.787   7.920  0.00  0.00     0.043 C 
ENDBRANCH  19  22
ENDBRANCH  17  18
ENDBRANCH  16  17
ENDBRANCH  15  16
ENDBRANCH   1  15
BRANCH  10  27
HETATM   27  N   UNK N   1      35.350  14.598  18.508  0.00  0.00    -0.384 N 
HETATM   28  H   UNK N   1      34.884  15.413  18.211  0.00  0.00     0.157 HD
HETATM   29  H   UNK N   1      35.741  14.557  19.410  0.00  0.00     0.157 HD
ENDBRANCH  10  27
BRANCH  14  30
HETATM   30  O   UNK N   1      34.947   8.264  19.466  0.00  0.00    -0.353 OA
HETATM   31  C   UNK N   1      34.361   7.261  18.728  0.00  0.00     0.210 C 
ENDBRANCH  14  30
BRANCH  13  32
HETATM   32  O   UNK N   1      34.718  10.333  21.236  0.00  0.00    -0.353 OA
HETATM   33  C   UNK N   1      33.454  10.330  21.782  0.00  0.00     0.210 C 
ENDBRANCH  13  32
TORSDOF 8
ENDMDL
MODEL 9
REMARK VINA RESULT:      -6.7      5.699     10.023
REMARK  8 active torsions:
REMARK  status: ('A' for Active; 'I' for Inactive)
REMARK    1  A    between atoms: O_3  and  C_27 
REMARK    2  A    between atoms: O_4  and  C_28 
REMARK       I    between atoms: N_5  and  C_16 
REMARK    3  A    between atoms: N_5  and  C_17 
REMARK    4  A    between atoms: N_6  and  C_19 
REMARK       I    between atoms: N_6  and  C_20 
REMARK    5  A    between atoms: N_11  and  C_24 
REMARK    6  A    between atoms: C_12  and  C_16 
REMARK    7  A    between atoms: C_17  and  C_18 
REMARK    8  A    between atoms: C_18  and  C_19 
ROOT
HETATM    1  N   UNK N   1      25.923  15.612   5.853  0.00  0.00    -0.222 N 
HETATM    2  N   UNK N   1      28.270  16.176   5.699  0.00  0.00    -0.191 N 
ATOM      3  HN  UNK N   1      28.263  15.828   4.740  1.00  0.00     0.184 HD
HETATM    4  N   UNK N   1      27.131  16.637   7.703  0.00  0.00    -0.176 N 
ATOM      5  HN  UNK N   1      26.267  16.623   8.245  1.00  0.00     0.186 HD
HETATM    6  C   UNK N   1      27.119  16.156   6.427  0.00  0.00     0.681 A 
HETATM    7  C   UNK N   1      25.958  15.157   4.486  0.00  0.00     0.168 C 
HETATM    8  C   UNK N   1      29.446  17.143   7.543  0.00  0.00     0.038 A 
HETATM    9  C   UNK N   1      29.427  16.651   6.226  0.00  0.00     0.066 A 
HETATM   10  C   UNK N   1      28.257  17.130   8.272  0.00  0.00     0.127 A 
HETATM   11  C   UNK N   1      30.638  17.619   8.092  0.00  0.00     0.057 A 
HETATM   12  C   UNK N   1      30.599  16.641   5.471  0.00  0.00     0.070 A 
HETATM   13  C   UNK N   1      31.824  17.606   7.338  0.00  0.00     0.102 A 
HETATM   14  C   UNK N   1      31.805  17.116   6.020  0.00  0.00     0.103 A 
ENDROOT
BRANCH   1  15
HETATM   15  C   UNK N   1      24.669  15.414   6.569  0.00  0.00     0.142 C 
BRANCH  15  16
HETATM   16  C   UNK N   1      23.397  15.907   5.883  0.00  0.00     0.040 C 
BRANCH  16  17
HETATM   17  C   UNK N   1      22.278  14.892   6.066  0.00  0.00     0.124 C 
BRANCH  17  18
HETATM   18  N   UNK N   1      22.307  14.421   7.427  0.00  0.00    -0.359 N 
HETATM   19  C   UNK N   1      21.172  14.187   8.131  0.00  0.00     0.246 C 
HETATM   20  O   UNK N   1      20.078  14.254   7.592  0.00  0.00    -0.271 OA
HETATM   21  H   UNK N   1      23.178  14.265   7.859  0.00  0.00     0.162 HD
BRANCH  19  22
HETATM   22  C   UNK N   1      21.257  13.909   9.593  0.00  0.00     0.213 C 
HETATM   23  O   UNK N   1      20.224  13.057   9.998  0.00  0.00    -0.376 OA
HETATM   24  C   UNK N   1      20.720  12.451  11.162  0.00  0.00     0.168 C 
HETATM   25  C   UNK N   1      22.218  12.291  11.017  0.00  0.00     0.029 C 
HETATM   26  C   UNK N   1      22.566  13.212   9.889  0.00  0.00     0.043 C 
ENDBRANCH  19  22
ENDBRANCH  17  18
ENDBRANCH  16  17
ENDBRANCH  15  16
ENDBRANCH   1  15
BRANCH  10  27
HETATM   27  N   UNK N   1      28.213  17.612   9.599  0.00  0.00    -0.384 N 
HETATM   28  H   UNK N   1      28.976  17.465  10.202  0.00  0.00     0.157 HD
HETATM   29  H   UNK N   1      27.418  18.095   9.921  0.00  0.00     0.157 HD
ENDBRANCH  10  27
BRANCH  14  30
HETATM   30  O   UNK N   1      32.954  17.104   5.301  0.00  0.00    -0.353 OA
HETATM   31  C   UNK N   1      33.678  15.961   5.054  0.00  0.00     0.210 C 
ENDBRANCH  14  30
BRANCH  13  32
HETATM   32  O   UNK N   1      32.990  18.057   7.862  0.00  0.00    -0.353 OA
HETATM   33  C   UNK N   1      33.709  17.363   8.809  0.00  0.00     0.210 C 
ENDBRANCH  13  32
TORSDOF 8
ENDMDL
