MODEL 1
REMARK VINA RESULT:      -7.9      0.000      0.000
REMARK  6 active torsions:
REMARK  status: ('A' for Active; 'I' for Inactive)
REMARK    1  A    between atoms: S_2  and  N_10 
REMARK    2  A    between atoms: S_2  and  C_16 
REMARK    3  A    between atoms: N_10  and  C_27 
REMARK    4  A    between atoms: C_13  and  C_14 
REMARK    5  A    between atoms: C_14  and  C_19 
REMARK    6  A    between atoms: C_17  and  C_19 
ROOT
HETATM    1  S   UNK N   1      36.722  10.125  13.671  0.00  0.00    -0.097 SA
HETATM    2  C   UNK N   1      36.428  12.333  12.640  0.00  0.00     0.101 A 
HETATM    3  C   UNK N   1      35.994  11.610  13.768  0.00  0.00     0.074 A 
HETATM    4  C   UNK N   1      37.310  11.595  11.802  0.00  0.00     0.034 A 
HETATM    5  C   UNK N   1      37.571  10.296  12.254  0.00  0.00     0.052 A 
ENDROOT
BRANCH   2   6
HETATM    6  S   UNK N   1      36.075  14.064  12.298  0.00  0.00     0.266 S 
HETATM    7  O   UNK N   1      36.355  14.929  13.537  0.00  0.00    -0.200 OA
HETATM    8  O   UNK N   1      34.560  14.282  12.178  0.00  0.00    -0.200 OA
BRANCH   6   9
HETATM    9  N   UNK N   1      36.736  14.985  10.957  0.00  0.00    -0.257 N 
HETATM   10  H   UNK N   1      37.691  14.896  10.736  0.00  0.00     0.181 HD
BRANCH   9  11
HETATM   11  C   UNK N   1      35.926  15.850  10.191  0.00  0.00     0.203 A 
HETATM   12  O   UNK N   1      35.678  17.108  10.476  0.00  0.00    -0.217 OA
HETATM   13  N   UNK N   1      34.850  17.622   9.612  0.00  0.00    -0.262 N 
HETATM   14  C   UNK N   1      34.534  16.649   8.730  0.00  0.00     0.055 A 
ATOM     15  HN  UNK N   1      34.503  18.581   9.603  1.00  0.00     0.194 HD
HETATM   16  C   UNK N   1      35.210  15.502   9.071  0.00  0.00     0.112 A 
HETATM   17  C   UNK N   1      33.572  16.816   7.607  0.00  0.00     0.072 C 
HETATM   18 Cl   UNK N   1      35.119  13.928   8.300  0.00  0.00    -0.077 Cl
ENDBRANCH   9  11
ENDBRANCH   6   9
ENDBRANCH   2   6
BRANCH   3  19
HETATM   19  C   UNK N   1      35.058  12.013  14.845  0.00  0.00     0.172 C 
HETATM   20  O   UNK N   1      33.853  11.907  14.669  0.00  0.00    -0.291 OA
BRANCH  19  21
HETATM   21  C   UNK N   1      35.577  12.740  16.050  0.00  0.00     0.123 C 
BRANCH  21  22
HETATM   22  C   UNK N   1      35.445  12.110  17.413  0.00  0.00    -0.042 A 
HETATM   23  C   UNK N   1      35.278  12.962  18.543  0.00  0.00    -0.052 A 
HETATM   24  C   UNK N   1      35.114  12.412  19.827  0.00  0.00     0.047 A 
HETATM   25  C   UNK N   1      35.264  14.445  18.397  0.00  0.00     0.049 C 
HETATM   26  C   UNK N   1      35.113  11.030  19.944  0.00  0.00     0.105 A 
HETATM   27  O   UNK N   1      34.963  10.299  21.045  0.00  0.00    -0.323 OA
HETATM   28  C   UNK N   1      35.268  10.221  18.891  0.00  0.00     0.105 A 
HETATM   29  C   UNK N   1      35.019   8.948  20.688  0.00  0.00     0.352 A 
HETATM   30  O   UNK N   1      35.216   8.956  19.302  0.00  0.00    -0.323 OA
HETATM   31  C   UNK N   1      35.441  10.708  17.594  0.00  0.00     0.047 A 
ENDBRANCH  21  22
ENDBRANCH  19  21
ENDBRANCH   3  19
TORSDOF 6
ENDMDL
MODEL 2
REMARK VINA RESULT:      -7.8      4.055     10.478
REMARK  6 active torsions:
REMARK  status: ('A' for Active; 'I' for Inactive)
REMARK    1  A    between atoms: S_2  and  N_10 
REMARK    2  A    between atoms: S_2  and  C_16 
REMARK    3  A    between atoms: N_10  and  C_27 
REMARK    4  A    between atoms: C_13  and  C_14 
REMARK    5  A    between atoms: C_14  and  C_19 
REMARK    6  A    between atoms: C_17  and  C_19 
ROOT
HETATM    1  S   UNK N   1      34.758  15.231   6.170  0.00  0.00    -0.097 SA
HETATM    2  C   UNK N   1      35.343  15.313   8.552  0.00  0.00     0.101 A 
HETATM    3  C   UNK N   1      34.654  16.076   7.591  0.00  0.00     0.074 A 
HETATM    4  C   UNK N   1      35.896  14.110   8.027  0.00  0.00     0.034 A 
HETATM    5  C   UNK N   1      35.655  13.922   6.662  0.00  0.00     0.052 A 
ENDROOT
BRANCH   2   6
HETATM    6  S   UNK N   1      35.433  15.669  10.313  0.00  0.00     0.266 S 
HETATM    7  O   UNK N   1      34.034  15.629  10.946  0.00  0.00    -0.200 OA
HETATM    8  O   UNK N   1      35.768  17.150  10.539  0.00  0.00    -0.200 OA
BRANCH   6   9
HETATM    9  N   UNK N   1      36.462  14.829  11.464  0.00  0.00    -0.257 N 
HETATM   10  H   UNK N   1      37.440  14.893  11.372  0.00  0.00     0.181 HD
BRANCH   9  11
HETATM   11  C   UNK N   1      35.914  14.065  12.516  0.00  0.00     0.203 A 
HETATM   12  O   UNK N   1      36.039  14.336  13.796  0.00  0.00    -0.217 OA
HETATM   13  N   UNK N   1      35.473  13.414  14.520  0.00  0.00    -0.262 N 
HETATM   14  C   UNK N   1      34.966  12.492  13.673  0.00  0.00     0.055 A 
ATOM     15  HN  UNK N   1      35.422  13.391  15.539  1.00  0.00     0.194 HD
HETATM   16  C   UNK N   1      35.229  12.882  12.381  0.00  0.00     0.112 A 
HETATM   17  C   UNK N   1      34.278  11.246  14.104  0.00  0.00     0.072 C 
HETATM   18 Cl   UNK N   1      34.846  12.025  10.898  0.00  0.00    -0.077 Cl
ENDBRANCH   9  11
ENDBRANCH   6   9
ENDBRANCH   2   6
BRANCH   3  19
HETATM   19  C   UNK N   1      33.978  17.388   7.734  0.00  0.00     0.172 C 
HETATM   20  O   UNK N   1      34.594  18.415   7.493  0.00  0.00    -0.291 OA
BRANCH  19  21
HETATM   21  C   UNK N   1      32.622  17.461   8.374  0.00  0.00     0.123 C 
BRANCH  21  22
HETATM   22  C   UNK N   1      31.390  17.457   7.507  0.00  0.00    -0.042 A 
HETATM   23  C   UNK N   1      30.170  17.948   8.056  0.00  0.00    -0.052 A 
HETATM   24  C   UNK N   1      29.007  17.995   7.268  0.00  0.00     0.047 A 
HETATM   25  C   UNK N   1      30.095  18.428   9.465  0.00  0.00     0.049 C 
HETATM   26  C   UNK N   1      29.096  17.560   5.954  0.00  0.00     0.105 A 
HETATM   27  O   UNK N   1      28.138  17.526   5.031  0.00  0.00    -0.323 OA
HETATM   28  C   UNK N   1      30.236  17.099   5.427  0.00  0.00     0.105 A 
HETATM   29  C   UNK N   1      28.683  17.023   3.846  0.00  0.00     0.352 A 
HETATM   30  O   UNK N   1      30.024  16.765   4.156  0.00  0.00    -0.323 OA
HETATM   31  C   UNK N   1      31.421  17.022   6.162  0.00  0.00     0.047 A 
ENDBRANCH  21  22
ENDBRANCH  19  21
ENDBRANCH   3  19
TORSDOF 6
ENDMDL
MODEL 3
REMARK VINA RESULT:      -7.7     20.912     23.221
REMARK  6 active torsions:
REMARK  status: ('A' for Active; 'I' for Inactive)
REMARK    1  A    between atoms: S_2  and  N_10 
REMARK    2  A    between atoms: S_2  and  C_16 
REMARK    3  A    between atoms: N_10  and  C_27 
REMARK    4  A    between atoms: C_13  and  C_14 
REMARK    5  A    between atoms: C_14  and  C_19 
REMARK    6  A    between atoms: C_17  and  C_19 
ROOT
HETATM    1  S   UNK N   1      31.297  25.149  -4.070  0.00  0.00    -0.097 SA
HETATM    2  C   UNK N   1      28.849  24.988  -3.980  0.00  0.00     0.101 A 
HETATM    3  C   UNK N   1      29.986  24.319  -3.488  0.00  0.00     0.074 A 
HETATM    4  C   UNK N   1      29.165  26.114  -4.793  0.00  0.00     0.034 A 
HETATM    5  C   UNK N   1      30.538  26.335  -4.951  0.00  0.00     0.052 A 
ENDROOT
BRANCH   2   6
HETATM    6  S   UNK N   1      27.142  24.619  -3.551  0.00  0.00     0.266 S 
HETATM    7  O   UNK N   1      26.450  25.858  -2.963  0.00  0.00    -0.200 OA
HETATM    8  O   UNK N   1      27.091  23.698  -2.324  0.00  0.00    -0.200 OA
BRANCH   6   9
HETATM    9  N   UNK N   1      25.952  23.925  -4.642  0.00  0.00    -0.257 N 
HETATM   10  H   UNK N   1      25.230  23.366  -4.275  0.00  0.00     0.181 HD
BRANCH   9  11
HETATM   11  C   UNK N   1      26.012  24.155  -6.033  0.00  0.00     0.203 A 
HETATM   12  O   UNK N   1      26.475  23.305  -6.923  0.00  0.00    -0.217 OA
HETATM   13  N   UNK N   1      26.452  23.829  -8.116  0.00  0.00    -0.262 N 
HETATM   14  C   UNK N   1      25.963  25.083  -7.995  0.00  0.00     0.055 A 
ATOM     15  HN  UNK N   1      26.748  23.377  -8.981  1.00  0.00     0.194 HD
HETATM   16  C   UNK N   1      25.669  25.320  -6.673  0.00  0.00     0.112 A 
HETATM   17  C   UNK N   1      25.821  26.039  -9.125  0.00  0.00     0.072 C 
HETATM   18 Cl   UNK N   1      25.065  26.804  -5.954  0.00  0.00    -0.077 Cl
ENDBRANCH   9  11
ENDBRANCH   6   9
ENDBRANCH   2   6
BRANCH   3  19
HETATM   19  C   UNK N   1      30.076  23.102  -2.646  0.00  0.00     0.172 C 
HETATM   20  O   UNK N   1      30.277  23.212  -1.446  0.00  0.00    -0.291 OA
BRANCH  19  21
HETATM   21  C   UNK N   1      30.132  21.750  -3.294  0.00  0.00     0.123 C 
BRANCH  21  22
HETATM   22  C   UNK N   1      31.398  21.308  -3.982  0.00  0.00    -0.042 A 
HETATM   23  C   UNK N   1      31.324  20.897  -5.345  0.00  0.00    -0.052 A 
HETATM   24  C   UNK N   1      32.488  20.512  -6.033  0.00  0.00     0.047 A 
HETATM   25  C   UNK N   1      30.024  20.871  -6.074  0.00  0.00     0.049 C 
HETATM   26  C   UNK N   1      33.692  20.557  -5.345  0.00  0.00     0.105 A 
HETATM   27  O   UNK N   1      34.907  20.254  -5.795  0.00  0.00    -0.323 OA
HETATM   28  C   UNK N   1      33.773  20.943  -4.068  0.00  0.00     0.105 A 
HETATM   29  C   UNK N   1      35.823  20.457  -4.758  0.00  0.00     0.352 A 
HETATM   30  O   UNK N   1      35.046  20.895  -3.679  0.00  0.00    -0.323 OA
HETATM   31  C   UNK N   1      32.653  21.328  -3.330  0.00  0.00     0.047 A 
ENDBRANCH  21  22
ENDBRANCH  19  21
ENDBRANCH   3  19
TORSDOF 6
ENDMDL
MODEL 4
REMARK VINA RESULT:      -7.7     21.319     25.195
REMARK  6 active torsions:
REMARK  status: ('A' for Active; 'I' for Inactive)
REMARK    1  A    between atoms: S_2  and  N_10 
REMARK    2  A    between atoms: S_2  and  C_16 
REMARK    3  A    between atoms: N_10  and  C_27 
REMARK    4  A    between atoms: C_13  and  C_14 
REMARK    5  A    between atoms: C_14  and  C_19 
REMARK    6  A    between atoms: C_17  and  C_19 
ROOT
HETATM    1  S   UNK N   1      27.448  30.443  -2.958  0.00  0.00    -0.097 SA
HETATM    2  C   UNK N   1      28.843  28.455  -3.321  0.00  0.00     0.101 A 
HETATM    3  C   UNK N   1      27.482  28.812  -3.252  0.00  0.00     0.074 A 
HETATM    4  C   UNK N   1      29.725  29.554  -3.119  0.00  0.00     0.034 A 
HETATM    5  C   UNK N   1      29.075  30.771  -2.886  0.00  0.00     0.052 A 
ENDROOT
BRANCH   2   6
HETATM    6  S   UNK N   1      29.485  26.835  -3.766  0.00  0.00     0.266 S 
HETATM    7  O   UNK N   1      30.786  26.539  -3.003  0.00  0.00    -0.200 OA
HETATM    8  O   UNK N   1      30.036  26.858  -5.198  0.00  0.00    -0.200 OA
BRANCH   6   9
HETATM    9  N   UNK N   1      28.578  25.332  -3.692  0.00  0.00    -0.257 N 
HETATM   10  H   UNK N   1      27.611  25.344  -3.873  0.00  0.00     0.181 HD
BRANCH   9  11
HETATM   11  C   UNK N   1      29.209  24.109  -3.379  0.00  0.00     0.203 A 
HETATM   12  O   UNK N   1      29.625  23.755  -2.184  0.00  0.00    -0.217 OA
HETATM   13  N   UNK N   1      30.218  22.596  -2.227  0.00  0.00    -0.262 N 
HETATM   14  C   UNK N   1      30.199  22.182  -3.513  0.00  0.00     0.055 A 
ATOM     15  HN  UNK N   1      30.623  22.094  -1.437  1.00  0.00     0.194 HD
HETATM   16  C   UNK N   1      29.556  23.128  -4.275  0.00  0.00     0.112 A 
HETATM   17  C   UNK N   1      30.820  20.921  -3.997  0.00  0.00     0.072 C 
HETATM   18 Cl   UNK N   1      29.305  23.123  -6.013  0.00  0.00    -0.077 Cl
ENDBRANCH   9  11
ENDBRANCH   6   9
ENDBRANCH   2   6
BRANCH   3  19
HETATM   19  C   UNK N   1      26.275  27.960  -3.375  0.00  0.00     0.172 C 
HETATM   20  O   UNK N   1      25.995  27.178  -2.479  0.00  0.00    -0.291 OA
BRANCH  19  21
HETATM   21  C   UNK N   1      25.530  27.906  -4.676  0.00  0.00     0.123 C 
BRANCH  21  22
HETATM   22  C   UNK N   1      25.831  26.806  -5.660  0.00  0.00    -0.042 A 
HETATM   23  C   UNK N   1      26.778  27.057  -6.694  0.00  0.00    -0.052 A 
HETATM   24  C   UNK N   1      27.114  26.045  -7.610  0.00  0.00     0.047 A 
HETATM   25  C   UNK N   1      27.440  28.386  -6.829  0.00  0.00     0.049 C 
HETATM   26  C   UNK N   1      26.502  24.809  -7.462  0.00  0.00     0.105 A 
HETATM   27  O   UNK N   1      26.674  23.713  -8.196  0.00  0.00    -0.323 OA
HETATM   28  C   UNK N   1      25.613  24.561  -6.495  0.00  0.00     0.105 A 
HETATM   29  C   UNK N   1      25.860  22.702  -7.677  0.00  0.00     0.352 A 
HETATM   30  O   UNK N   1      25.203  23.297  -6.593  0.00  0.00    -0.323 OA
HETATM   31  C   UNK N   1      25.234  25.527  -5.561  0.00  0.00     0.047 A 
ENDBRANCH  21  22
ENDBRANCH  19  21
ENDBRANCH   3  19
TORSDOF 6
ENDMDL
MODEL 5
REMARK VINA RESULT:      -7.5     20.482     24.985
REMARK  6 active torsions:
REMARK  status: ('A' for Active; 'I' for Inactive)
REMARK    1  A    between atoms: S_2  and  N_10 
REMARK    2  A    between atoms: S_2  and  C_16 
REMARK    3  A    between atoms: N_10  and  C_27 
REMARK    4  A    between atoms: C_13  and  C_14 
REMARK    5  A    between atoms: C_14  and  C_19 
REMARK    6  A    between atoms: C_17  and  C_19 
ROOT
HETATM    1  S   UNK N   1      26.859  22.760  -7.044  0.00  0.00    -0.097 SA
HETATM    2  C   UNK N   1      28.542  23.475  -5.405  0.00  0.00     0.101 A 
HETATM    3  C   UNK N   1      27.186  23.695  -5.715  0.00  0.00     0.074 A 
HETATM    4  C   UNK N   1      29.183  22.566  -6.294  0.00  0.00     0.034 A 
HETATM    5  C   UNK N   1      28.348  22.072  -7.303  0.00  0.00     0.052 A 
ENDROOT
BRANCH   2   6
HETATM    6  S   UNK N   1      29.411  24.115  -3.967  0.00  0.00     0.266 S 
HETATM    7  O   UNK N   1      28.790  23.572  -2.671  0.00  0.00    -0.200 OA
HETATM    8  O   UNK N   1      29.105  25.608  -3.783  0.00  0.00    -0.200 OA
BRANCH   6   9
HETATM    9  N   UNK N   1      31.145  24.010  -3.703  0.00  0.00    -0.257 N 
HETATM   10  H   UNK N   1      31.684  24.833  -3.710  0.00  0.00     0.181 HD
BRANCH   9  11
HETATM   11  C   UNK N   1      31.779  22.769  -3.481  0.00  0.00     0.203 A 
HETATM   12  O   UNK N   1      31.826  22.136  -2.330  0.00  0.00    -0.217 OA
HETATM   13  N   UNK N   1      32.532  21.046  -2.432  0.00  0.00    -0.262 N 
HETATM   14  C   UNK N   1      32.977  20.972  -3.705  0.00  0.00     0.055 A 
ATOM     15  HN  UNK N   1      32.717  20.373  -1.688  1.00  0.00     0.194 HD
HETATM   16  C   UNK N   1      32.508  22.060  -4.404  0.00  0.00     0.112 A 
HETATM   17  C   UNK N   1      33.864  19.896  -4.223  0.00  0.00     0.072 C 
HETATM   18 Cl   UNK N   1      32.833  22.488  -6.075  0.00  0.00    -0.077 Cl
ENDBRANCH   9  11
ENDBRANCH   6   9
ENDBRANCH   2   6
BRANCH   3  19
HETATM   19  C   UNK N   1      26.199  24.584  -5.057  0.00  0.00     0.172 C 
HETATM   20  O   UNK N   1      25.736  24.273  -3.970  0.00  0.00    -0.291 OA
BRANCH  19  21
HETATM   21  C   UNK N   1      25.618  25.742  -5.814  0.00  0.00     0.123 C 
BRANCH  21  22
HETATM   22  C   UNK N   1      26.463  26.963  -6.071  0.00  0.00    -0.042 A 
HETATM   23  C   UNK N   1      26.454  28.012  -5.107  0.00  0.00    -0.052 A 
HETATM   24  C   UNK N   1      27.256  29.151  -5.291  0.00  0.00     0.047 A 
HETATM   25  C   UNK N   1      25.606  27.929  -3.883  0.00  0.00     0.049 C 
HETATM   26  C   UNK N   1      28.051  29.206  -6.427  0.00  0.00     0.105 A 
HETATM   27  O   UNK N   1      28.890  30.170  -6.797  0.00  0.00    -0.323 OA
HETATM   28  C   UNK N   1      28.069  28.227  -7.337  0.00  0.00     0.105 A 
HETATM   29  C   UNK N   1      29.486  29.795  -8.006  0.00  0.00     0.352 A 
HETATM   30  O   UNK N   1      28.925  28.549  -8.306  0.00  0.00    -0.323 OA
HETATM   31  C   UNK N   1      27.289  27.076  -7.213  0.00  0.00     0.047 A 
ENDBRANCH  21  22
ENDBRANCH  19  21
ENDBRANCH   3  19
TORSDOF 6
ENDMDL
MODEL 6
REMARK VINA RESULT:      -7.3     21.310     23.944
REMARK  6 active torsions:
REMARK  status: ('A' for Active; 'I' for Inactive)
REMARK    1  A    between atoms: S_2  and  N_10 
REMARK    2  A    between atoms: S_2  and  C_16 
REMARK    3  A    between atoms: N_10  and  C_27 
REMARK    4  A    between atoms: C_13  and  C_14 
REMARK    5  A    between atoms: C_14  and  C_19 
REMARK    6  A    between atoms: C_17  and  C_19 
ROOT
HETATM    1  S   UNK N   1      30.546  27.881  -6.233  0.00  0.00    -0.097 SA
HETATM    2  C   UNK N   1      28.574  28.419  -4.874  0.00  0.00     0.101 A 
HETATM    3  C   UNK N   1      29.710  27.588  -4.833  0.00  0.00     0.074 A 
HETATM    4  C   UNK N   1      28.497  29.212  -6.054  0.00  0.00     0.034 A 
HETATM    5  C   UNK N   1      29.556  29.009  -6.946  0.00  0.00     0.052 A 
ENDROOT
BRANCH   2   6
HETATM    6  S   UNK N   1      27.377  28.633  -3.548  0.00  0.00     0.266 S 
HETATM    7  O   UNK N   1      26.447  29.820  -3.844  0.00  0.00    -0.200 OA
HETATM    8  O   UNK N   1      28.071  29.168  -2.288  0.00  0.00    -0.200 OA
BRANCH   6   9
HETATM    9  N   UNK N   1      26.311  27.378  -2.936  0.00  0.00    -0.257 N 
HETATM   10  H   UNK N   1      25.726  27.574  -2.169  0.00  0.00     0.181 HD
BRANCH   9  11
HETATM   11  C   UNK N   1      26.276  26.095  -3.523  0.00  0.00     0.203 A 
HETATM   12  O   UNK N   1      26.632  24.979  -2.929  0.00  0.00    -0.217 OA
HETATM   13  N   UNK N   1      26.543  23.971  -3.749  0.00  0.00    -0.262 N 
HETATM   14  C   UNK N   1      26.122  24.455  -4.937  0.00  0.00     0.055 A 
ATOM     15  HN  UNK N   1      26.753  22.996  -3.534  1.00  0.00     0.194 HD
HETATM   16  C   UNK N   1      25.938  25.813  -4.824  0.00  0.00     0.112 A 
HETATM   17  C   UNK N   1      25.938  23.631  -6.161  0.00  0.00     0.072 C 
HETATM   18 Cl   UNK N   1      25.457  26.943  -6.079  0.00  0.00    -0.077 Cl
ENDBRANCH   9  11
ENDBRANCH   6   9
ENDBRANCH   2   6
BRANCH   3  19
HETATM   19  C   UNK N   1      30.124  26.606  -3.803  0.00  0.00     0.172 C 
HETATM   20  O   UNK N   1      30.919  26.939  -2.936  0.00  0.00    -0.291 OA
BRANCH  19  21
HETATM   21  C   UNK N   1      29.739  25.163  -3.951  0.00  0.00     0.123 C 
BRANCH  21  22
HETATM   22  C   UNK N   1      30.808  24.101  -3.917  0.00  0.00    -0.042 A 
HETATM   23  C   UNK N   1      30.681  23.038  -2.976  0.00  0.00    -0.052 A 
HETATM   24  C   UNK N   1      31.637  22.008  -2.938  0.00  0.00     0.047 A 
HETATM   25  C   UNK N   1      29.539  22.984  -2.020  0.00  0.00     0.049 C 
HETATM   26  C   UNK N   1      32.686  22.064  -3.844  0.00  0.00     0.105 A 
HETATM   27  O   UNK N   1      33.688  21.202  -3.996  0.00  0.00    -0.323 OA
HETATM   28  C   UNK N   1      32.814  23.055  -4.732  0.00  0.00     0.105 A 
HETATM   29  C   UNK N   1      34.504  21.653  -5.038  0.00  0.00     0.352 A 
HETATM   30  O   UNK N   1      33.901  22.840  -5.470  0.00  0.00    -0.323 OA
HETATM   31  C   UNK N   1      31.901  24.108  -4.814  0.00  0.00     0.047 A 
ENDBRANCH  21  22
ENDBRANCH  19  21
ENDBRANCH   3  19
TORSDOF 6
ENDMDL
MODEL 7
REMARK VINA RESULT:      -7.3     20.875     23.578
REMARK  6 active torsions:
REMARK  status: ('A' for Active; 'I' for Inactive)
REMARK    1  A    between atoms: S_2  and  N_10 
REMARK    2  A    between atoms: S_2  and  C_16 
REMARK    3  A    between atoms: N_10  and  C_27 
REMARK    4  A    between atoms: C_13  and  C_14 
REMARK    5  A    between atoms: C_14  and  C_19 
REMARK    6  A    between atoms: C_17  and  C_19 
ROOT
HETATM    1  S   UNK N   1      30.762  25.744  -5.325  0.00  0.00    -0.097 SA
HETATM    2  C   UNK N   1      28.504  25.636  -4.368  0.00  0.00     0.101 A 
HETATM    3  C   UNK N   1      29.373  24.856  -5.155  0.00  0.00     0.074 A 
HETATM    4  C   UNK N   1      29.059  26.890  -3.987  0.00  0.00     0.034 A 
HETATM    5  C   UNK N   1      30.354  27.109  -4.470  0.00  0.00     0.052 A 
ENDROOT
BRANCH   2   6
HETATM    6  S   UNK N   1      26.902  25.114  -3.736  0.00  0.00     0.266 S 
HETATM    7  O   UNK N   1      26.277  26.217  -2.867  0.00  0.00    -0.200 OA
HETATM    8  O   UNK N   1      27.082  24.026  -2.668  0.00  0.00    -0.200 OA
BRANCH   6   9
HETATM    9  N   UNK N   1      25.573  24.519  -4.718  0.00  0.00    -0.257 N 
HETATM   10  H   UNK N   1      24.779  24.142  -4.276  0.00  0.00     0.181 HD
BRANCH   9  11
HETATM   11  C   UNK N   1      25.621  24.571  -6.127  0.00  0.00     0.203 A 
HETATM   12  O   UNK N   1      25.567  23.530  -6.928  0.00  0.00    -0.217 OA
HETATM   13  N   UNK N   1      25.695  23.897  -8.171  0.00  0.00    -0.262 N 
HETATM   14  C   UNK N   1      25.853  25.239  -8.180  0.00  0.00     0.055 A 
ATOM     15  HN  UNK N   1      25.680  23.286  -8.987  1.00  0.00     0.194 HD
HETATM   16  C   UNK N   1      25.807  25.701  -6.886  0.00  0.00     0.112 A 
HETATM   17  C   UNK N   1      26.080  26.048  -9.407  0.00  0.00     0.072 C 
HETATM   18 Cl   UNK N   1      26.017  27.351  -6.323  0.00  0.00    -0.077 Cl
ENDBRANCH   9  11
ENDBRANCH   6   9
ENDBRANCH   2   6
BRANCH   3  19
HETATM   19  C   UNK N   1      29.154  23.524  -5.767  0.00  0.00     0.172 C 
HETATM   20  O   UNK N   1      28.731  23.447  -6.910  0.00  0.00    -0.291 OA
BRANCH  19  21
HETATM   21  C   UNK N   1      29.246  22.289  -4.918  0.00  0.00     0.123 C 
BRANCH  21  22
HETATM   22  C   UNK N   1      30.600  21.729  -4.566  0.00  0.00    -0.042 A 
HETATM   23  C   UNK N   1      31.146  22.023  -3.283  0.00  0.00    -0.052 A 
HETATM   24  C   UNK N   1      32.389  21.489  -2.902  0.00  0.00     0.047 A 
HETATM   25  C   UNK N   1      30.418  22.892  -2.315  0.00  0.00     0.049 C 
HETATM   26  C   UNK N   1      33.046  20.669  -3.808  0.00  0.00     0.105 A 
HETATM   27  O   UNK N   1      34.215  20.050  -3.658  0.00  0.00    -0.323 OA
HETATM   28  C   UNK N   1      32.543  20.384  -5.013  0.00  0.00     0.105 A 
HETATM   29  C   UNK N   1      34.481  19.324  -4.823  0.00  0.00     0.352 A 
HETATM   30  O   UNK N   1      33.383  19.574  -5.655  0.00  0.00    -0.323 OA
HETATM   31  C   UNK N   1      31.318  20.891  -5.450  0.00  0.00     0.047 A 
ENDBRANCH  21  22
ENDBRANCH  19  21
ENDBRANCH   3  19
TORSDOF 6
ENDMDL
MODEL 8
REMARK VINA RESULT:      -7.2      3.649      9.671
REMARK  6 active torsions:
REMARK  status: ('A' for Active; 'I' for Inactive)
REMARK    1  A    between atoms: S_2  and  N_10 
REMARK    2  A    between atoms: S_2  and  C_16 
REMARK    3  A    between atoms: N_10  and  C_27 
REMARK    4  A    between atoms: C_13  and  C_14 
REMARK    5  A    between atoms: C_14  and  C_19 
REMARK    6  A    between atoms: C_17  and  C_19 
ROOT
HETATM    1  S   UNK N   1      35.286  12.288   7.649  0.00  0.00    -0.097 SA
HETATM    2  C   UNK N   1      35.732  13.735   9.582  0.00  0.00     0.101 A 
HETATM    3  C   UNK N   1      34.726  13.505   8.625  0.00  0.00     0.074 A 
HETATM    4  C   UNK N   1      36.870  12.894   9.418  0.00  0.00     0.034 A 
HETATM    5  C   UNK N   1      36.772  12.009   8.338  0.00  0.00     0.052 A 
ENDROOT
BRANCH   2   6
HETATM    6  S   UNK N   1      35.612  14.847  10.991  0.00  0.00     0.266 S 
HETATM    7  O   UNK N   1      34.143  15.067  11.384  0.00  0.00    -0.200 OA
HETATM    8  O   UNK N   1      35.974  16.278  10.569  0.00  0.00    -0.200 OA
BRANCH   6   9
HETATM    9  N   UNK N   1      36.452  14.638  12.519  0.00  0.00    -0.257 N 
HETATM   10  H   UNK N   1      37.331  15.061  12.648  0.00  0.00     0.181 HD
BRANCH   9  11
HETATM   11  C   UNK N   1      35.892  13.874  13.565  0.00  0.00     0.203 A 
HETATM   12  O   UNK N   1      34.944  12.975  13.425  0.00  0.00    -0.217 OA
HETATM   13  N   UNK N   1      34.599  12.484  14.581  0.00  0.00    -0.262 N 
HETATM   14  C   UNK N   1      35.349  13.102  15.520  0.00  0.00     0.055 A 
ATOM     15  HN  UNK N   1      33.893  11.767  14.748  1.00  0.00     0.194 HD
HETATM   16  C   UNK N   1      36.190  13.995  14.900  0.00  0.00     0.112 A 
HETATM   17  C   UNK N   1      35.227  12.860  16.982  0.00  0.00     0.072 C 
HETATM   18 Cl   UNK N   1      37.330  15.099  15.651  0.00  0.00    -0.077 Cl
ENDBRANCH   9  11
ENDBRANCH   6   9
ENDBRANCH   2   6
BRANCH   3  19
HETATM   19  C   UNK N   1      33.422  14.187   8.442  0.00  0.00     0.172 C 
HETATM   20  O   UNK N   1      32.385  13.574   8.645  0.00  0.00    -0.291 OA
BRANCH  19  21
HETATM   21  C   UNK N   1      33.375  15.547   7.810  0.00  0.00     0.123 C 
BRANCH  21  22
HETATM   22  C   UNK N   1      32.053  16.255   7.665  0.00  0.00    -0.042 A 
HETATM   23  C   UNK N   1      31.365  16.166   6.420  0.00  0.00    -0.052 A 
HETATM   24  C   UNK N   1      30.112  16.780   6.256  0.00  0.00     0.047 A 
HETATM   25  C   UNK N   1      31.947  15.418   5.269  0.00  0.00     0.049 C 
HETATM   26  C   UNK N   1      29.577  17.459   7.342  0.00  0.00     0.105 A 
HETATM   27  O   UNK N   1      28.413  18.098   7.419  0.00  0.00    -0.323 OA
HETATM   28  C   UNK N   1      30.211  17.548   8.515  0.00  0.00     0.105 A 
HETATM   29  C   UNK N   1      28.283  18.624   8.708  0.00  0.00     0.352 A 
HETATM   30  O   UNK N   1      29.460  18.245   9.365  0.00  0.00    -0.323 OA
HETATM   31  C   UNK N   1      31.461  16.965   8.736  0.00  0.00     0.047 A 
ENDBRANCH  21  22
ENDBRANCH  19  21
ENDBRANCH   3  19
TORSDOF 6
ENDMDL
MODEL 9
REMARK VINA RESULT:      -7.2      3.028      5.163
REMARK  6 active torsions:
REMARK  status: ('A' for Active; 'I' for Inactive)
REMARK    1  A    between atoms: S_2  and  N_10 
REMARK    2  A    between atoms: S_2  and  C_16 
REMARK    3  A    between atoms: N_10  and  C_27 
REMARK    4  A    between atoms: C_13  and  C_14 
REMARK    5  A    between atoms: C_14  and  C_19 
REMARK    6  A    between atoms: C_17  and  C_19 
ROOT
HETATM    1  S   UNK N   1      37.694  12.966   7.158  0.00  0.00    -0.097 SA
HETATM    2  C   UNK N   1      35.598  12.543   8.363  0.00  0.00     0.101 A 
HETATM    3  C   UNK N   1      36.855  13.140   8.576  0.00  0.00     0.074 A 
HETATM    4  C   UNK N   1      35.447  11.995   7.058  0.00  0.00     0.034 A 
HETATM    5  C   UNK N   1      36.575  12.148   6.243  0.00  0.00     0.052 A 
ENDROOT
BRANCH   2   6
HETATM    6  S   UNK N   1      34.214  12.563   9.513  0.00  0.00     0.266 S 
HETATM    7  O   UNK N   1      34.336  11.415  10.528  0.00  0.00    -0.200 OA
HETATM    8  O   UNK N   1      32.926  12.129   8.800  0.00  0.00    -0.200 OA
BRANCH   6   9
HETATM    9  N   UNK N   1      33.715  13.948  10.471  0.00  0.00    -0.257 N 
HETATM   10  H   UNK N   1      33.109  13.813  11.235  0.00  0.00     0.181 HD
BRANCH   9  11
HETATM   11  C   UNK N   1      34.165  15.251  10.167  0.00  0.00     0.203 A 
HETATM   12  O   UNK N   1      34.807  16.044  10.995  0.00  0.00    -0.217 OA
HETATM   13  N   UNK N   1      35.035  17.201  10.441  0.00  0.00    -0.262 N 
HETATM   14  C   UNK N   1      34.506  17.163   9.199  0.00  0.00     0.055 A 
ATOM     15  HN  UNK N   1      35.522  17.990  10.867  1.00  0.00     0.194 HD
HETATM   16  C   UNK N   1      33.945  15.926   8.991  0.00  0.00     0.112 A 
HETATM   17  C   UNK N   1      34.511  18.309   8.251  0.00  0.00     0.072 C 
HETATM   18 Cl   UNK N   1      33.073  15.362   7.575  0.00  0.00    -0.077 Cl
ENDBRANCH   9  11
ENDBRANCH   6   9
ENDBRANCH   2   6
BRANCH   3  19
HETATM   19  C   UNK N   1      37.401  13.782   9.796  0.00  0.00     0.172 C 
HETATM   20  O   UNK N   1      37.494  15.000   9.847  0.00  0.00    -0.291 OA
BRANCH  19  21
HETATM   21  C   UNK N   1      38.030  12.938  10.865  0.00  0.00     0.123 C 
BRANCH  21  22
HETATM   22  C   UNK N   1      37.197  12.473  12.032  0.00  0.00    -0.042 A 
HETATM   23  C   UNK N   1      37.194  11.085  12.356  0.00  0.00    -0.052 A 
HETATM   24  C   UNK N   1      36.459  10.617  13.458  0.00  0.00     0.047 A 
HETATM   25  C   UNK N   1      37.968  10.102  11.546  0.00  0.00     0.049 C 
HETATM   26  C   UNK N   1      35.756  11.546  14.211  0.00  0.00     0.105 A 
HETATM   27  O   UNK N   1      35.011  11.334  15.292  0.00  0.00    -0.323 OA
HETATM   28  C   UNK N   1      35.753  12.851  13.918  0.00  0.00     0.105 A 
HETATM   29  C   UNK N   1      34.503  12.563  15.726  0.00  0.00     0.352 A 
HETATM   30  O   UNK N   1      35.006  13.496  14.812  0.00  0.00    -0.323 OA
HETATM   31  C   UNK N   1      36.457  13.375  12.832  0.00  0.00     0.047 A 
ENDBRANCH  21  22
ENDBRANCH  19  21
ENDBRANCH   3  19
TORSDOF 6
ENDMDL
