MODEL 1
REMARK VINA RESULT:      -7.4      0.000      0.000
REMARK  5 active torsions:
REMARK  status: ('A' for Active; 'I' for Inactive)
REMARK    1  A    between atoms: O_2  and  C_21 
REMARK    2  A    between atoms: O_4  and  C_28 
REMARK    3  A    between atoms: N_6  and  C_19 
REMARK    4  A    between atoms: N_8  and  C_14 
REMARK    5  A    between atoms: C_26  and  C_28 
ROOT
HETATM    1  F   UNK N   1      28.112  20.308   3.807  0.00  0.00    -0.204 F 
HETATM    2  O   UNK N   1      23.384  21.274   2.941  0.00  0.00    -0.286 OA
HETATM    3  N   UNK N   1      23.330  17.458   4.201  0.00  0.00    -0.348 N 
HETATM    4  C   UNK N   1      27.015  18.229   4.326  0.00  0.00     0.105 A 
HETATM    5  C   UNK N   1      24.552  18.114   4.094  0.00  0.00     0.085 A 
HETATM    6  C   UNK N   1      25.801  17.482   4.395  0.00  0.00     0.125 A 
HETATM    7  C   UNK N   1      24.569  19.465   3.651  0.00  0.00     0.048 A 
HETATM    8  C   UNK N   1      26.984  19.559   3.870  0.00  0.00     0.146 A 
HETATM    9  C   UNK N   1      22.176  18.093   3.849  0.00  0.00     0.114 A 
HETATM   10  C   UNK N   1      25.778  20.156   3.537  0.00  0.00     0.062 A 
HETATM   11  C   UNK N   1      22.155  19.414   3.410  0.00  0.00     0.104 A 
HETATM   12  C   UNK N   1      23.368  20.111   3.316  0.00  0.00     0.202 A 
ENDROOT
BRANCH   4  13
HETATM   13  N   UNK N   1      28.240  17.656   4.793  0.00  0.00    -0.374 N 
HETATM   14  C   UNK N   1      29.314  17.235   3.926  0.00  0.00     0.130 C 
HETATM   15  C   UNK N   1      30.551  17.526   4.757  0.00  0.00     0.028 C 
HETATM   16  C   UNK N   1      30.066  17.348   6.206  0.00  0.00     0.100 C 
HETATM   17  C   UNK N   1      31.768  16.659   4.430  0.00  0.00     0.010 C 
HETATM   18  N   UNK N   1      29.932  15.930   6.558  0.00  0.00    -0.415 N 
HETATM   19  C   UNK N   1      28.674  17.929   6.145  0.00  0.00     0.148 C 
HETATM   20  C   UNK N   1      31.215  15.253   6.397  0.00  0.00     0.114 C 
HETATM   21  H   UNK N   1      29.070  15.483   6.871  0.00  0.00     0.153 HD
HETATM   22  C   UNK N   1      31.585  15.226   4.921  0.00  0.00     0.020 C 
ENDBRANCH   4  13
BRANCH   6  23
HETATM   23  O   UNK N   1      25.817  16.159   4.704  0.00  0.00    -0.351 OA
HETATM   24  C   UNK N   1      26.234  15.166   3.842  0.00  0.00     0.210 C 
ENDBRANCH   6  23
BRANCH   3  25
HETATM   25  C   UNK N   1      23.181  16.072   4.683  0.00  0.00     0.090 A 
HETATM   26  C   UNK N   1      22.696  16.062   6.135  0.00  0.00     0.028 A 
HETATM   27  C   UNK N   1      21.727  15.749   5.032  0.00  0.00     0.028 A 
ENDBRANCH   3  25
BRANCH  11  28
HETATM   28  C   UNK N   1      20.843  20.025   3.070  0.00  0.00     0.181 C 
HETATM   29  O   UNK N   1      19.895  19.331   2.737  0.00  0.00    -0.646 OA
BRANCH  28  30
HETATM   30  O   UNK N   1      20.691  21.364   3.125  0.00  0.00    -0.772 OA
HETATM   31  H   UNK N   1      21.414  21.909   3.364  0.00  0.00     0.167 HD
ENDBRANCH  28  30
ENDBRANCH  11  28
TORSDOF 5
ENDMDL
MODEL 2
REMARK VINA RESULT:      -7.1      4.328      8.568
REMARK  5 active torsions:
REMARK  status: ('A' for Active; 'I' for Inactive)
REMARK    1  A    between atoms: O_2  and  C_21 
REMARK    2  A    between atoms: O_4  and  C_28 
REMARK    3  A    between atoms: N_6  and  C_19 
REMARK    4  A    between atoms: N_8  and  C_14 
REMARK    5  A    between atoms: C_26  and  C_28 
ROOT
HETATM    1  F   UNK N   1      31.138  14.888   2.891  0.00  0.00    -0.204 F 
HETATM    2  O   UNK N   1      34.388  16.721   6.071  0.00  0.00    -0.286 OA
HETATM    3  N   UNK N   1      30.849  17.582   7.770  0.00  0.00    -0.348 N 
HETATM    4  C   UNK N   1      29.753  15.855   4.607  0.00  0.00     0.105 A 
HETATM    5  C   UNK N   1      30.864  16.934   6.540  0.00  0.00     0.085 A 
HETATM    6  C   UNK N   1      29.670  16.575   5.837  0.00  0.00     0.125 A 
HETATM    7  C   UNK N   1      32.118  16.627   5.942  0.00  0.00     0.048 A 
HETATM    8  C   UNK N   1      31.015  15.585   4.047  0.00  0.00     0.146 A 
HETATM    9  C   UNK N   1      32.018  17.948   8.369  0.00  0.00     0.114 A 
HETATM   10  C   UNK N   1      32.171  15.973   4.708  0.00  0.00     0.062 A 
HETATM   11  C   UNK N   1      33.262  17.665   7.813  0.00  0.00     0.104 A 
HETATM   12  C   UNK N   1      33.312  16.990   6.584  0.00  0.00     0.202 A 
ENDROOT
BRANCH   4  13
HETATM   13  N   UNK N   1      28.568  15.342   3.992  0.00  0.00    -0.374 N 
HETATM   14  C   UNK N   1      27.785  16.069   3.023  0.00  0.00     0.130 C 
HETATM   15  C   UNK N   1      27.267  14.968   2.114  0.00  0.00     0.028 C 
HETATM   16  C   UNK N   1      27.156  13.749   3.045  0.00  0.00     0.100 C 
HETATM   17  C   UNK N   1      25.955  15.286   1.395  0.00  0.00     0.010 C 
HETATM   18  N   UNK N   1      25.978  13.843   3.915  0.00  0.00    -0.415 N 
HETATM   19  C   UNK N   1      28.375  13.910   3.921  0.00  0.00     0.148 C 
HETATM   20  C   UNK N   1      24.767  13.939   3.106  0.00  0.00     0.114 C 
HETATM   21  H   UNK N   1      26.002  13.841   4.935  0.00  0.00     0.153 HD
HETATM   22  C   UNK N   1      24.770  15.263   2.356  0.00  0.00     0.020 C 
ENDBRANCH   4  13
BRANCH   6  23
HETATM   23  O   UNK N   1      28.467  16.965   6.332  0.00  0.00    -0.351 OA
HETATM   24  C   UNK N   1      27.776  18.080   5.905  0.00  0.00     0.210 C 
ENDBRANCH   6  23
BRANCH   3  25
HETATM   25  C   UNK N   1      29.616  17.919   8.506  0.00  0.00     0.090 A 
HETATM   26  C   UNK N   1      29.575  17.180   9.846  0.00  0.00     0.028 A 
HETATM   27  C   UNK N   1      29.921  18.640   9.820  0.00  0.00     0.028 A 
ENDBRANCH   3  25
BRANCH  11  28
HETATM   28  C   UNK N   1      34.480  18.088   8.553  0.00  0.00     0.181 C 
HETATM   29  O   UNK N   1      34.785  17.561   9.612  0.00  0.00    -0.646 OA
BRANCH  28  30
HETATM   30  O   UNK N   1      35.262  19.067   8.056  0.00  0.00    -0.772 OA
HETATM   31  H   UNK N   1      36.159  18.893   7.848  0.00  0.00     0.167 HD
ENDBRANCH  28  30
ENDBRANCH  11  28
TORSDOF 5
ENDMDL
MODEL 3
REMARK VINA RESULT:      -6.8      3.459      6.061
REMARK  5 active torsions:
REMARK  status: ('A' for Active; 'I' for Inactive)
REMARK    1  A    between atoms: O_2  and  C_21 
REMARK    2  A    between atoms: O_4  and  C_28 
REMARK    3  A    between atoms: N_6  and  C_19 
REMARK    4  A    between atoms: N_8  and  C_14 
REMARK    5  A    between atoms: C_26  and  C_28 
ROOT
HETATM    1  F   UNK N   1      30.459  18.640   9.752  0.00  0.00    -0.204 F 
HETATM    2  O   UNK N   1      26.829  19.376   6.540  0.00  0.00    -0.286 OA
HETATM    3  N   UNK N   1      29.382  17.019   4.521  0.00  0.00    -0.348 N 
HETATM    4  C   UNK N   1      31.187  17.429   7.801  0.00  0.00     0.105 A 
HETATM    5  C   UNK N   1      29.712  17.417   5.812  0.00  0.00     0.085 A 
HETATM    6  C   UNK N   1      30.936  17.040   6.452  0.00  0.00     0.125 A 
HETATM    7  C   UNK N   1      28.805  18.248   6.526  0.00  0.00     0.048 A 
HETATM    8  C   UNK N   1      30.267  18.263   8.464  0.00  0.00     0.146 A 
HETATM    9  C   UNK N   1      28.226  17.453   3.942  0.00  0.00     0.114 A 
HETATM   10  C   UNK N   1      29.103  18.664   7.827  0.00  0.00     0.062 A 
HETATM   11  C   UNK N   1      27.317  18.268   4.610  0.00  0.00     0.104 A 
HETATM   12  C   UNK N   1      27.608  18.666   5.923  0.00  0.00     0.202 A 
ENDROOT
BRANCH   4  13
HETATM   13  N   UNK N   1      32.322  16.911   8.501  0.00  0.00    -0.374 N 
HETATM   14  C   UNK N   1      32.437  15.543   8.947  0.00  0.00     0.130 C 
HETATM   15  C   UNK N   1      33.926  15.271   8.814  0.00  0.00     0.028 C 
HETATM   16  C   UNK N   1      34.570  16.647   9.051  0.00  0.00     0.100 C 
HETATM   17  C   UNK N   1      34.471  14.192   9.751  0.00  0.00     0.010 C 
HETATM   18  N   UNK N   1      34.570  17.003  10.475  0.00  0.00    -0.415 N 
HETATM   19  C   UNK N   1      33.600  17.573   8.358  0.00  0.00     0.148 C 
HETATM   20  C   UNK N   1      35.299  15.995  11.240  0.00  0.00     0.114 C 
HETATM   21  H   UNK N   1      34.128  17.832  10.871  0.00  0.00     0.153 HD
HETATM   22  C   UNK N   1      34.532  14.682  11.194  0.00  0.00     0.020 C 
ENDBRANCH   4  13
BRANCH   6  23
HETATM   23  O   UNK N   1      31.867  16.347   5.745  0.00  0.00    -0.351 OA
HETATM   24  C   UNK N   1      32.957  16.923   5.126  0.00  0.00     0.210 C 
ENDBRANCH   6  23
BRANCH   3  25
HETATM   25  C   UNK N   1      30.221  16.130   3.696  0.00  0.00     0.090 A 
HETATM   26  C   UNK N   1      29.692  14.694   3.752  0.00  0.00     0.028 A 
HETATM   27  C   UNK N   1      29.431  15.528   2.532  0.00  0.00     0.028 A 
ENDBRANCH   3  25
BRANCH  11  28
HETATM   28  C   UNK N   1      26.074  18.671   3.900  0.00  0.00     0.181 C 
HETATM   29  O   UNK N   1      25.372  17.842   3.344  0.00  0.00    -0.646 OA
BRANCH  28  30
HETATM   30  O   UNK N   1      25.713  19.970   3.864  0.00  0.00    -0.772 OA
HETATM   31  H   UNK N   1      25.972  20.549   4.553  0.00  0.00     0.167 HD
ENDBRANCH  28  30
ENDBRANCH  11  28
TORSDOF 5
ENDMDL
MODEL 4
REMARK VINA RESULT:      -6.7     10.291     13.266
REMARK  5 active torsions:
REMARK  status: ('A' for Active; 'I' for Inactive)
REMARK    1  A    between atoms: O_2  and  C_21 
REMARK    2  A    between atoms: O_4  and  C_28 
REMARK    3  A    between atoms: N_6  and  C_19 
REMARK    4  A    between atoms: N_8  and  C_14 
REMARK    5  A    between atoms: C_26  and  C_28 
ROOT
HETATM    1  F   UNK N   1      36.364  14.414  14.029  0.00  0.00    -0.204 F 
HETATM    2  O   UNK N   1      35.371  17.703  10.532  0.00  0.00    -0.286 OA
HETATM    3  N   UNK N   1      34.987  14.187   8.626  0.00  0.00    -0.348 N 
HETATM    4  C   UNK N   1      35.950  13.053  12.086  0.00  0.00     0.105 A 
HETATM    5  C   UNK N   1      35.360  14.188   9.965  0.00  0.00     0.085 A 
HETATM    6  C   UNK N   1      35.634  12.988  10.696  0.00  0.00     0.125 A 
HETATM    7  C   UNK N   1      35.491  15.433  10.639  0.00  0.00     0.048 A 
HETATM    8  C   UNK N   1      36.082  14.308  12.708  0.00  0.00     0.146 A 
HETATM    9  C   UNK N   1      34.791  15.363   7.965  0.00  0.00     0.114 A 
HETATM   10  C   UNK N   1      35.860  15.472  11.987  0.00  0.00     0.062 A 
HETATM   11  C   UNK N   1      34.912  16.600   8.592  0.00  0.00     0.104 A 
HETATM   12  C   UNK N   1      35.261  16.634   9.951  0.00  0.00     0.202 A 
ENDROOT
BRANCH   4  13
HETATM   13  N   UNK N   1      36.052  11.853  12.859  0.00  0.00    -0.374 N 
HETATM   14  C   UNK N   1      37.285  11.362  13.423  0.00  0.00     0.130 C 
HETATM   15  C   UNK N   1      36.826  10.705  14.714  0.00  0.00     0.028 C 
HETATM   16  C   UNK N   1      35.402  10.223  14.391  0.00  0.00     0.100 C 
HETATM   17  C   UNK N   1      37.730   9.582  15.225  0.00  0.00     0.010 C 
HETATM   18  N   UNK N   1      35.420   9.013  13.561  0.00  0.00    -0.415 N 
HETATM   19  C   UNK N   1      34.876  11.349  13.533  0.00  0.00     0.148 C 
HETATM   20  C   UNK N   1      36.141   7.947  14.249  0.00  0.00     0.114 C 
HETATM   21  H   UNK N   1      34.990   8.929  12.640  0.00  0.00     0.153 HD
HETATM   22  C   UNK N   1      37.609   8.330  14.363  0.00  0.00     0.020 C 
ENDBRANCH   4  13
BRANCH   6  23
HETATM   23  O   UNK N   1      35.630  11.798  10.041  0.00  0.00    -0.351 OA
HETATM   24  C   UNK N   1      36.766  11.076   9.738  0.00  0.00     0.210 C 
ENDBRANCH   6  23
BRANCH   3  25
HETATM   25  C   UNK N   1      34.782  12.961   7.831  0.00  0.00     0.090 A 
HETATM   26  C   UNK N   1      33.288  12.665   7.683  0.00  0.00     0.028 A 
HETATM   27  C   UNK N   1      34.041  13.252   6.525  0.00  0.00     0.028 A 
ENDBRANCH   3  25
BRANCH  11  28
HETATM   28  C   UNK N   1      34.657  17.827   7.792  0.00  0.00     0.181 C 
HETATM   29  O   UNK N   1      34.204  17.754   6.660  0.00  0.00    -0.646 OA
BRANCH  28  30
HETATM   30  O   UNK N   1      34.930  19.039   8.315  0.00  0.00    -0.772 OA
HETATM   31  H   UNK N   1      34.355  19.761   8.155  0.00  0.00     0.167 HD
ENDBRANCH  28  30
ENDBRANCH  11  28
TORSDOF 5
ENDMDL
MODEL 5
REMARK VINA RESULT:      -6.5      4.436      8.597
REMARK  5 active torsions:
REMARK  status: ('A' for Active; 'I' for Inactive)
REMARK    1  A    between atoms: O_2  and  C_21 
REMARK    2  A    between atoms: O_4  and  C_28 
REMARK    3  A    between atoms: N_6  and  C_19 
REMARK    4  A    between atoms: N_8  and  C_14 
REMARK    5  A    between atoms: C_26  and  C_28 
ROOT
HETATM    1  F   UNK N   1      26.847  17.390   6.852  0.00  0.00    -0.204 F 
HETATM    2  O   UNK N   1      31.267  18.301   8.767  0.00  0.00    -0.286 OA
HETATM    3  N   UNK N   1      32.106  16.070   5.531  0.00  0.00    -0.348 N 
HETATM    4  C   UNK N   1      28.346  16.225   5.371  0.00  0.00     0.105 A 
HETATM    5  C   UNK N   1      30.776  16.346   5.831  0.00  0.00     0.085 A 
HETATM    6  C   UNK N   1      29.685  15.853   5.047  0.00  0.00     0.125 A 
HETATM    7  C   UNK N   1      30.482  17.139   6.974  0.00  0.00     0.048 A 
HETATM    8  C   UNK N   1      28.102  17.000   6.519  0.00  0.00     0.146 A 
HETATM    9  C   UNK N   1      33.103  16.522   6.344  0.00  0.00     0.114 A 
HETATM   10  C   UNK N   1      29.158  17.440   7.303  0.00  0.00     0.062 A 
HETATM   11  C   UNK N   1      32.851  17.298   7.472  0.00  0.00     0.104 A 
HETATM   12  C   UNK N   1      31.522  17.617   7.787  0.00  0.00     0.202 A 
ENDROOT
BRANCH   4  13
HETATM   13  N   UNK N   1      27.270  15.881   4.492  0.00  0.00    -0.374 N 
HETATM   14  C   UNK N   1      26.287  14.867   4.783  0.00  0.00     0.130 C 
HETATM   15  C   UNK N   1      25.033  15.416   4.125  0.00  0.00     0.028 C 
HETATM   16  C   UNK N   1      25.571  16.231   2.937  0.00  0.00     0.100 C 
HETATM   17  C   UNK N   1      24.009  14.361   3.704  0.00  0.00     0.010 C 
HETATM   18  N   UNK N   1      25.995  15.359   1.835  0.00  0.00    -0.415 N 
HETATM   19  C   UNK N   1      26.817  16.853   3.521  0.00  0.00     0.148 C 
HETATM   20  C   UNK N   1      24.871  14.543   1.385  0.00  0.00     0.114 C 
HETATM   21  H   UNK N   1      26.935  15.329   1.441  0.00  0.00     0.153 HD
HETATM   22  C   UNK N   1      24.486  13.570   2.490  0.00  0.00     0.020 C 
ENDBRANCH   4  13
BRANCH   6  23
HETATM   23  O   UNK N   1      29.939  14.998   4.022  0.00  0.00    -0.351 OA
HETATM   24  C   UNK N   1      29.709  13.638   4.072  0.00  0.00     0.210 C 
ENDBRANCH   6  23
BRANCH   3  25
HETATM   25  C   UNK N   1      32.538  15.293   4.354  0.00  0.00     0.090 A 
HETATM   26  C   UNK N   1      33.127  16.221   3.289  0.00  0.00     0.028 A 
HETATM   27  C   UNK N   1      34.049  15.393   4.136  0.00  0.00     0.028 A 
ENDBRANCH   3  25
BRANCH  11  28
HETATM   28  C   UNK N   1      34.008  17.761   8.284  0.00  0.00     0.181 C 
HETATM   29  O   UNK N   1      34.861  18.489   7.803  0.00  0.00    -0.646 OA
BRANCH  28  30
HETATM   30  O   UNK N   1      34.123  17.372   9.570  0.00  0.00    -0.772 OA
HETATM   31  H   UNK N   1      33.629  16.642   9.887  0.00  0.00     0.167 HD
ENDBRANCH  28  30
ENDBRANCH  11  28
TORSDOF 5
ENDMDL
MODEL 6
REMARK VINA RESULT:      -6.5      3.844      8.902
REMARK  5 active torsions:
REMARK  status: ('A' for Active; 'I' for Inactive)
REMARK    1  A    between atoms: O_2  and  C_21 
REMARK    2  A    between atoms: O_4  and  C_28 
REMARK    3  A    between atoms: N_6  and  C_19 
REMARK    4  A    between atoms: N_8  and  C_14 
REMARK    5  A    between atoms: C_26  and  C_28 
ROOT
HETATM    1  F   UNK N   1      28.212  18.595   8.103  0.00  0.00    -0.204 F 
HETATM    2  O   UNK N   1      32.339  16.107   9.008  0.00  0.00    -0.286 OA
HETATM    3  N   UNK N   1      31.993  15.896   5.010  0.00  0.00    -0.348 N 
HETATM    4  C   UNK N   1      28.916  17.870   5.918  0.00  0.00     0.105 A 
HETATM    5  C   UNK N   1      31.008  16.557   5.736  0.00  0.00     0.085 A 
HETATM    6  C   UNK N   1      29.859  17.151   5.123  0.00  0.00     0.125 A 
HETATM    7  C   UNK N   1      31.134  16.634   7.150  0.00  0.00     0.048 A 
HETATM    8  C   UNK N   1      29.075  17.908   7.315  0.00  0.00     0.146 A 
HETATM    9  C   UNK N   1      33.039  15.302   5.652  0.00  0.00     0.114 A 
HETATM   10  C   UNK N   1      30.165  17.293   7.911  0.00  0.00     0.062 A 
HETATM   11  C   UNK N   1      33.193  15.355   7.034  0.00  0.00     0.104 A 
HETATM   12  C   UNK N   1      32.230  16.037   7.793  0.00  0.00     0.202 A 
ENDROOT
BRANCH   4  13
HETATM   13  N   UNK N   1      27.865  18.612   5.292  0.00  0.00    -0.374 N 
HETATM   14  C   UNK N   1      26.498  18.158   5.209  0.00  0.00     0.130 C 
HETATM   15  C   UNK N   1      25.708  19.453   5.295  0.00  0.00     0.028 C 
HETATM   16  C   UNK N   1      26.645  20.494   4.661  0.00  0.00     0.100 C 
HETATM   17  C   UNK N   1      24.330  19.414   4.631  0.00  0.00     0.010 C 
HETATM   18  N   UNK N   1      26.664  20.382   3.198  0.00  0.00    -0.415 N 
HETATM   19  C   UNK N   1      27.997  20.047   5.162  0.00  0.00     0.148 C 
HETATM   20  C   UNK N   1      25.316  20.565   2.667  0.00  0.00     0.114 C 
HETATM   21  H   UNK N   1      27.495  20.202   2.635  0.00  0.00     0.153 HD
HETATM   22  C   UNK N   1      24.442  19.401   3.110  0.00  0.00     0.020 C 
ENDBRANCH   4  13
BRANCH   6  23
HETATM   23  O   UNK N   1      29.659  16.986   3.789  0.00  0.00    -0.351 OA
HETATM   24  C   UNK N   1      28.750  16.103   3.245  0.00  0.00     0.210 C 
ENDBRANCH   6  23
BRANCH   3  25
HETATM   25  C   UNK N   1      31.993  15.783   3.539  0.00  0.00     0.090 A 
HETATM   26  C   UNK N   1      32.874  16.870   2.920  0.00  0.00     0.028 A 
HETATM   27  C   UNK N   1      33.387  15.462   2.997  0.00  0.00     0.028 A 
ENDBRANCH   3  25
BRANCH  11  28
HETATM   28  C   UNK N   1      34.379  14.693   7.639  0.00  0.00     0.181 C 
HETATM   29  O   UNK N   1      34.721  13.575   7.286  0.00  0.00    -0.646 OA
BRANCH  28  30
HETATM   30  O   UNK N   1      35.089  15.329   8.593  0.00  0.00    -0.772 OA
HETATM   31  H   UNK N   1      34.776  16.135   8.953  0.00  0.00     0.167 HD
ENDBRANCH  28  30
ENDBRANCH  11  28
TORSDOF 5
ENDMDL
MODEL 7
REMARK VINA RESULT:      -6.5      8.468     10.966
REMARK  5 active torsions:
REMARK  status: ('A' for Active; 'I' for Inactive)
REMARK    1  A    between atoms: O_2  and  C_21 
REMARK    2  A    between atoms: O_4  and  C_28 
REMARK    3  A    between atoms: N_6  and  C_19 
REMARK    4  A    between atoms: N_8  and  C_14 
REMARK    5  A    between atoms: C_26  and  C_28 
ROOT
HETATM    1  F   UNK N   1      35.204  17.180  10.303  0.00  0.00    -0.204 F 
HETATM    2  O   UNK N   1      33.635  18.002   5.731  0.00  0.00    -0.286 OA
HETATM    3  N   UNK N   1      34.130  14.015   5.834  0.00  0.00    -0.348 N 
HETATM    4  C   UNK N   1      35.185  14.983   9.317  0.00  0.00     0.105 A 
HETATM    5  C   UNK N   1      34.439  14.760   6.966  0.00  0.00     0.085 A 
HETATM    6  C   UNK N   1      34.947  14.171   8.168  0.00  0.00     0.125 A 
HETATM    7  C   UNK N   1      34.259  16.170   6.929  0.00  0.00     0.048 A 
HETATM    8  C   UNK N   1      35.006  16.376   9.230  0.00  0.00     0.146 A 
HETATM    9  C   UNK N   1      33.699  14.635   4.699  0.00  0.00     0.114 A 
HETATM   10  C   UNK N   1      34.556  16.950   8.050  0.00  0.00     0.062 A 
HETATM   11  C   UNK N   1      33.514  16.013   4.626  0.00  0.00     0.104 A 
HETATM   12  C   UNK N   1      33.792  16.790   5.760  0.00  0.00     0.202 A 
ENDROOT
BRANCH   4  13
HETATM   13  N   UNK N   1      35.524  14.379  10.569  0.00  0.00    -0.374 N 
HETATM   14  C   UNK N   1      34.628  13.540  11.327  0.00  0.00     0.130 C 
HETATM   15  C   UNK N   1      35.571  12.543  11.978  0.00  0.00     0.028 C 
HETATM   16  C   UNK N   1      36.875  13.337  12.156  0.00  0.00     0.100 C 
HETATM   17  C   UNK N   1      35.065  11.935  13.287  0.00  0.00     0.010 C 
HETATM   18  N   UNK N   1      36.785  14.274  13.282  0.00  0.00    -0.415 N 
HETATM   19  C   UNK N   1      36.918  14.160  10.890  0.00  0.00     0.148 C 
HETATM   20  C   UNK N   1      36.497  13.546  14.514  0.00  0.00     0.114 C 
HETATM   21  H   UNK N   1      36.907  15.285  13.214  0.00  0.00     0.153 HD
HETATM   22  C   UNK N   1      35.100  12.949  14.426  0.00  0.00     0.020 C 
ENDBRANCH   4  13
BRANCH   6  23
HETATM   23  O   UNK N   1      35.238  12.844   8.184  0.00  0.00    -0.351 OA
HETATM   24  C   UNK N   1      36.505  12.326   8.014  0.00  0.00     0.210 C 
ENDBRANCH   6  23
BRANCH   3  25
HETATM   25  C   UNK N   1      34.238  12.545   5.762  0.00  0.00     0.090 A 
HETATM   26  C   UNK N   1      32.847  11.907   5.781  0.00  0.00     0.028 A 
HETATM   27  C   UNK N   1      33.600  11.994   4.486  0.00  0.00     0.028 A 
ENDBRANCH   3  25
BRANCH  11  28
HETATM   28  C   UNK N   1      33.021  16.593   3.349  0.00  0.00     0.181 C 
HETATM   29  O   UNK N   1      33.439  16.191   2.274  0.00  0.00    -0.646 OA
BRANCH  28  30
HETATM   30  O   UNK N   1      32.102  17.580   3.370  0.00  0.00    -0.772 OA
HETATM   31  H   UNK N   1      32.100  18.206   4.067  0.00  0.00     0.167 HD
ENDBRANCH  28  30
ENDBRANCH  11  28
TORSDOF 5
ENDMDL
MODEL 8
REMARK VINA RESULT:      -6.4      8.713     12.991
REMARK  5 active torsions:
REMARK  status: ('A' for Active; 'I' for Inactive)
REMARK    1  A    between atoms: O_2  and  C_21 
REMARK    2  A    between atoms: O_4  and  C_28 
REMARK    3  A    between atoms: N_6  and  C_19 
REMARK    4  A    between atoms: N_8  and  C_14 
REMARK    5  A    between atoms: C_26  and  C_28 
ROOT
HETATM    1  F   UNK N   1      35.035  17.621   9.393  0.00  0.00    -0.204 F 
HETATM    2  O   UNK N   1      36.476  15.563  13.604  0.00  0.00    -0.286 OA
HETATM    3  N   UNK N   1      35.345  12.414  11.378  0.00  0.00    -0.348 N 
HETATM    4  C   UNK N   1      34.645  15.273   9.028  0.00  0.00     0.105 A 
HETATM    5  C   UNK N   1      35.221  13.693  10.846  0.00  0.00     0.085 A 
HETATM    6  C   UNK N   1      34.687  13.942   9.541  0.00  0.00     0.125 A 
HETATM    7  C   UNK N   1      35.625  14.806  11.633  0.00  0.00     0.048 A 
HETATM    8  C   UNK N   1      35.043  16.344   9.848  0.00  0.00     0.146 A 
HETATM    9  C   UNK N   1      35.811  12.240  12.647  0.00  0.00     0.114 A 
HETATM   10  C   UNK N   1      35.519  16.104  11.129  0.00  0.00     0.062 A 
HETATM   11  C   UNK N   1      36.214  13.305  13.447  0.00  0.00     0.104 A 
HETATM   12  C   UNK N   1      36.125  14.606  12.930  0.00  0.00     0.202 A 
ENDROOT
BRANCH   4  13
HETATM   13  N   UNK N   1      34.278  15.509   7.665  0.00  0.00    -0.374 N 
HETATM   14  C   UNK N   1      33.237  16.420   7.258  0.00  0.00     0.130 C 
HETATM   15  C   UNK N   1      33.757  16.955   5.935  0.00  0.00     0.028 C 
HETATM   16  C   UNK N   1      34.592  15.792   5.374  0.00  0.00     0.100 C 
HETATM   17  C   UNK N   1      32.678  17.433   4.962  0.00  0.00     0.010 C 
HETATM   18  N   UNK N   1      33.737  14.732   4.825  0.00  0.00    -0.415 N 
HETATM   19  C   UNK N   1      35.243  15.242   6.621  0.00  0.00     0.148 C 
HETATM   20  C   UNK N   1      32.895  15.272   3.762  0.00  0.00     0.114 C 
HETATM   21  H   UNK N   1      33.733  13.762   5.140  0.00  0.00     0.153 HD
HETATM   22  C   UNK N   1      31.906  16.261   4.362  0.00  0.00     0.020 C 
ENDBRANCH   4  13
BRANCH   6  23
HETATM   23  O   UNK N   1      34.186  12.905   8.821  0.00  0.00    -0.351 OA
HETATM   24  C   UNK N   1      32.849  12.744   8.520  0.00  0.00     0.210 C 
ENDBRANCH   6  23
BRANCH   3  25
HETATM   25  C   UNK N   1      34.996  11.182  10.646  0.00  0.00     0.090 A 
HETATM   26  C   UNK N   1      36.261  10.492  10.130  0.00  0.00     0.028 A 
HETATM   27  C   UNK N   1      35.559   9.937  11.335  0.00  0.00     0.028 A 
ENDBRANCH   3  25
BRANCH  11  28
HETATM   28  C   UNK N   1      36.727  13.011  14.811  0.00  0.00     0.181 C 
HETATM   29  O   UNK N   1      36.348  12.026  15.425  0.00  0.00    -0.646 OA
BRANCH  28  30
HETATM   30  O   UNK N   1      37.622  13.841  15.386  0.00  0.00    -0.772 OA
HETATM   31  H   UNK N   1      38.035  14.511  14.878  0.00  0.00     0.167 HD
ENDBRANCH  28  30
ENDBRANCH  11  28
TORSDOF 5
ENDMDL
MODEL 9
REMARK VINA RESULT:      -6.4     14.436     17.234
REMARK  5 active torsions:
REMARK  status: ('A' for Active; 'I' for Inactive)
REMARK    1  A    between atoms: O_2  and  C_21 
REMARK    2  A    between atoms: O_4  and  C_28 
REMARK    3  A    between atoms: N_6  and  C_19 
REMARK    4  A    between atoms: N_8  and  C_14 
REMARK    5  A    between atoms: C_26  and  C_28 
ROOT
HETATM    1  F   UNK N   1      36.419  14.952  15.211  0.00  0.00    -0.204 F 
HETATM    2  O   UNK N   1      35.319  13.038  19.589  0.00  0.00    -0.286 OA
HETATM    3  N   UNK N   1      35.308   9.840  17.156  0.00  0.00    -0.348 N 
HETATM    4  C   UNK N   1      36.123  12.610  14.737  0.00  0.00     0.105 A 
HETATM    5  C   UNK N   1      35.563  11.095  16.615  0.00  0.00     0.085 A 
HETATM    6  C   UNK N   1      35.804  11.305  15.220  0.00  0.00     0.125 A 
HETATM    7  C   UNK N   1      35.570  12.226  17.478  0.00  0.00     0.048 A 
HETATM    8  C   UNK N   1      36.105  13.700  15.626  0.00  0.00     0.146 A 
HETATM    9  C   UNK N   1      35.032   9.707  18.485  0.00  0.00     0.114 A 
HETATM   10  C   UNK N   1      35.827  13.501  16.970  0.00  0.00     0.062 A 
HETATM   11  C   UNK N   1      35.028  10.790  19.358  0.00  0.00     0.104 A 
HETATM   12  C   UNK N   1      35.308  12.067  18.848  0.00  0.00     0.202 A 
ENDROOT
BRANCH   4  13
HETATM   13  N   UNK N   1      36.536  12.795  13.379  0.00  0.00    -0.374 N 
HETATM   14  C   UNK N   1      37.580  12.028  12.744  0.00  0.00     0.130 C 
HETATM   15  C   UNK N   1      37.101  11.936  11.306  0.00  0.00     0.028 C 
HETATM   16  C   UNK N   1      36.301  13.234  11.104  0.00  0.00     0.100 C 
HETATM   17  C   UNK N   1      38.208  11.754  10.266  0.00  0.00     0.010 C 
HETATM   18  N   UNK N   1      37.188  14.390  10.933  0.00  0.00    -0.415 N 
HETATM   19  C   UNK N   1      35.613  13.390  12.438  0.00  0.00     0.148 C 
HETATM   20  C   UNK N   1      38.061  14.183   9.781  0.00  0.00     0.114 C 
HETATM   21  H   UNK N   1      37.193  15.218  11.529  0.00  0.00     0.153 HD
HETATM   22  C   UNK N   1      39.015  13.035  10.078  0.00  0.00     0.020 C 
ENDBRANCH   4  13
BRANCH   6  23
HETATM   23  O   UNK N   1      35.685  10.258  14.362  0.00  0.00    -0.351 OA
HETATM   24  C   UNK N   1      34.591  10.043  13.549  0.00  0.00     0.210 C 
ENDBRANCH   6  23
BRANCH   3  25
HETATM   25  C   UNK N   1      35.311   8.591  16.371  0.00  0.00     0.090 A 
HETATM   26  C   UNK N   1      36.662   7.883  16.500  0.00  0.00     0.028 A 
HETATM   27  C   UNK N   1      35.481   7.362  17.266  0.00  0.00     0.028 A 
ENDBRANCH   3  25
BRANCH  11  28
HETATM   28  C   UNK N   1      34.736  10.540  20.794  0.00  0.00     0.181 C 
HETATM   29  O   UNK N   1      35.299   9.643  21.402  0.00  0.00    -0.646 OA
BRANCH  28  30
HETATM   30  O   UNK N   1      33.835  11.308  21.440  0.00  0.00    -0.772 OA
HETATM   31  H   UNK N   1      32.922  11.106  21.388  0.00  0.00     0.167 HD
ENDBRANCH  28  30
ENDBRANCH  11  28
TORSDOF 5
ENDMDL
