MODEL 1
REMARK VINA RESULT:      -7.1      0.000      0.000
REMARK  8 active torsions:
REMARK  status: ('A' for Active; 'I' for Inactive)
REMARK    1  A    between atoms: C_8  and  O_1 
REMARK    2  A    between atoms: O_1  and  C_23 
REMARK    3  A    between atoms: C_22  and  O_3 
REMARK    4  A    between atoms: C_7  and  C_11 
REMARK    5  A    between atoms: C_11  and  C_15 
REMARK    6  A    between atoms: C_19  and  C_15 
REMARK    7  A    between atoms: C_23  and  C_25 
REMARK    8  A    between atoms: C_25  and  C_27 
ROOT
HETATM    1  C   UNK N   1      28.379  26.113  -4.359  0.00  0.00     0.052 C 
HETATM    2  C   UNK N   1      27.800  25.462  -5.635  0.00  0.00     0.004 C 
HETATM    3  C   UNK N   1      29.708  25.408  -3.959  0.00  0.00     0.141 C 
HETATM    4  C   UNK N   1      26.507  26.152  -6.136  0.00  0.00     0.009 C 
HETATM    5  C   UNK N   1      28.545  27.607  -4.621  0.00  0.00    -0.055 C 
HETATM    6  C   UNK N   1      30.937  26.306  -3.749  0.00  0.00     0.041 C 
HETATM    7  C   UNK N   1      30.554  27.655  -3.187  0.00  0.00     0.007 C 
HETATM    8  C   UNK N   1      29.562  28.303  -4.099  0.00  0.00    -0.015 C 
HETATM    9  C   UNK N   1      26.618  27.655  -6.147  0.00  0.00    -0.022 C 
HETATM   10  C   UNK N   1      27.570  28.316  -5.472  0.00  0.00     0.004 C 
HETATM   11  C   UNK N   1      25.259  25.765  -5.361  0.00  0.00     0.014 C 
HETATM   12  C   UNK N   1      31.790  28.526  -3.092  0.00  0.00     0.014 C 
ENDROOT
BRANCH   2  13
HETATM   13  C   UNK N   1      27.692  23.927  -5.619  0.00  0.00     0.009 C 
BRANCH  13  14
HETATM   14  C   UNK N   1      28.396  23.256  -6.789  0.00  0.00     0.033 C 
BRANCH  14  15
HETATM   15  C   UNK N   1      27.497  22.190  -7.378  0.00  0.00     0.134 C 
HETATM   16  O   UNK N   1      27.969  21.776  -8.610  0.00  0.00    -0.316 OA
HETATM   17  C   UNK N   1      27.171  21.253  -9.590  0.00  0.00     0.261 C 
HETATM   18  O   UNK N   1      27.660  20.897 -10.638  0.00  0.00    -0.265 OA
HETATM   19  C   UNK N   1      25.670  21.182  -9.411  0.00  0.00     0.142 C 
HETATM   20  C   UNK N   1      25.233  21.556  -8.000  0.00  0.00     0.130 C 
HETATM   21  C   UNK N   1      26.069  22.704  -7.473  0.00  0.00     0.065 C 
BRANCH  20  22
HETATM   22  O   UNK N   1      23.882  21.903  -7.993  0.00  0.00    -0.395 OA
HETATM   23  H   UNK N   1      23.203  21.582  -8.606  0.00  0.00     0.210 HD
ENDBRANCH  20  22
ENDBRANCH  14  15
ENDBRANCH  13  14
ENDBRANCH   2  13
BRANCH   3  24
HETATM   24  O   UNK N   1      29.495  24.463  -2.969  0.00  0.00    -0.315 OA
BRANCH  24  25
HETATM   25  C   UNK N   1      30.263  23.358  -2.789  0.00  0.00     0.263 C 
HETATM   26  O   UNK N   1      30.583  22.990  -1.667  0.00  0.00    -0.265 OA
BRANCH  25  27
HETATM   27  C   UNK N   1      30.801  22.650  -3.995  0.00  0.00     0.081 C 
HETATM   28  C   UNK N   1      32.316  22.783  -4.048  0.00  0.00     0.020 C 
BRANCH  27  29
HETATM   29  C   UNK N   1      30.353  21.194  -4.123  0.00  0.00     0.010 C 
HETATM   30  C   UNK N   1      30.710  20.579  -5.468  0.00  0.00     0.006 C 
ENDBRANCH  27  29
ENDBRANCH  25  27
ENDBRANCH  24  25
ENDBRANCH   3  24
TORSDOF 8
ENDMDL
MODEL 2
REMARK VINA RESULT:      -7.0     10.786     13.712
REMARK  8 active torsions:
REMARK  status: ('A' for Active; 'I' for Inactive)
REMARK    1  A    between atoms: C_8  and  O_1 
REMARK    2  A    between atoms: O_1  and  C_23 
REMARK    3  A    between atoms: C_22  and  O_3 
REMARK    4  A    between atoms: C_7  and  C_11 
REMARK    5  A    between atoms: C_11  and  C_15 
REMARK    6  A    between atoms: C_19  and  C_15 
REMARK    7  A    between atoms: C_23  and  C_25 
REMARK    8  A    between atoms: C_25  and  C_27 
ROOT
HETATM    1  C   UNK N   1      30.190  16.976   6.722  0.00  0.00     0.052 C 
HETATM    2  C   UNK N   1      29.212  18.165   6.846  0.00  0.00     0.004 C 
HETATM    3  C   UNK N   1      30.497  16.696   5.222  0.00  0.00     0.141 C 
HETATM    4  C   UNK N   1      28.907  18.551   8.315  0.00  0.00     0.009 C 
HETATM    5  C   UNK N   1      31.436  17.299   7.542  0.00  0.00    -0.055 C 
HETATM    6  C   UNK N   1      31.977  16.641   4.812  0.00  0.00     0.041 C 
HETATM    7  C   UNK N   1      32.842  16.082   5.917  0.00  0.00     0.007 C 
HETATM    8  C   UNK N   1      32.655  16.905   7.151  0.00  0.00    -0.015 C 
HETATM    9  C   UNK N   1      30.148  18.617   9.168  0.00  0.00    -0.022 C 
HETATM   10  C   UNK N   1      31.312  18.065   8.797  0.00  0.00     0.004 C 
HETATM   11  C   UNK N   1      27.901  17.639   8.997  0.00  0.00     0.014 C 
HETATM   12  C   UNK N   1      34.296  16.142   5.492  0.00  0.00     0.014 C 
ENDROOT
BRANCH   2  13
HETATM   13  C   UNK N   1      27.948  18.093   5.971  0.00  0.00     0.009 C 
BRANCH  13  14
HETATM   14  C   UNK N   1      27.804  19.268   5.014  0.00  0.00     0.033 C 
BRANCH  14  15
HETATM   15  C   UNK N   1      26.338  19.610   4.850  0.00  0.00     0.134 C 
HETATM   16  O   UNK N   1      25.540  18.551   5.241  0.00  0.00    -0.316 OA
HETATM   17  C   UNK N   1      24.280  18.334   4.757  0.00  0.00     0.261 C 
HETATM   18  O   UNK N   1      23.634  17.392   5.160  0.00  0.00    -0.265 OA
HETATM   19  C   UNK N   1      23.706  19.212   3.666  0.00  0.00     0.142 C 
HETATM   20  C   UNK N   1      24.592  20.414   3.359  0.00  0.00     0.130 C 
HETATM   21  C   UNK N   1      26.055  20.021   3.414  0.00  0.00     0.065 C 
BRANCH  20  22
HETATM   22  O   UNK N   1      24.280  20.930   2.102  0.00  0.00    -0.395 OA
HETATM   23  H   UNK N   1      24.092  21.857   1.891  0.00  0.00     0.210 HD
ENDBRANCH  20  22
ENDBRANCH  14  15
ENDBRANCH  13  14
ENDBRANCH   2  13
BRANCH   3  24
HETATM   24  O   UNK N   1      29.714  15.661   4.736  0.00  0.00    -0.315 OA
BRANCH  24  25
HETATM   25  C   UNK N   1      29.036  15.703   3.560  0.00  0.00     0.263 C 
HETATM   26  O   UNK N   1      29.510  16.260   2.580  0.00  0.00    -0.265 OA
BRANCH  25  27
HETATM   27  C   UNK N   1      27.646  15.144   3.509  0.00  0.00     0.081 C 
HETATM   28  C   UNK N   1      27.225  14.661   4.889  0.00  0.00     0.020 C 
BRANCH  27  29
HETATM   29  C   UNK N   1      26.611  16.086   2.895  0.00  0.00     0.010 C 
HETATM   30  C   UNK N   1      25.821  15.444   1.764  0.00  0.00     0.006 C 
ENDBRANCH  27  29
ENDBRANCH  25  27
ENDBRANCH  24  25
ENDBRANCH   3  24
TORSDOF 8
ENDMDL
MODEL 3
REMARK VINA RESULT:      -7.0      2.309      7.299
REMARK  8 active torsions:
REMARK  status: ('A' for Active; 'I' for Inactive)
REMARK    1  A    between atoms: C_8  and  O_1 
REMARK    2  A    between atoms: O_1  and  C_23 
REMARK    3  A    between atoms: C_22  and  O_3 
REMARK    4  A    between atoms: C_7  and  C_11 
REMARK    5  A    between atoms: C_11  and  C_15 
REMARK    6  A    between atoms: C_19  and  C_15 
REMARK    7  A    between atoms: C_23  and  C_25 
REMARK    8  A    between atoms: C_25  and  C_27 
ROOT
HETATM    1  C   UNK N   1      29.027  22.391  -5.099  0.00  0.00     0.052 C 
HETATM    2  C   UNK N   1      29.593  23.632  -4.374  0.00  0.00     0.004 C 
HETATM    3  C   UNK N   1      28.416  22.809  -6.468  0.00  0.00     0.141 C 
HETATM    4  C   UNK N   1      30.279  23.289  -3.029  0.00  0.00     0.009 C 
HETATM    5  C   UNK N   1      30.148  21.364  -5.229  0.00  0.00    -0.055 C 
HETATM    6  C   UNK N   1      28.908  22.051  -7.712  0.00  0.00     0.041 C 
HETATM    7  C   UNK N   1      29.234  20.611  -7.395  0.00  0.00     0.007 C 
HETATM    8  C   UNK N   1      30.250  20.567  -6.300  0.00  0.00    -0.015 C 
HETATM    9  C   UNK N   1      31.201  22.101  -3.133  0.00  0.00    -0.022 C 
HETATM   10  C   UNK N   1      31.155  21.236  -4.157  0.00  0.00     0.004 C 
HETATM   11  C   UNK N   1      29.310  23.049  -1.883  0.00  0.00     0.014 C 
HETATM   12  C   UNK N   1      29.802  19.944  -8.631  0.00  0.00     0.014 C 
ENDROOT
BRANCH   2  13
HETATM   13  C   UNK N   1      28.649  24.842  -4.273  0.00  0.00     0.009 C 
BRANCH  13  14
HETATM   14  C   UNK N   1      29.182  26.089  -4.965  0.00  0.00     0.033 C 
BRANCH  14  15
HETATM   15  C   UNK N   1      28.674  27.323  -4.250  0.00  0.00     0.134 C 
HETATM   16  O   UNK N   1      27.507  27.044  -3.561  0.00  0.00    -0.316 OA
HETATM   17  C   UNK N   1      26.559  27.985  -3.269  0.00  0.00     0.261 C 
HETATM   18  O   UNK N   1      25.570  27.668  -2.646  0.00  0.00    -0.265 OA
HETATM   19  C   UNK N   1      26.691  29.404  -3.776  0.00  0.00     0.142 C 
HETATM   20  C   UNK N   1      28.041  29.664  -4.435  0.00  0.00     0.130 C 
HETATM   21  C   UNK N   1      28.478  28.458  -5.242  0.00  0.00     0.065 C 
BRANCH  20  22
HETATM   22  O   UNK N   1      27.965  30.789  -5.255  0.00  0.00    -0.395 OA
HETATM   23  H   UNK N   1      27.563  31.642  -5.027  0.00  0.00     0.210 HD
ENDBRANCH  20  22
ENDBRANCH  14  15
ENDBRANCH  13  14
ENDBRANCH   2  13
BRANCH   3  24
HETATM   24  O   UNK N   1      27.042  22.960  -6.378  0.00  0.00    -0.315 OA
BRANCH  24  25
HETATM   25  C   UNK N   1      26.301  23.730  -7.216  0.00  0.00     0.263 C 
HETATM   26  O   UNK N   1      25.732  23.241  -8.183  0.00  0.00    -0.265 OA
BRANCH  25  27
HETATM   27  C   UNK N   1      26.273  25.212  -6.998  0.00  0.00     0.081 C 
HETATM   28  C   UNK N   1      25.958  25.928  -8.303  0.00  0.00     0.020 C 
BRANCH  27  29
HETATM   29  C   UNK N   1      25.353  25.665  -5.864  0.00  0.00     0.010 C 
HETATM   30  C   UNK N   1      24.826  27.079  -6.055  0.00  0.00     0.006 C 
ENDBRANCH  27  29
ENDBRANCH  25  27
ENDBRANCH  24  25
ENDBRANCH   3  24
TORSDOF 8
ENDMDL
MODEL 4
REMARK VINA RESULT:      -7.0     14.664     16.652
REMARK  8 active torsions:
REMARK  status: ('A' for Active; 'I' for Inactive)
REMARK    1  A    between atoms: C_8  and  O_1 
REMARK    2  A    between atoms: O_1  and  C_23 
REMARK    3  A    between atoms: C_22  and  O_3 
REMARK    4  A    between atoms: C_7  and  C_11 
REMARK    5  A    between atoms: C_11  and  C_15 
REMARK    6  A    between atoms: C_19  and  C_15 
REMARK    7  A    between atoms: C_23  and  C_25 
REMARK    8  A    between atoms: C_25  and  C_27 
ROOT
HETATM    1  C   UNK N   1      21.691  14.489   7.578  0.00  0.00     0.052 C 
HETATM    2  C   UNK N   1      21.513  15.975   7.193  0.00  0.00     0.004 C 
HETATM    3  C   UNK N   1      23.184  14.078   7.429  0.00  0.00     0.141 C 
HETATM    4  C   UNK N   1      20.061  16.481   7.377  0.00  0.00     0.009 C 
HETATM    5  C   UNK N   1      21.151  14.298   8.992  0.00  0.00    -0.055 C 
HETATM    6  C   UNK N   1      23.851  13.421   8.648  0.00  0.00     0.041 C 
HETATM    7  C   UNK N   1      22.872  12.583   9.436  0.00  0.00     0.007 C 
HETATM    8  C   UNK N   1      21.716  13.437   9.849  0.00  0.00    -0.015 C 
HETATM    9  C   UNK N   1      19.461  16.058   8.694  0.00  0.00    -0.022 C 
HETATM   10  C   UNK N   1      19.981  15.075   9.443  0.00  0.00     0.004 C 
HETATM   11  C   UNK N   1      19.115  16.068   6.262  0.00  0.00     0.014 C 
HETATM   12  C   UNK N   1      23.560  12.042  10.673  0.00  0.00     0.014 C 
ENDROOT
BRANCH   2  13
HETATM   13  C   UNK N   1      22.129  16.401   5.849  0.00  0.00     0.009 C 
BRANCH  13  14
HETATM   14  C   UNK N   1      22.176  17.910   5.653  0.00  0.00     0.033 C 
BRANCH  14  15
HETATM   15  C   UNK N   1      22.000  18.237   4.186  0.00  0.00     0.134 C 
HETATM   16  O   UNK N   1      22.372  19.543   3.926  0.00  0.00    -0.316 OA
HETATM   17  C   UNK N   1      21.873  20.280   2.888  0.00  0.00     0.261 C 
HETATM   18  O   UNK N   1      22.261  21.414   2.714  0.00  0.00    -0.265 OA
HETATM   19  C   UNK N   1      20.784  19.725   1.995  0.00  0.00     0.142 C 
HETATM   20  C   UNK N   1      20.498  18.253   2.272  0.00  0.00     0.130 C 
HETATM   21  C   UNK N   1      20.564  17.972   3.760  0.00  0.00     0.065 C 
BRANCH  20  22
HETATM   22  O   UNK N   1      19.242  17.908   1.774  0.00  0.00    -0.395 OA
HETATM   23  H   UNK N   1      18.760  18.361   1.065  0.00  0.00     0.210 HD
ENDBRANCH  20  22
ENDBRANCH  14  15
ENDBRANCH  13  14
ENDBRANCH   2  13
BRANCH   3  24
HETATM   24  O   UNK N   1      23.410  13.438   6.221  0.00  0.00    -0.315 OA
BRANCH  24  25
HETATM   25  C   UNK N   1      22.537  12.577   5.638  0.00  0.00     0.263 C 
HETATM   26  O   UNK N   1      22.204  11.542   6.200  0.00  0.00    -0.265 OA
BRANCH  25  27
HETATM   27  C   UNK N   1      22.064  12.861   4.245  0.00  0.00     0.081 C 
HETATM   28  C   UNK N   1      20.611  13.313   4.267  0.00  0.00     0.020 C 
BRANCH  27  29
HETATM   29  C   UNK N   1      22.951  13.833   3.465  0.00  0.00     0.010 C 
HETATM   30  C   UNK N   1      22.159  14.761   2.557  0.00  0.00     0.006 C 
ENDBRANCH  27  29
ENDBRANCH  25  27
ENDBRANCH  24  25
ENDBRANCH   3  24
TORSDOF 8
ENDMDL
MODEL 5
REMARK VINA RESULT:      -6.9     13.856     15.928
REMARK  8 active torsions:
REMARK  status: ('A' for Active; 'I' for Inactive)
REMARK    1  A    between atoms: C_8  and  O_1 
REMARK    2  A    between atoms: O_1  and  C_23 
REMARK    3  A    between atoms: C_22  and  O_3 
REMARK    4  A    between atoms: C_7  and  C_11 
REMARK    5  A    between atoms: C_11  and  C_15 
REMARK    6  A    between atoms: C_19  and  C_15 
REMARK    7  A    between atoms: C_23  and  C_25 
REMARK    8  A    between atoms: C_25  and  C_27 
ROOT
HETATM    1  C   UNK N   1      22.308  14.447   7.333  0.00  0.00     0.052 C 
HETATM    2  C   UNK N   1      21.932  15.900   6.966  0.00  0.00     0.004 C 
HETATM    3  C   UNK N   1      23.827  14.214   7.086  0.00  0.00     0.141 C 
HETATM    4  C   UNK N   1      20.446  16.233   7.247  0.00  0.00     0.009 C 
HETATM    5  C   UNK N   1      21.888  14.198   8.778  0.00  0.00    -0.055 C 
HETATM    6  C   UNK N   1      24.644  13.644   8.256  0.00  0.00     0.041 C 
HETATM    7  C   UNK N   1      23.823  12.699   9.102  0.00  0.00     0.007 C 
HETATM    8  C   UNK N   1      22.604  13.413   9.593  0.00  0.00    -0.015 C 
HETATM    9  C   UNK N   1      19.987  15.746   8.598  0.00  0.00    -0.022 C 
HETATM   10  C   UNK N   1      20.665  14.833   9.307  0.00  0.00     0.004 C 
HETATM   11  C   UNK N   1      19.485  15.708   6.193  0.00  0.00     0.014 C 
HETATM   12  C   UNK N   1      24.648  12.246  10.290  0.00  0.00     0.014 C 
ENDROOT
BRANCH   2  13
HETATM   13  C   UNK N   1      22.406  16.392   5.587  0.00  0.00     0.009 C 
BRANCH  13  14
HETATM   14  C   UNK N   1      22.446  17.908   5.464  0.00  0.00     0.033 C 
BRANCH  14  15
HETATM   15  C   UNK N   1      22.104  18.310   4.045  0.00  0.00     0.134 C 
HETATM   16  O   UNK N   1      22.535  19.598   3.782  0.00  0.00    -0.316 OA
HETATM   17  C   UNK N   1      21.960  20.412   2.846  0.00  0.00     0.261 C 
HETATM   18  O   UNK N   1      22.405  21.523   2.661  0.00  0.00    -0.265 OA
HETATM   19  C   UNK N   1      20.726  19.973   2.089  0.00  0.00     0.142 C 
HETATM   20  C   UNK N   1      20.370  18.514   2.351  0.00  0.00     0.130 C 
HETATM   21  C   UNK N   1      20.609  18.164   3.806  0.00  0.00     0.065 C 
BRANCH  20  22
HETATM   22  O   UNK N   1      19.037  18.279   2.013  0.00  0.00    -0.395 OA
HETATM   23  H   UNK N   1      18.715  17.850   1.206  0.00  0.00     0.210 HD
ENDBRANCH  20  22
ENDBRANCH  14  15
ENDBRANCH  13  14
ENDBRANCH   2  13
BRANCH   3  24
HETATM   24  O   UNK N   1      24.047  13.601   5.863  0.00  0.00    -0.315 OA
BRANCH  24  25
HETATM   25  C   UNK N   1      25.118  13.848   5.066  0.00  0.00     0.263 C 
HETATM   26  O   UNK N   1      25.633  12.954   4.408  0.00  0.00    -0.265 OA
BRANCH  25  27
HETATM   27  C   UNK N   1      25.729  15.217   5.082  0.00  0.00     0.081 C 
HETATM   28  C   UNK N   1      27.155  15.148   5.609  0.00  0.00     0.020 C 
BRANCH  27  29
HETATM   29  C   UNK N   1      25.650  15.957   3.747  0.00  0.00     0.010 C 
HETATM   30  C   UNK N   1      25.838  17.460   3.889  0.00  0.00     0.006 C 
ENDBRANCH  27  29
ENDBRANCH  25  27
ENDBRANCH  24  25
ENDBRANCH   3  24
TORSDOF 8
ENDMDL
MODEL 6
REMARK VINA RESULT:      -6.8     11.269     14.295
REMARK  8 active torsions:
REMARK  status: ('A' for Active; 'I' for Inactive)
REMARK    1  A    between atoms: C_8  and  O_1 
REMARK    2  A    between atoms: O_1  and  C_23 
REMARK    3  A    between atoms: C_22  and  O_3 
REMARK    4  A    between atoms: C_7  and  C_11 
REMARK    5  A    between atoms: C_11  and  C_15 
REMARK    6  A    between atoms: C_19  and  C_15 
REMARK    7  A    between atoms: C_23  and  C_25 
REMARK    8  A    between atoms: C_25  and  C_27 
ROOT
HETATM    1  C   UNK N   1      27.740  17.681   4.449  0.00  0.00     0.052 C 
HETATM    2  C   UNK N   1      28.941  16.921   3.844  0.00  0.00     0.004 C 
HETATM    3  C   UNK N   1      28.043  19.207   4.491  0.00  0.00     0.141 C 
HETATM    4  C   UNK N   1      28.692  15.399   3.708  0.00  0.00     0.009 C 
HETATM    5  C   UNK N   1      26.499  17.336   3.631  0.00  0.00    -0.055 C 
HETATM    6  C   UNK N   1      27.007  20.141   3.846  0.00  0.00     0.041 C 
HETATM    7  C   UNK N   1      25.603  19.607   3.998  0.00  0.00     0.007 C 
HETATM    8  C   UNK N   1      25.533  18.235   3.407  0.00  0.00    -0.015 C 
HETATM    9  C   UNK N   1      27.340  15.083   3.121  0.00  0.00    -0.022 C 
HETATM   10  C   UNK N   1      26.347  15.982   3.064  0.00  0.00     0.004 C 
HETATM   11  C   UNK N   1      28.846  14.628   5.008  0.00  0.00     0.014 C 
HETATM   12  C   UNK N   1      24.640  20.517   3.262  0.00  0.00     0.014 C 
ENDROOT
BRANCH   2  13
HETATM   13  C   UNK N   1      30.319  17.251   4.446  0.00  0.00     0.009 C 
BRANCH  13  14
HETATM   14  C   UNK N   1      31.481  16.653   3.666  0.00  0.00     0.033 C 
BRANCH  14  15
HETATM   15  C   UNK N   1      32.578  16.242   4.625  0.00  0.00     0.134 C 
HETATM   16  O   UNK N   1      32.182  15.157   5.386  0.00  0.00    -0.316 OA
HETATM   17  C   UNK N   1      32.680  14.883   6.629  0.00  0.00     0.261 C 
HETATM   18  O   UNK N   1      32.297  13.903   7.228  0.00  0.00    -0.265 OA
HETATM   19  C   UNK N   1      33.651  15.829   7.302  0.00  0.00     0.142 C 
HETATM   20  C   UNK N   1      34.120  16.941   6.371  0.00  0.00     0.130 C 
HETATM   21  C   UNK N   1      32.976  17.420   5.500  0.00  0.00     0.065 C 
BRANCH  20  22
HETATM   22  O   UNK N   1      34.634  18.003   7.115  0.00  0.00    -0.395 OA
HETATM   23  H   UNK N   1      35.311  18.633   6.827  0.00  0.00     0.210 HD
ENDBRANCH  20  22
ENDBRANCH  14  15
ENDBRANCH  13  14
ENDBRANCH   2  13
BRANCH   3  24
HETATM   24  O   UNK N   1      28.484  19.596   5.746  0.00  0.00    -0.315 OA
BRANCH  24  25
HETATM   25  C   UNK N   1      27.731  19.532   6.874  0.00  0.00     0.263 C 
HETATM   26  O   UNK N   1      26.811  20.316   7.062  0.00  0.00    -0.265 OA
BRANCH  25  27
HETATM   27  C   UNK N   1      28.111  18.549   7.939  0.00  0.00     0.081 C 
HETATM   28  C   UNK N   1      27.660  17.150   7.545  0.00  0.00     0.020 C 
BRANCH  27  29
HETATM   29  C   UNK N   1      29.589  18.582   8.329  0.00  0.00     0.010 C 
HETATM   30  C   UNK N   1      30.287  17.245   8.124  0.00  0.00     0.006 C 
ENDBRANCH  27  29
ENDBRANCH  25  27
ENDBRANCH  24  25
ENDBRANCH   3  24
TORSDOF 8
ENDMDL
MODEL 7
REMARK VINA RESULT:      -6.8      2.431      6.939
REMARK  8 active torsions:
REMARK  status: ('A' for Active; 'I' for Inactive)
REMARK    1  A    between atoms: C_8  and  O_1 
REMARK    2  A    between atoms: O_1  and  C_23 
REMARK    3  A    between atoms: C_22  and  O_3 
REMARK    4  A    between atoms: C_7  and  C_11 
REMARK    5  A    between atoms: C_11  and  C_15 
REMARK    6  A    between atoms: C_19  and  C_15 
REMARK    7  A    between atoms: C_23  and  C_25 
REMARK    8  A    between atoms: C_25  and  C_27 
ROOT
HETATM    1  C   UNK N   1      29.130  22.388  -5.011  0.00  0.00     0.052 C 
HETATM    2  C   UNK N   1      29.739  23.596  -4.265  0.00  0.00     0.004 C 
HETATM    3  C   UNK N   1      28.537  22.850  -6.374  0.00  0.00     0.141 C 
HETATM    4  C   UNK N   1      30.410  23.208  -2.925  0.00  0.00     0.009 C 
HETATM    5  C   UNK N   1      30.213  21.324  -5.155  0.00  0.00    -0.055 C 
HETATM    6  C   UNK N   1      29.003  22.094  -7.628  0.00  0.00     0.041 C 
HETATM    7  C   UNK N   1      29.276  20.638  -7.334  0.00  0.00     0.007 C 
HETATM    8  C   UNK N   1      30.289  20.540  -6.238  0.00  0.00    -0.015 C 
HETATM    9  C   UNK N   1      31.288  21.989  -3.046  0.00  0.00    -0.022 C 
HETATM   10  C   UNK N   1      31.212  21.143  -4.084  0.00  0.00     0.004 C 
HETATM   11  C   UNK N   1      29.431  22.985  -1.785  0.00  0.00     0.014 C 
HETATM   12  C   UNK N   1      29.822  19.970  -8.579  0.00  0.00     0.014 C 
ENDROOT
BRANCH   2  13
HETATM   13  C   UNK N   1      28.839  24.838  -4.147  0.00  0.00     0.009 C 
BRANCH  13  14
HETATM   14  C   UNK N   1      29.340  26.031  -4.950  0.00  0.00     0.033 C 
BRANCH  14  15
HETATM   15  C   UNK N   1      28.201  27.002  -5.179  0.00  0.00     0.134 C 
HETATM   16  O   UNK N   1      28.676  28.213  -5.647  0.00  0.00    -0.316 OA
HETATM   17  C   UNK N   1      28.027  29.402  -5.464  0.00  0.00     0.261 C 
HETATM   18  O   UNK N   1      28.498  30.421  -5.919  0.00  0.00    -0.265 OA
HETATM   19  C   UNK N   1      26.764  29.477  -4.634  0.00  0.00     0.142 C 
HETATM   20  C   UNK N   1      26.244  28.099  -4.239  0.00  0.00     0.130 C 
HETATM   21  C   UNK N   1      27.397  27.176  -3.900  0.00  0.00     0.065 C 
BRANCH  20  22
HETATM   22  O   UNK N   1      25.379  28.208  -3.151  0.00  0.00    -0.395 OA
HETATM   23  H   UNK N   1      25.582  28.612  -2.293  0.00  0.00     0.210 HD
ENDBRANCH  20  22
ENDBRANCH  14  15
ENDBRANCH  13  14
ENDBRANCH   2  13
BRANCH   3  24
HETATM   24  O   UNK N   1      27.169  23.049  -6.283  0.00  0.00    -0.315 OA
BRANCH  24  25
HETATM   25  C   UNK N   1      26.438  23.757  -7.182  0.00  0.00     0.263 C 
HETATM   26  O   UNK N   1      26.531  24.976  -7.247  0.00  0.00    -0.265 OA
BRANCH  25  27
HETATM   27  C   UNK N   1      25.435  23.033  -8.027  0.00  0.00     0.081 C 
HETATM   28  C   UNK N   1      25.944  22.910  -9.456  0.00  0.00     0.020 C 
BRANCH  27  29
HETATM   29  C   UNK N   1      24.994  21.683  -7.462  0.00  0.00     0.010 C 
HETATM   30  C   UNK N   1      25.611  20.501  -8.196  0.00  0.00     0.006 C 
ENDBRANCH  27  29
ENDBRANCH  25  27
ENDBRANCH  24  25
ENDBRANCH   3  24
TORSDOF 8
ENDMDL
MODEL 8
REMARK VINA RESULT:      -6.5     11.258     13.970
REMARK  8 active torsions:
REMARK  status: ('A' for Active; 'I' for Inactive)
REMARK    1  A    between atoms: C_8  and  O_1 
REMARK    2  A    between atoms: O_1  and  C_23 
REMARK    3  A    between atoms: C_22  and  O_3 
REMARK    4  A    between atoms: C_7  and  C_11 
REMARK    5  A    between atoms: C_11  and  C_15 
REMARK    6  A    between atoms: C_19  and  C_15 
REMARK    7  A    between atoms: C_23  and  C_25 
REMARK    8  A    between atoms: C_25  and  C_27 
ROOT
HETATM    1  C   UNK N   1      29.689  17.237   6.450  0.00  0.00     0.052 C 
HETATM    2  C   UNK N   1      28.901  18.473   6.939  0.00  0.00     0.004 C 
HETATM    3  C   UNK N   1      29.659  17.170   4.895  0.00  0.00     0.141 C 
HETATM    4  C   UNK N   1      28.938  18.647   8.477  0.00  0.00     0.009 C 
HETATM    5  C   UNK N   1      31.101  17.316   7.022  0.00  0.00    -0.055 C 
HETATM    6  C   UNK N   1      31.013  17.051   4.177  0.00  0.00     0.041 C 
HETATM    7  C   UNK N   1      32.007  16.252   4.987  0.00  0.00     0.007 C 
HETATM    8  C   UNK N   1      32.164  16.884   6.332  0.00  0.00    -0.015 C 
HETATM    9  C   UNK N   1      30.322  18.470   9.048  0.00  0.00    -0.022 C 
HETATM   10  C   UNK N   1      31.317  17.883   8.367  0.00  0.00     0.004 C 
HETATM   11  C   UNK N   1      27.986  17.731   9.226  0.00  0.00     0.014 C 
HETATM   12  C   UNK N   1      33.345  16.250   4.276  0.00  0.00     0.014 C 
ENDROOT
BRANCH   2  13
HETATM   13  C   UNK N   1      27.491  18.649   6.350  0.00  0.00     0.009 C 
BRANCH  13  14
HETATM   14  C   UNK N   1      27.443  19.601   5.163  0.00  0.00     0.033 C 
BRANCH  14  15
HETATM   15  C   UNK N   1      26.314  19.200   4.237  0.00  0.00     0.134 C 
HETATM   16  O   UNK N   1      25.612  20.312   3.810  0.00  0.00    -0.316 OA
HETATM   17  C   UNK N   1      24.300  20.276   3.423  0.00  0.00     0.261 C 
HETATM   18  O   UNK N   1      23.757  21.289   3.045  0.00  0.00    -0.265 OA
HETATM   19  C   UNK N   1      23.494  19.000   3.532  0.00  0.00     0.142 C 
HETATM   20  C   UNK N   1      24.354  17.798   3.909  0.00  0.00     0.130 C 
HETATM   21  C   UNK N   1      25.403  18.197   4.927  0.00  0.00     0.065 C 
BRANCH  20  22
HETATM   22  O   UNK N   1      23.552  16.778   4.420  0.00  0.00    -0.395 OA
HETATM   23  H   UNK N   1      23.687  16.303   5.254  0.00  0.00     0.210 HD
ENDBRANCH  20  22
ENDBRANCH  14  15
ENDBRANCH  13  14
ENDBRANCH   2  13
BRANCH   3  24
HETATM   24  O   UNK N   1      28.680  16.297   4.449  0.00  0.00    -0.315 OA
BRANCH  24  25
HETATM   25  C   UNK N   1      28.360  15.129   5.064  0.00  0.00     0.263 C 
HETATM   26  O   UNK N   1      29.213  14.279   5.282  0.00  0.00    -0.265 OA
BRANCH  25  27
HETATM   27  C   UNK N   1      26.922  14.851   5.380  0.00  0.00     0.081 C 
HETATM   28  C   UNK N   1      26.609  13.380   5.144  0.00  0.00     0.020 C 
BRANCH  27  29
HETATM   29  C   UNK N   1      26.483  15.310   6.770  0.00  0.00     0.010 C 
HETATM   30  C   UNK N   1      25.411  14.419   7.380  0.00  0.00     0.006 C 
ENDBRANCH  27  29
ENDBRANCH  25  27
ENDBRANCH  24  25
ENDBRANCH   3  24
TORSDOF 8
ENDMDL
MODEL 9
REMARK VINA RESULT:      -6.4     15.437     17.432
REMARK  8 active torsions:
REMARK  status: ('A' for Active; 'I' for Inactive)
REMARK    1  A    between atoms: C_8  and  O_1 
REMARK    2  A    between atoms: O_1  and  C_23 
REMARK    3  A    between atoms: C_22  and  O_3 
REMARK    4  A    between atoms: C_7  and  C_11 
REMARK    5  A    between atoms: C_11  and  C_15 
REMARK    6  A    between atoms: C_19  and  C_15 
REMARK    7  A    between atoms: C_23  and  C_25 
REMARK    8  A    between atoms: C_25  and  C_27 
ROOT
HETATM    1  C   UNK N   1      21.628  14.809   8.224  0.00  0.00     0.052 C 
HETATM    2  C   UNK N   1      22.146  13.536   7.519  0.00  0.00     0.004 C 
HETATM    3  C   UNK N   1      20.981  15.767   7.182  0.00  0.00     0.141 C 
HETATM    4  C   UNK N   1      22.748  12.499   8.500  0.00  0.00     0.009 C 
HETATM    5  C   UNK N   1      20.667  14.382   9.329  0.00  0.00    -0.055 C 
HETATM    6  C   UNK N   1      19.553  16.252   7.476  0.00  0.00     0.041 C 
HETATM    7  C   UNK N   1      19.310  16.411   8.958  0.00  0.00     0.007 C 
HETATM    8  C   UNK N   1      19.588  15.112   9.643  0.00  0.00    -0.015 C 
HETATM    9  C   UNK N   1      21.885  12.283   9.717  0.00  0.00    -0.022 C 
HETATM   10  C   UNK N   1      20.915  13.135  10.078  0.00  0.00     0.004 C 
HETATM   11  C   UNK N   1      24.157  12.830   8.961  0.00  0.00     0.014 C 
HETATM   12  C   UNK N   1      17.863  16.797   9.189  0.00  0.00     0.014 C 
ENDROOT
BRANCH   2  13
HETATM   13  C   UNK N   1      23.024  13.763   6.276  0.00  0.00     0.009 C 
BRANCH  13  14
HETATM   14  C   UNK N   1      22.596  12.939   5.070  0.00  0.00     0.033 C 
BRANCH  14  15
HETATM   15  C   UNK N   1      21.559  13.704   4.275  0.00  0.00     0.134 C 
HETATM   16  O   UNK N   1      20.294  13.503   4.797  0.00  0.00    -0.316 OA
HETATM   17  C   UNK N   1      19.147  13.604   4.060  0.00  0.00     0.261 C 
HETATM   18  O   UNK N   1      18.073  13.431   4.592  0.00  0.00    -0.265 OA
HETATM   19  C   UNK N   1      19.202  13.856   2.569  0.00  0.00     0.142 C 
HETATM   20  C   UNK N   1      20.613  14.168   2.083  0.00  0.00     0.130 C 
HETATM   21  C   UNK N   1      21.626  13.306   2.809  0.00  0.00     0.065 C 
BRANCH  20  22
HETATM   22  O   UNK N   1      20.702  13.959   0.707  0.00  0.00    -0.395 OA
HETATM   23  H   UNK N   1      21.293  14.419   0.092  0.00  0.00     0.210 HD
ENDBRANCH  20  22
ENDBRANCH  14  15
ENDBRANCH  13  14
ENDBRANCH   2  13
BRANCH   3  24
HETATM   24  O   UNK N   1      21.869  16.757   6.792  0.00  0.00    -0.315 OA
BRANCH  24  25
HETATM   25  C   UNK N   1      21.513  17.879   6.117  0.00  0.00     0.263 C 
HETATM   26  O   UNK N   1      21.123  18.875   6.713  0.00  0.00    -0.265 OA
BRANCH  25  27
HETATM   27  C   UNK N   1      21.507  17.848   4.619  0.00  0.00     0.081 C 
HETATM   28  C   UNK N   1      22.742  17.124   4.104  0.00  0.00     0.020 C 
BRANCH  27  29
HETATM   29  C   UNK N   1      20.223  17.289   4.007  0.00  0.00     0.010 C 
HETATM   30  C   UNK N   1      19.814  18.004   2.727  0.00  0.00     0.006 C 
ENDBRANCH  27  29
ENDBRANCH  25  27
ENDBRANCH  24  25
ENDBRANCH   3  24
TORSDOF 8
ENDMDL
