MODEL 1
REMARK VINA RESULT:      -4.5      0.000      0.000
REMARK  7 active torsions:
REMARK  status: ('A' for Active; 'I' for Inactive)
REMARK    1  A    between atoms: O_1  and  C_11 
REMARK    2  A    between atoms: N_3  and  C_8 
REMARK    3  A    between atoms: C_4  and  C_5 
REMARK    4  A    between atoms: C_4  and  C_7 
REMARK    5  A    between atoms: C_4  and  C_8 
REMARK    6  A    between atoms: C_5  and  C_6 
REMARK    7  A    between atoms: C_7  and  C_11 
ROOT
HETATM    1  C   UNK N   1      36.262  14.120  12.710  0.00  0.00     0.013 C 
ENDROOT
BRANCH   1   2
HETATM    2  C   UNK N   1      35.558  13.653  13.985  0.00  0.00     0.010 C 
BRANCH   2   3
HETATM    3  C   UNK N   1      36.499  13.483  15.174  0.00  0.00    -0.022 C 
HETATM    4  C   UNK N   1      35.705  12.962  16.352  0.00  0.00     0.009 C 
HETATM    5  C   UNK N   1      37.139  14.801  15.574  0.00  0.00     0.009 C 
ENDBRANCH   2   3
ENDBRANCH   1   2
BRANCH   1   6
HETATM    6  C   UNK N   1      35.264  14.849  11.812  0.00  0.00     0.116 C 
BRANCH   6   7
HETATM    7  C   UNK N   1      35.855  16.040  11.121  0.00  0.00     0.139 C 
HETATM    8  O   UNK N   1      35.167  17.014  10.868  0.00  0.00    -0.650 OA
BRANCH   7   9
HETATM    9  O   UNK N   1      37.167  16.050  10.819  0.00  0.00    -0.776 OA
HETATM   10  H   UNK N   1      37.773  15.418  11.154  0.00  0.00     0.167 HD
ENDBRANCH   7   9
ENDBRANCH   6   7
ENDBRANCH   1   6
BRANCH   1  11
HETATM   11  C   UNK N   1      36.788  12.900  11.959  0.00  0.00     0.116 C 
BRANCH  11  12
HETATM   12  N   UNK N   1      38.111  13.159  11.416  0.00  0.00    -0.430 N 
HETATM   13  H   UNK N   1      38.548  14.062  11.230  0.00  0.00     0.149 HD
HETATM   14  H   UNK N   1      38.672  12.336  11.194  0.00  0.00     0.149 HD
ENDBRANCH  11  12
ENDBRANCH   1  11
TORSDOF 7
ENDMDL
MODEL 2
REMARK VINA RESULT:      -4.4      6.218      7.666
REMARK  7 active torsions:
REMARK  status: ('A' for Active; 'I' for Inactive)
REMARK    1  A    between atoms: O_1  and  C_11 
REMARK    2  A    between atoms: N_3  and  C_8 
REMARK    3  A    between atoms: C_4  and  C_5 
REMARK    4  A    between atoms: C_4  and  C_7 
REMARK    5  A    between atoms: C_4  and  C_8 
REMARK    6  A    between atoms: C_5  and  C_6 
REMARK    7  A    between atoms: C_7  and  C_11 
ROOT
HETATM    1  C   UNK N   1      31.965  17.094   8.402  0.00  0.00     0.013 C 
ENDROOT
BRANCH   1   2
HETATM    2  C   UNK N   1      30.720  17.402   7.569  0.00  0.00     0.010 C 
BRANCH   2   3
HETATM    3  C   UNK N   1      29.507  17.797   8.407  0.00  0.00    -0.022 C 
HETATM    4  C   UNK N   1      28.561  18.603   7.543  0.00  0.00     0.009 C 
HETATM    5  C   UNK N   1      29.905  18.645   9.601  0.00  0.00     0.009 C 
ENDBRANCH   2   3
ENDBRANCH   1   2
BRANCH   1   6
HETATM    6  C   UNK N   1      33.209  17.584   7.663  0.00  0.00     0.116 C 
BRANCH   6   7
HETATM    7  C   UNK N   1      34.292  18.056   8.584  0.00  0.00     0.139 C 
HETATM    8  O   UNK N   1      34.974  19.025   8.293  0.00  0.00    -0.650 OA
BRANCH   7   9
HETATM    9  O   UNK N   1      34.483  17.433   9.762  0.00  0.00    -0.776 OA
HETATM   10  H   UNK N   1      35.326  17.153  10.061  0.00  0.00     0.167 HD
ENDBRANCH   7   9
ENDBRANCH   6   7
ENDBRANCH   1   6
BRANCH   1  11
HETATM   11  C   UNK N   1      32.075  15.584   8.588  0.00  0.00     0.116 C 
BRANCH  11  12
HETATM   12  N   UNK N   1      32.160  15.242   9.998  0.00  0.00    -0.430 N 
HETATM   13  H   UNK N   1      31.675  15.682  10.781  0.00  0.00     0.149 HD
HETATM   14  H   UNK N   1      32.778  14.466  10.234  0.00  0.00     0.149 HD
ENDBRANCH  11  12
ENDBRANCH   1  11
TORSDOF 7
ENDMDL
MODEL 3
REMARK VINA RESULT:      -4.3     17.465     18.917
REMARK  7 active torsions:
REMARK  status: ('A' for Active; 'I' for Inactive)
REMARK    1  A    between atoms: O_1  and  C_11 
REMARK    2  A    between atoms: N_3  and  C_8 
REMARK    3  A    between atoms: C_4  and  C_5 
REMARK    4  A    between atoms: C_4  and  C_7 
REMARK    5  A    between atoms: C_4  and  C_8 
REMARK    6  A    between atoms: C_5  and  C_6 
REMARK    7  A    between atoms: C_7  and  C_11 
ROOT
HETATM    1  C   UNK N   1      20.730  18.217   2.471  0.00  0.00     0.013 C 
ENDROOT
BRANCH   1   2
HETATM    2  C   UNK N   1      20.719  17.682   3.905  0.00  0.00     0.010 C 
BRANCH   2   3
HETATM    3  C   UNK N   1      21.535  18.528   4.877  0.00  0.00    -0.022 C 
HETATM    4  C   UNK N   1      23.001  18.398   4.522  0.00  0.00     0.009 C 
HETATM    5  C   UNK N   1      21.348  18.067   6.312  0.00  0.00     0.009 C 
ENDBRANCH   2   3
ENDBRANCH   1   2
BRANCH   1   6
HETATM    6  C   UNK N   1      20.143  19.627   2.448  0.00  0.00     0.116 C 
BRANCH   6   7
HETATM    7  C   UNK N   1      21.058  20.635   1.821  0.00  0.00     0.139 C 
HETATM    8  O   UNK N   1      21.288  20.602   0.624  0.00  0.00    -0.650 OA
BRANCH   7   9
HETATM    9  O   UNK N   1      21.593  21.610   2.580  0.00  0.00    -0.776 OA
HETATM   10  H   UNK N   1      22.235  21.447   3.244  0.00  0.00     0.167 HD
ENDBRANCH   7   9
ENDBRANCH   6   7
ENDBRANCH   1   6
BRANCH   1  11
HETATM   11  C   UNK N   1      19.860  17.317   1.600  0.00  0.00     0.116 C 
BRANCH  11  12
HETATM   12  N   UNK N   1      20.037  17.633   0.192  0.00  0.00    -0.430 N 
HETATM   13  H   UNK N   1      20.846  17.436  -0.398  0.00  0.00     0.149 HD
HETATM   14  H   UNK N   1      19.257  18.108  -0.262  0.00  0.00     0.149 HD
ENDBRANCH  11  12
ENDBRANCH   1  11
TORSDOF 7
ENDMDL
MODEL 4
REMARK VINA RESULT:      -4.3      4.250      5.454
REMARK  7 active torsions:
REMARK  status: ('A' for Active; 'I' for Inactive)
REMARK    1  A    between atoms: O_1  and  C_11 
REMARK    2  A    between atoms: N_3  and  C_8 
REMARK    3  A    between atoms: C_4  and  C_5 
REMARK    4  A    between atoms: C_4  and  C_7 
REMARK    5  A    between atoms: C_4  and  C_8 
REMARK    6  A    between atoms: C_5  and  C_6 
REMARK    7  A    between atoms: C_7  and  C_11 
ROOT
HETATM    1  C   UNK N   1      36.186  12.881  16.108  0.00  0.00     0.013 C 
ENDROOT
BRANCH   1   2
HETATM    2  C   UNK N   1      35.953  11.495  15.504  0.00  0.00     0.010 C 
BRANCH   2   3
HETATM    3  C   UNK N   1      34.606  10.884  15.881  0.00  0.00    -0.022 C 
HETATM    4  C   UNK N   1      34.847   9.528  16.510  0.00  0.00     0.009 C 
HETATM    5  C   UNK N   1      33.717  10.697  14.666  0.00  0.00     0.009 C 
ENDBRANCH   2   3
ENDBRANCH   1   2
BRANCH   1   6
HETATM    6  C   UNK N   1      34.967  13.292  16.931  0.00  0.00     0.116 C 
BRANCH   6   7
HETATM    7  C   UNK N   1      35.327  13.957  18.225  0.00  0.00     0.139 C 
HETATM    8  O   UNK N   1      35.080  13.416  19.289  0.00  0.00    -0.650 OA
BRANCH   7   9
HETATM    9  O   UNK N   1      35.970  15.140  18.208  0.00  0.00    -0.776 OA
HETATM   10  H   UNK N   1      35.537  15.958  18.358  0.00  0.00     0.167 HD
ENDBRANCH   7   9
ENDBRANCH   6   7
ENDBRANCH   1   6
BRANCH   1  11
HETATM   11  C   UNK N   1      36.370  13.889  14.979  0.00  0.00     0.116 C 
BRANCH  11  12
HETATM   12  N   UNK N   1      37.295  14.941  15.370  0.00  0.00    -0.430 N 
HETATM   13  H   UNK N   1      37.241  15.936  15.153  0.00  0.00     0.149 HD
HETATM   14  H   UNK N   1      38.094  14.647  15.931  0.00  0.00     0.149 HD
ENDBRANCH  11  12
ENDBRANCH   1  11
TORSDOF 7
ENDMDL
MODEL 5
REMARK VINA RESULT:      -4.1      9.836     11.972
REMARK  7 active torsions:
REMARK  status: ('A' for Active; 'I' for Inactive)
REMARK    1  A    between atoms: O_1  and  C_11 
REMARK    2  A    between atoms: N_3  and  C_8 
REMARK    3  A    between atoms: C_4  and  C_5 
REMARK    4  A    between atoms: C_4  and  C_7 
REMARK    5  A    between atoms: C_4  and  C_8 
REMARK    6  A    between atoms: C_5  and  C_6 
REMARK    7  A    between atoms: C_7  and  C_11 
ROOT
HETATM    1  C   UNK N   1      27.897  18.105   6.503  0.00  0.00     0.013 C 
ENDROOT
BRANCH   1   2
HETATM    2  C   UNK N   1      28.511  18.785   5.277  0.00  0.00     0.010 C 
BRANCH   2   3
HETATM    3  C   UNK N   1      27.878  20.132   4.946  0.00  0.00    -0.022 C 
HETATM    4  C   UNK N   1      27.112  20.620   6.157  0.00  0.00     0.009 C 
HETATM    5  C   UNK N   1      26.911  20.025   3.780  0.00  0.00     0.009 C 
ENDBRANCH   2   3
ENDBRANCH   1   2
BRANCH   1   6
HETATM    6  C   UNK N   1      28.995  17.788   7.516  0.00  0.00     0.116 C 
BRANCH   6   7
HETATM    7  C   UNK N   1      28.689  18.293   8.893  0.00  0.00     0.139 C 
HETATM    8  O   UNK N   1      29.568  18.785   9.581  0.00  0.00    -0.650 OA
BRANCH   7   9
HETATM    9  O   UNK N   1      27.426  18.243   9.353  0.00  0.00    -0.776 OA
HETATM   10  H   UNK N   1      26.910  17.460   9.348  0.00  0.00     0.167 HD
ENDBRANCH   7   9
ENDBRANCH   6   7
ENDBRANCH   1   6
BRANCH   1  11
HETATM   11  C   UNK N   1      27.245  16.796   6.069  0.00  0.00     0.116 C 
BRANCH  11  12
HETATM   12  N   UNK N   1      26.464  16.224   7.153  0.00  0.00    -0.430 N 
HETATM   13  H   UNK N   1      26.793  15.642   7.924  0.00  0.00     0.149 HD
HETATM   14  H   UNK N   1      25.465  16.430   7.142  0.00  0.00     0.149 HD
ENDBRANCH  11  12
ENDBRANCH   1  11
TORSDOF 7
ENDMDL
MODEL 6
REMARK VINA RESULT:      -4.1      6.866      8.584
REMARK  7 active torsions:
REMARK  status: ('A' for Active; 'I' for Inactive)
REMARK    1  A    between atoms: O_1  and  C_11 
REMARK    2  A    between atoms: N_3  and  C_8 
REMARK    3  A    between atoms: C_4  and  C_5 
REMARK    4  A    between atoms: C_4  and  C_7 
REMARK    5  A    between atoms: C_4  and  C_8 
REMARK    6  A    between atoms: C_5  and  C_6 
REMARK    7  A    between atoms: C_7  and  C_11 
ROOT
HETATM    1  C   UNK N   1      31.794  17.875   7.889  0.00  0.00     0.013 C 
ENDROOT
BRANCH   1   2
HETATM    2  C   UNK N   1      31.358  16.616   7.138  0.00  0.00     0.010 C 
BRANCH   2   3
HETATM    3  C   UNK N   1      30.620  16.908   5.835  0.00  0.00    -0.022 C 
HETATM    4  C   UNK N   1      29.947  15.637   5.362  0.00  0.00     0.009 C 
HETATM    5  C   UNK N   1      31.569  17.379   4.748  0.00  0.00     0.009 C 
ENDBRANCH   2   3
ENDBRANCH   1   2
BRANCH   1   6
HETATM    6  C   UNK N   1      33.137  17.623   8.573  0.00  0.00     0.116 C 
BRANCH   6   7
HETATM    7  C   UNK N   1      34.292  18.244   7.847  0.00  0.00     0.139 C 
HETATM    8  O   UNK N   1      34.994  19.076   8.397  0.00  0.00    -0.650 OA
BRANCH   7   9
HETATM    9  O   UNK N   1      34.582  17.845   6.595  0.00  0.00    -0.776 OA
HETATM   10  H   UNK N   1      34.598  16.943   6.337  0.00  0.00     0.167 HD
ENDBRANCH   7   9
ENDBRANCH   6   7
ENDBRANCH   1   6
BRANCH   1  11
HETATM   11  C   UNK N   1      30.758  18.197   8.961  0.00  0.00     0.116 C 
BRANCH  11  12
HETATM   12  N   UNK N   1      30.334  16.989   9.649  0.00  0.00    -0.430 N 
HETATM   13  H   UNK N   1      30.748  16.560  10.477  0.00  0.00     0.149 HD
HETATM   14  H   UNK N   1      29.521  16.513   9.257  0.00  0.00     0.149 HD
ENDBRANCH  11  12
ENDBRANCH   1  11
TORSDOF 7
ENDMDL
MODEL 7
REMARK VINA RESULT:      -4.1      6.228      8.224
REMARK  7 active torsions:
REMARK  status: ('A' for Active; 'I' for Inactive)
REMARK    1  A    between atoms: O_1  and  C_11 
REMARK    2  A    between atoms: N_3  and  C_8 
REMARK    3  A    between atoms: C_4  and  C_5 
REMARK    4  A    between atoms: C_4  and  C_7 
REMARK    5  A    between atoms: C_4  and  C_8 
REMARK    6  A    between atoms: C_5  and  C_6 
REMARK    7  A    between atoms: C_7  and  C_11 
ROOT
HETATM    1  C   UNK N   1      32.419  17.769   7.710  0.00  0.00     0.013 C 
ENDROOT
BRANCH   1   2
HETATM    2  C   UNK N   1      32.162  16.999   6.413  0.00  0.00     0.010 C 
BRANCH   2   3
HETATM    3  C   UNK N   1      33.235  17.218   5.352  0.00  0.00    -0.022 C 
HETATM    4  C   UNK N   1      32.565  17.650   4.065  0.00  0.00     0.009 C 
HETATM    5  C   UNK N   1      34.020  15.947   5.079  0.00  0.00     0.009 C 
ENDBRANCH   2   3
ENDBRANCH   1   2
BRANCH   1   6
HETATM    6  C   UNK N   1      33.484  17.046   8.532  0.00  0.00     0.116 C 
BRANCH   6   7
HETATM    7  C   UNK N   1      34.681  17.899   8.825  0.00  0.00     0.139 C 
HETATM    8  O   UNK N   1      35.370  17.683   9.807  0.00  0.00    -0.650 OA
BRANCH   7   9
HETATM    9  O   UNK N   1      35.021  18.883   7.972  0.00  0.00    -0.776 OA
HETATM   10  H   UNK N   1      34.721  18.916   7.084  0.00  0.00     0.167 HD
ENDBRANCH   7   9
ENDBRANCH   6   7
ENDBRANCH   1   6
BRANCH   1  11
HETATM   11  C   UNK N   1      31.129  17.816   8.523  0.00  0.00     0.116 C 
BRANCH  11  12
HETATM   12  N   UNK N   1      31.022  16.653   9.389  0.00  0.00    -0.430 N 
HETATM   13  H   UNK N   1      31.446  15.734   9.261  0.00  0.00     0.149 HD
HETATM   14  H   UNK N   1      30.456  16.772  10.229  0.00  0.00     0.149 HD
ENDBRANCH  11  12
ENDBRANCH   1  11
TORSDOF 7
ENDMDL
MODEL 8
REMARK VINA RESULT:      -4.1      3.539      4.866
REMARK  7 active torsions:
REMARK  status: ('A' for Active; 'I' for Inactive)
REMARK    1  A    between atoms: O_1  and  C_11 
REMARK    2  A    between atoms: N_3  and  C_8 
REMARK    3  A    between atoms: C_4  and  C_5 
REMARK    4  A    between atoms: C_4  and  C_7 
REMARK    5  A    between atoms: C_4  and  C_8 
REMARK    6  A    between atoms: C_5  and  C_6 
REMARK    7  A    between atoms: C_7  and  C_11 
ROOT
HETATM    1  C   UNK N   1      35.232  13.184  16.793  0.00  0.00     0.013 C 
ENDROOT
BRANCH   1   2
HETATM    2  C   UNK N   1      35.316  11.774  17.380  0.00  0.00     0.010 C 
BRANCH   2   3
HETATM    3  C   UNK N   1      35.837  10.733  16.394  0.00  0.00    -0.022 C 
HETATM    4  C   UNK N   1      34.659  10.112  15.674  0.00  0.00     0.009 C 
HETATM    5  C   UNK N   1      36.602   9.628  17.101  0.00  0.00     0.009 C 
ENDBRANCH   2   3
ENDBRANCH   1   2
BRANCH   1   6
HETATM    6  C   UNK N   1      36.402  13.410  15.837  0.00  0.00     0.116 C 
BRANCH   6   7
HETATM    7  C   UNK N   1      35.967  13.758  14.446  0.00  0.00     0.139 C 
HETATM    8  O   UNK N   1      34.854  13.452  14.051  0.00  0.00    -0.650 OA
BRANCH   7   9
HETATM    9  O   UNK N   1      36.794  14.454  13.645  0.00  0.00    -0.776 OA
HETATM   10  H   UNK N   1      36.571  15.289  13.281  0.00  0.00     0.167 HD
ENDBRANCH   7   9
ENDBRANCH   6   7
ENDBRANCH   1   6
BRANCH   1  11
HETATM   11  C   UNK N   1      35.330  14.200  17.926  0.00  0.00     0.116 C 
BRANCH  11  12
HETATM   12  N   UNK N   1      35.235  13.542  19.219  0.00  0.00    -0.430 N 
HETATM   13  H   UNK N   1      35.187  13.975  20.142  0.00  0.00     0.149 HD
HETATM   14  H   UNK N   1      35.213  12.522  19.202  0.00  0.00     0.149 HD
ENDBRANCH  11  12
ENDBRANCH   1  11
TORSDOF 7
ENDMDL
MODEL 9
REMARK VINA RESULT:      -4.1      3.874      5.327
REMARK  7 active torsions:
REMARK  status: ('A' for Active; 'I' for Inactive)
REMARK    1  A    between atoms: O_1  and  C_11 
REMARK    2  A    between atoms: N_3  and  C_8 
REMARK    3  A    between atoms: C_4  and  C_5 
REMARK    4  A    between atoms: C_4  and  C_7 
REMARK    5  A    between atoms: C_4  and  C_8 
REMARK    6  A    between atoms: C_5  and  C_6 
REMARK    7  A    between atoms: C_7  and  C_11 
ROOT
HETATM    1  C   UNK N   1      33.710  15.982   8.860  0.00  0.00     0.013 C 
ENDROOT
BRANCH   1   2
HETATM    2  C   UNK N   1      34.500  15.668  10.132  0.00  0.00     0.010 C 
BRANCH   2   3
HETATM    3  C   UNK N   1      35.928  15.203   9.863  0.00  0.00    -0.022 C 
HETATM    4  C   UNK N   1      35.944  14.398   8.581  0.00  0.00     0.009 C 
HETATM    5  C   UNK N   1      36.451  14.325  10.986  0.00  0.00     0.009 C 
ENDBRANCH   2   3
ENDBRANCH   1   2
BRANCH   1   6
HETATM    6  C   UNK N   1      33.451  17.486   8.778  0.00  0.00     0.116 C 
BRANCH   6   7
HETATM    7  C   UNK N   1      34.459  18.211   7.941  0.00  0.00     0.139 C 
HETATM    8  O   UNK N   1      34.546  17.990   6.744  0.00  0.00    -0.650 OA
BRANCH   7   9
HETATM    9  O   UNK N   1      35.243  19.147   8.507  0.00  0.00    -0.776 OA
HETATM   10  H   UNK N   1      36.075  19.398   8.154  0.00  0.00     0.167 HD
ENDBRANCH   7   9
ENDBRANCH   6   7
ENDBRANCH   1   6
BRANCH   1  11
HETATM   11  C   UNK N   1      32.366  15.262   8.920  0.00  0.00     0.116 C 
BRANCH  11  12
HETATM   12  N   UNK N   1      31.889  15.173  10.290  0.00  0.00    -0.430 N 
HETATM   13  H   UNK N   1      32.178  14.514  11.014  0.00  0.00     0.149 HD
HETATM   14  H   UNK N   1      31.179  15.852  10.562  0.00  0.00     0.149 HD
ENDBRANCH  11  12
ENDBRANCH   1  11
TORSDOF 7
ENDMDL
