MODEL 1
REMARK VINA RESULT:      -6.1      0.000      0.000
REMARK  6 active torsions:
REMARK  status: ('A' for Active; 'I' for Inactive)
REMARK    1  A    between atoms: C_6  and  O_2 
REMARK    2  A    between atoms: O_2  and  C_13 
REMARK    3  A    between atoms: O_3  and  C_16 
REMARK    4  A    between atoms: O_3  and  C_22 
REMARK    5  A    between atoms: C_5  and  C_6 
REMARK    6  A    between atoms: C_6  and  C_10 
ROOT
HETATM    1  C   UNK N   1      29.056  16.937   4.771  0.00  0.00     0.192 C 
ENDROOT
BRANCH   1   2
HETATM    2  O   UNK N   1      29.053  16.409   6.067  0.00  0.00    -0.336 OA
BRANCH   2   3
HETATM    3  C   UNK N   1      29.260  17.077   7.239  0.00  0.00     0.103 A 
HETATM    4  C   UNK N   1      30.560  17.461   7.631  0.00  0.00     0.102 A 
HETATM    5  C   UNK N   1      30.732  18.183   8.831  0.00  0.00     0.039 A 
HETATM    6  C   UNK N   1      29.635  18.532   9.618  0.00  0.00     0.003 A 
HETATM    7  C   UNK N   1      28.352  18.178   9.213  0.00  0.00     0.003 A 
HETATM    8  C   UNK N   1      28.169  17.464   8.028  0.00  0.00     0.040 A 
BRANCH   4   9
HETATM    9  O   UNK N   1      31.626  17.147   6.853  0.00  0.00    -0.349 OA
BRANCH   9  10
HETATM   10  C   UNK N   1      32.908  17.619   7.075  0.00  0.00     0.171 C 
HETATM   11  C   UNK N   1      33.892  17.000   6.093  0.00  0.00     0.034 C 
ENDBRANCH   9  10
ENDBRANCH   4   9
ENDBRANCH   2   3
ENDBRANCH   1   2
BRANCH   1  12
HETATM   12  C   UNK N   1      29.514  15.949   3.680  0.00  0.00     0.172 C 
HETATM   13  O   UNK N   1      30.320  16.589   2.694  0.00  0.00    -0.380 OA
HETATM   14  C   UNK N   1      31.663  16.647   3.121  0.00  0.00     0.187 C 
HETATM   15  C   UNK N   1      32.262  15.236   3.152  0.00  0.00     0.140 C 
HETATM   16  N   UNK N   1      31.233  14.215   3.392  0.00  0.00    -0.417 N 
HETATM   17  C   UNK N   1      30.239  14.744   4.323  0.00  0.00     0.148 C 
HETATM   18  H   UNK N   1      31.215  13.285   2.974  0.00  0.00     0.153 HD
ENDBRANCH   1  12
BRANCH   1  19
HETATM   19  C   UNK N   1      27.966  17.923   4.370  0.00  0.00    -0.026 A 
HETATM   20  C   UNK N   1      28.096  19.305   4.537  0.00  0.00     0.010 A 
HETATM   21  C   UNK N   1      27.069  20.174   4.160  0.00  0.00     0.001 A 
HETATM   22  C   UNK N   1      25.885  19.664   3.624  0.00  0.00     0.000 A 
HETATM   23  C   UNK N   1      25.735  18.285   3.462  0.00  0.00     0.001 A 
HETATM   24  C   UNK N   1      26.771  17.422   3.829  0.00  0.00     0.010 A 
ENDBRANCH   1  19
TORSDOF 6
ENDMDL
MODEL 2
REMARK VINA RESULT:      -6.1      1.819      4.438
REMARK  6 active torsions:
REMARK  status: ('A' for Active; 'I' for Inactive)
REMARK    1  A    between atoms: C_6  and  O_2 
REMARK    2  A    between atoms: O_2  and  C_13 
REMARK    3  A    between atoms: O_3  and  C_16 
REMARK    4  A    between atoms: O_3  and  C_22 
REMARK    5  A    between atoms: C_5  and  C_6 
REMARK    6  A    between atoms: C_6  and  C_10 
ROOT
HETATM    1  C   UNK N   1      29.330  16.140   4.665  0.00  0.00     0.192 C 
ENDROOT
BRANCH   1   2
HETATM    2  O   UNK N   1      28.195  16.727   5.235  0.00  0.00    -0.336 OA
BRANCH   2   3
HETATM    3  C   UNK N   1      27.954  18.056   5.433  0.00  0.00     0.103 A 
HETATM    4  C   UNK N   1      27.962  18.605   6.733  0.00  0.00     0.102 A 
HETATM    5  C   UNK N   1      27.745  19.990   6.896  0.00  0.00     0.039 A 
HETATM    6  C   UNK N   1      27.544  20.816   5.791  0.00  0.00     0.003 A 
HETATM    7  C   UNK N   1      27.568  20.276   4.510  0.00  0.00     0.003 A 
HETATM    8  C   UNK N   1      27.781  18.908   4.335  0.00  0.00     0.040 A 
BRANCH   4   9
HETATM    9  O   UNK N   1      28.185  17.808   7.807  0.00  0.00    -0.349 OA
BRANCH   9  10
HETATM   10  C   UNK N   1      28.300  18.276   9.104  0.00  0.00     0.171 C 
HETATM   11  C   UNK N   1      29.760  18.447   9.494  0.00  0.00     0.034 C 
ENDBRANCH   9  10
ENDBRANCH   4   9
ENDBRANCH   2   3
ENDBRANCH   1   2
BRANCH   1  12
HETATM   12  C   UNK N   1      29.154  15.710   3.194  0.00  0.00     0.172 C 
HETATM   13  O   UNK N   1      29.915  14.543   2.892  0.00  0.00    -0.380 OA
HETATM   14  C   UNK N   1      29.198  13.384   3.254  0.00  0.00     0.187 C 
HETATM   15  C   UNK N   1      27.981  13.215   2.335  0.00  0.00     0.140 C 
HETATM   16  N   UNK N   1      27.503  14.508   1.827  0.00  0.00    -0.417 N 
HETATM   17  C   UNK N   1      27.655  15.521   2.869  0.00  0.00     0.148 C 
HETATM   18  H   UNK N   1      27.125  14.672   0.894  0.00  0.00     0.153 HD
ENDBRANCH   1  12
BRANCH   1  19
HETATM   19  C   UNK N   1      30.708  16.659   5.053  0.00  0.00    -0.026 A 
HETATM   20  C   UNK N   1      31.578  17.258   4.137  0.00  0.00     0.010 A 
HETATM   21  C   UNK N   1      32.836  17.716   4.535  0.00  0.00     0.001 A 
HETATM   22  C   UNK N   1      33.248  17.563   5.860  0.00  0.00     0.000 A 
HETATM   23  C   UNK N   1      32.395  16.957   6.785  0.00  0.00     0.001 A 
HETATM   24  C   UNK N   1      31.131  16.513   6.384  0.00  0.00     0.010 A 
ENDBRANCH   1  19
TORSDOF 6
ENDMDL
MODEL 3
REMARK VINA RESULT:      -6.1      1.671      3.359
REMARK  6 active torsions:
REMARK  status: ('A' for Active; 'I' for Inactive)
REMARK    1  A    between atoms: C_6  and  O_2 
REMARK    2  A    between atoms: O_2  and  C_13 
REMARK    3  A    between atoms: O_3  and  C_16 
REMARK    4  A    between atoms: O_3  and  C_22 
REMARK    5  A    between atoms: C_5  and  C_6 
REMARK    6  A    between atoms: C_6  and  C_10 
ROOT
HETATM    1  C   UNK N   1      28.637  17.331   4.508  0.00  0.00     0.192 C 
ENDROOT
BRANCH   1   2
HETATM    2  O   UNK N   1      29.549  16.764   5.404  0.00  0.00    -0.336 OA
BRANCH   2   3
HETATM    3  C   UNK N   1      30.881  17.037   5.521  0.00  0.00     0.103 A 
HETATM    4  C   UNK N   1      31.471  17.217   6.790  0.00  0.00     0.102 A 
HETATM    5  C   UNK N   1      32.859  17.461   6.875  0.00  0.00     0.039 A 
HETATM    6  C   UNK N   1      33.647  17.508   5.726  0.00  0.00     0.003 A 
HETATM    7  C   UNK N   1      33.067  17.299   4.479  0.00  0.00     0.003 A 
HETATM    8  C   UNK N   1      31.696  17.057   4.382  0.00  0.00     0.040 A 
BRANCH   4   9
HETATM    9  O   UNK N   1      30.711  17.144   7.911  0.00  0.00    -0.349 OA
BRANCH   9  10
HETATM   10  C   UNK N   1      30.670  18.130   8.880  0.00  0.00     0.171 C 
HETATM   11  C   UNK N   1      29.326  18.136   9.594  0.00  0.00     0.034 C 
ENDBRANCH   9  10
ENDBRANCH   4   9
ENDBRANCH   2   3
ENDBRANCH   1   2
BRANCH   1  12
HETATM   12  C   UNK N   1      27.762  16.309   3.754  0.00  0.00     0.172 C 
HETATM   13  O   UNK N   1      28.383  15.872   2.548  0.00  0.00    -0.380 OA
HETATM   14  C   UNK N   1      29.281  14.817   2.814  0.00  0.00     0.187 C 
HETATM   15  C   UNK N   1      28.504  13.566   3.241  0.00  0.00     0.140 C 
HETATM   16  N   UNK N   1      27.229  13.913   3.884  0.00  0.00    -0.417 N 
HETATM   17  C   UNK N   1      27.407  15.125   4.682  0.00  0.00     0.148 C 
HETATM   18  H   UNK N   1      26.358  13.391   3.789  0.00  0.00     0.153 HD
ENDBRANCH   1  12
BRANCH   1  19
HETATM   19  C   UNK N   1      27.968  18.651   4.868  0.00  0.00    -0.026 A 
HETATM   20  C   UNK N   1      27.330  19.461   3.923  0.00  0.00     0.010 A 
HETATM   21  C   UNK N   1      26.733  20.668   4.296  0.00  0.00     0.001 A 
HETATM   22  C   UNK N   1      26.784  21.089   5.626  0.00  0.00     0.000 A 
HETATM   23  C   UNK N   1      27.427  20.298   6.580  0.00  0.00     0.001 A 
HETATM   24  C   UNK N   1      28.011  19.085   6.203  0.00  0.00     0.010 A 
ENDBRANCH   1  19
TORSDOF 6
ENDMDL
MODEL 4
REMARK VINA RESULT:      -6.1      1.684      5.022
REMARK  6 active torsions:
REMARK  status: ('A' for Active; 'I' for Inactive)
REMARK    1  A    between atoms: C_6  and  O_2 
REMARK    2  A    between atoms: O_2  and  C_13 
REMARK    3  A    between atoms: O_3  and  C_16 
REMARK    4  A    between atoms: O_3  and  C_22 
REMARK    5  A    between atoms: C_5  and  C_6 
REMARK    6  A    between atoms: C_6  and  C_10 
ROOT
HETATM    1  C   UNK N   1      30.047  17.150   5.676  0.00  0.00     0.192 C 
ENDROOT
BRANCH   1   2
HETATM    2  O   UNK N   1      29.463  17.867   4.626  0.00  0.00    -0.336 OA
BRANCH   2   3
HETATM    3  C   UNK N   1      28.167  17.818   4.204  0.00  0.00     0.103 A 
HETATM    4  C   UNK N   1      27.362  18.978   4.209  0.00  0.00     0.102 A 
HETATM    5  C   UNK N   1      26.037  18.898   3.730  0.00  0.00     0.039 A 
HETATM    6  C   UNK N   1      25.526  17.697   3.241  0.00  0.00     0.003 A 
HETATM    7  C   UNK N   1      26.332  16.563   3.210  0.00  0.00     0.003 A 
HETATM    8  C   UNK N   1      27.644  16.630   3.680  0.00  0.00     0.040 A 
BRANCH   4   9
HETATM    9  O   UNK N   1      27.866  20.154   4.659  0.00  0.00    -0.349 OA
BRANCH   9  10
HETATM   10  C   UNK N   1      27.156  21.050   5.438  0.00  0.00     0.171 C 
HETATM   11  C   UNK N   1      27.145  20.613   6.896  0.00  0.00     0.034 C 
ENDBRANCH   9  10
ENDBRANCH   4   9
ENDBRANCH   2   3
ENDBRANCH   1   2
BRANCH   1  12
HETATM   12  C   UNK N   1      31.527  16.778   5.450  0.00  0.00     0.172 C 
HETATM   13  O   UNK N   1      31.707  15.368   5.358  0.00  0.00    -0.380 OA
HETATM   14  C   UNK N   1      31.457  14.926   4.042  0.00  0.00     0.187 C 
HETATM   15  C   UNK N   1      32.550  15.447   3.101  0.00  0.00     0.140 C 
HETATM   16  N   UNK N   1      33.128  16.708   3.586  0.00  0.00    -0.417 N 
HETATM   17  C   UNK N   1      32.076  17.512   4.205  0.00  0.00     0.148 C 
HETATM   18  H   UNK N   1      34.108  16.978   3.504  0.00  0.00     0.153 HD
ENDBRANCH   1  12
BRANCH   1  19
HETATM   19  C   UNK N   1      29.648  17.478   7.109  0.00  0.00    -0.026 A 
HETATM   20  C   UNK N   1      28.374  17.212   7.621  0.00  0.00     0.010 A 
HETATM   21  C   UNK N   1      28.049  17.533   8.941  0.00  0.00     0.001 A 
HETATM   22  C   UNK N   1      28.996  18.144   9.764  0.00  0.00     0.000 A 
HETATM   23  C   UNK N   1      30.269  18.427   9.265  0.00  0.00     0.001 A 
HETATM   24  C   UNK N   1      30.593  18.091   7.948  0.00  0.00     0.010 A 
ENDBRANCH   1  19
TORSDOF 6
ENDMDL
MODEL 5
REMARK VINA RESULT:      -6.0      5.237      8.098
REMARK  6 active torsions:
REMARK  status: ('A' for Active; 'I' for Inactive)
REMARK    1  A    between atoms: C_6  and  O_2 
REMARK    2  A    between atoms: O_2  and  C_13 
REMARK    3  A    between atoms: O_3  and  C_16 
REMARK    4  A    between atoms: O_3  and  C_22 
REMARK    5  A    between atoms: C_5  and  C_6 
REMARK    6  A    between atoms: C_6  and  C_10 
ROOT
HETATM    1  C   UNK N   1      22.171  18.318   4.566  0.00  0.00     0.192 C 
ENDROOT
BRANCH   1   2
HETATM    2  O   UNK N   1      23.250  18.083   3.708  0.00  0.00    -0.336 OA
BRANCH   2   3
HETATM    3  C   UNK N   1      24.534  18.526   3.842  0.00  0.00     0.103 A 
HETATM    4  C   UNK N   1      25.612  17.615   3.866  0.00  0.00     0.102 A 
HETATM    5  C   UNK N   1      26.930  18.112   3.969  0.00  0.00     0.039 A 
HETATM    6  C   UNK N   1      27.173  19.483   4.030  0.00  0.00     0.003 A 
HETATM    7  C   UNK N   1      26.109  20.378   3.975  0.00  0.00     0.003 A 
HETATM    8  C   UNK N   1      24.802  19.900   3.873  0.00  0.00     0.040 A 
BRANCH   4   9
HETATM    9  O   UNK N   1      25.380  16.282   3.780  0.00  0.00    -0.349 OA
BRANCH   9  10
HETATM   10  C   UNK N   1      26.219  15.393   3.131  0.00  0.00     0.171 C 
HETATM   11  C   UNK N   1      25.939  15.373   1.636  0.00  0.00     0.034 C 
ENDBRANCH   9  10
ENDBRANCH   4   9
ENDBRANCH   2   3
ENDBRANCH   1   2
BRANCH   1  12
HETATM   12  C   UNK N   1      20.914  18.883   3.872  0.00  0.00     0.172 C 
HETATM   13  O   UNK N   1      20.957  20.304   3.780  0.00  0.00    -0.380 OA
HETATM   14  C   UNK N   1      21.690  20.700   2.641  0.00  0.00     0.187 C 
HETATM   15  C   UNK N   1      20.920  20.322   1.369  0.00  0.00     0.140 C 
HETATM   16  N   UNK N   1      20.058  19.153   1.585  0.00  0.00    -0.417 N 
HETATM   17  C   UNK N   1      20.728  18.220   2.488  0.00  0.00     0.148 C 
HETATM   18  H   UNK N   1      19.137  19.014   1.169  0.00  0.00     0.153 HD
ENDBRANCH   1  12
BRANCH   1  19
HETATM   19  C   UNK N   1      21.926  17.365   5.728  0.00  0.00    -0.026 A 
HETATM   20  C   UNK N   1      22.640  16.173   5.894  0.00  0.00     0.010 A 
HETATM   21  C   UNK N   1      22.379  15.325   6.973  0.00  0.00     0.001 A 
HETATM   22  C   UNK N   1      21.382  15.651   7.893  0.00  0.00     0.000 A 
HETATM   23  C   UNK N   1      20.652  16.831   7.735  0.00  0.00     0.001 A 
HETATM   24  C   UNK N   1      20.927  17.684   6.661  0.00  0.00     0.010 A 
ENDBRANCH   1  19
TORSDOF 6
ENDMDL
MODEL 6
REMARK VINA RESULT:      -6.0      2.596      5.441
REMARK  6 active torsions:
REMARK  status: ('A' for Active; 'I' for Inactive)
REMARK    1  A    between atoms: C_6  and  O_2 
REMARK    2  A    between atoms: O_2  and  C_13 
REMARK    3  A    between atoms: O_3  and  C_16 
REMARK    4  A    between atoms: O_3  and  C_22 
REMARK    5  A    between atoms: C_5  and  C_6 
REMARK    6  A    between atoms: C_6  and  C_10 
ROOT
HETATM    1  C   UNK N   1      32.571  16.127   7.253  0.00  0.00     0.192 C 
ENDROOT
BRANCH   1   2
HETATM    2  O   UNK N   1      31.300  15.948   7.809  0.00  0.00    -0.336 OA
BRANCH   2   3
HETATM    3  C   UNK N   1      30.320  16.885   7.966  0.00  0.00     0.103 A 
HETATM    4  C   UNK N   1      29.256  16.978   7.043  0.00  0.00     0.102 A 
HETATM    5  C   UNK N   1      28.241  17.935   7.258  0.00  0.00     0.039 A 
HETATM    6  C   UNK N   1      28.272  18.771   8.373  0.00  0.00     0.003 A 
HETATM    7  C   UNK N   1      29.306  18.655   9.296  0.00  0.00     0.003 A 
HETATM    8  C   UNK N   1      30.316  17.713   9.095  0.00  0.00     0.040 A 
BRANCH   4   9
HETATM    9  O   UNK N   1      29.209  16.147   5.972  0.00  0.00    -0.349 OA
BRANCH   9  10
HETATM   10  C   UNK N   1      28.362  16.327   4.894  0.00  0.00     0.171 C 
HETATM   11  C   UNK N   1      29.144  16.704   3.644  0.00  0.00     0.034 C 
ENDBRANCH   9  10
ENDBRANCH   4   9
ENDBRANCH   2   3
ENDBRANCH   1   2
BRANCH   1  12
HETATM   12  C   UNK N   1      33.707  15.414   8.015  0.00  0.00     0.172 C 
HETATM   13  O   UNK N   1      34.879  16.221   8.090  0.00  0.00    -0.380 OA
HETATM   14  C   UNK N   1      34.791  17.114   9.179  0.00  0.00     0.187 C 
HETATM   15  C   UNK N   1      34.857  16.335  10.498  0.00  0.00     0.140 C 
HETATM   16  N   UNK N   1      34.342  14.968  10.347  0.00  0.00    -0.417 N 
HETATM   17  C   UNK N   1      33.217  14.977   9.415  0.00  0.00     0.148 C 
HETATM   18  H   UNK N   1      34.712  14.142  10.819  0.00  0.00     0.153 HD
ENDBRANCH   1  12
BRANCH   1  19
HETATM   19  C   UNK N   1      32.716  16.192   5.738  0.00  0.00    -0.026 A 
HETATM   20  C   UNK N   1      32.972  15.063   4.953  0.00  0.00     0.010 A 
HETATM   21  C   UNK N   1      33.102  15.168   3.566  0.00  0.00     0.001 A 
HETATM   22  C   UNK N   1      32.995  16.415   2.947  0.00  0.00     0.000 A 
HETATM   23  C   UNK N   1      32.751  17.553   3.719  0.00  0.00     0.001 A 
HETATM   24  C   UNK N   1      32.608  17.440   5.105  0.00  0.00     0.010 A 
ENDBRANCH   1  19
TORSDOF 6
ENDMDL
MODEL 7
REMARK VINA RESULT:      -6.0     11.219     13.960
REMARK  6 active torsions:
REMARK  status: ('A' for Active; 'I' for Inactive)
REMARK    1  A    between atoms: C_6  and  O_2 
REMARK    2  A    between atoms: O_2  and  C_13 
REMARK    3  A    between atoms: O_3  and  C_16 
REMARK    4  A    between atoms: O_3  and  C_22 
REMARK    5  A    between atoms: C_5  and  C_6 
REMARK    6  A    between atoms: C_6  and  C_10 
ROOT
HETATM    1  C   UNK N   1      35.797  12.171  14.917  0.00  0.00     0.192 C 
ENDROOT
BRANCH   1   2
HETATM    2  O   UNK N   1      35.882  10.867  15.417  0.00  0.00    -0.336 OA
BRANCH   2   3
HETATM    3  C   UNK N   1      36.987  10.069  15.477  0.00  0.00     0.103 A 
HETATM    4  C   UNK N   1      37.032   8.963  16.353  0.00  0.00     0.102 A 
HETATM    5  C   UNK N   1      38.177   8.138  16.362  0.00  0.00     0.039 A 
HETATM    6  C   UNK N   1      39.247   8.393  15.507  0.00  0.00     0.003 A 
HETATM    7  C   UNK N   1      39.187   9.466  14.623  0.00  0.00     0.003 A 
HETATM    8  C   UNK N   1      38.061  10.290  14.605  0.00  0.00     0.040 A 
BRANCH   4   9
HETATM    9  O   UNK N   1      35.980   8.696  17.167  0.00  0.00    -0.349 OA
BRANCH   9  10
HETATM   10  C   UNK N   1      36.021   8.813  18.544  0.00  0.00     0.171 C 
HETATM   11  C   UNK N   1      36.314  10.247  18.960  0.00  0.00     0.034 C 
ENDBRANCH   9  10
ENDBRANCH   4   9
ENDBRANCH   2   3
ENDBRANCH   1   2
BRANCH   1  12
HETATM   12  C   UNK N   1      34.695  12.379  13.859  0.00  0.00     0.172 C 
HETATM   13  O   UNK N   1      34.848  13.619  13.174  0.00  0.00    -0.380 OA
HETATM   14  C   UNK N   1      35.762  13.482  12.109  0.00  0.00     0.187 C 
HETATM   15  C   UNK N   1      35.159  12.590  11.016  0.00  0.00     0.140 C 
HETATM   16  N   UNK N   1      34.195  11.629  11.572  0.00  0.00    -0.417 N 
HETATM   17  C   UNK N   1      34.663  11.181  12.882  0.00  0.00     0.148 C 
HETATM   18  H   UNK N   1      33.336  11.324  11.115  0.00  0.00     0.153 HD
ENDBRANCH   1  12
BRANCH   1  19
HETATM   19  C   UNK N   1      36.057  13.343  15.855  0.00  0.00    -0.026 A 
HETATM   20  C   UNK N   1      37.012  14.329  15.589  0.00  0.00     0.010 A 
HETATM   21  C   UNK N   1      37.221  15.385  16.479  0.00  0.00     0.001 A 
HETATM   22  C   UNK N   1      36.486  15.456  17.663  0.00  0.00     0.000 A 
HETATM   23  C   UNK N   1      35.537  14.472  17.950  0.00  0.00     0.001 A 
HETATM   24  C   UNK N   1      35.322  13.426  17.048  0.00  0.00     0.010 A 
ENDBRANCH   1  19
TORSDOF 6
ENDMDL
MODEL 8
REMARK VINA RESULT:      -5.9     11.652     14.990
REMARK  6 active torsions:
REMARK  status: ('A' for Active; 'I' for Inactive)
REMARK    1  A    between atoms: C_6  and  O_2 
REMARK    2  A    between atoms: O_2  and  C_13 
REMARK    3  A    between atoms: O_3  and  C_16 
REMARK    4  A    between atoms: O_3  and  C_22 
REMARK    5  A    between atoms: C_5  and  C_6 
REMARK    6  A    between atoms: C_6  and  C_10 
ROOT
HETATM    1  C   UNK N   1      27.460  25.151  -4.781  0.00  0.00     0.192 C 
ENDROOT
BRANCH   1   2
HETATM    2  O   UNK N   1      26.263  24.873  -5.448  0.00  0.00    -0.336 OA
BRANCH   2   3
HETATM    3  C   UNK N   1      26.028  24.916  -6.792  0.00  0.00     0.103 A 
HETATM    4  C   UNK N   1      25.566  23.775  -7.480  0.00  0.00     0.102 A 
HETATM    5  C   UNK N   1      25.298  23.867  -8.863  0.00  0.00     0.039 A 
HETATM    6  C   UNK N   1      25.469  25.071  -9.545  0.00  0.00     0.003 A 
HETATM    7  C   UNK N   1      25.895  26.202  -8.856  0.00  0.00     0.003 A 
HETATM    8  C   UNK N   1      26.164  26.123  -7.488  0.00  0.00     0.040 A 
BRANCH   4   9
HETATM    9  O   UNK N   1      25.372  22.609  -6.814  0.00  0.00    -0.349 OA
BRANCH   9  10
HETATM   10  C   UNK N   1      24.657  21.539  -7.323  0.00  0.00     0.171 C 
HETATM   11  C   UNK N   1      25.585  20.532  -7.987  0.00  0.00     0.034 C 
ENDBRANCH   9  10
ENDBRANCH   4   9
ENDBRANCH   2   3
ENDBRANCH   1   2
BRANCH   1  12
HETATM   12  C   UNK N   1      27.362  26.284  -3.738  0.00  0.00     0.172 C 
HETATM   13  O   UNK N   1      28.302  27.322  -3.998  0.00  0.00    -0.380 OA
HETATM   14  C   UNK N   1      27.782  28.230  -4.944  0.00  0.00     0.187 C 
HETATM   15  C   UNK N   1      26.612  29.009  -4.331  0.00  0.00     0.140 C 
HETATM   16  N   UNK N   1      25.931  28.231  -3.286  0.00  0.00    -0.417 N 
HETATM   17  C   UNK N   1      25.914  26.821  -3.671  0.00  0.00     0.148 C 
HETATM   18  H   UNK N   1      25.534  28.614  -2.429  0.00  0.00     0.153 HD
ENDBRANCH   1  12
BRANCH   1  19
HETATM   19  C   UNK N   1      28.404  24.005  -4.440  0.00  0.00    -0.026 A 
HETATM   20  C   UNK N   1      28.813  23.723  -3.133  0.00  0.00     0.010 A 
HETATM   21  C   UNK N   1      29.684  22.664  -2.866  0.00  0.00     0.001 A 
HETATM   22  C   UNK N   1      30.172  21.881  -3.913  0.00  0.00     0.000 A 
HETATM   23  C   UNK N   1      29.782  22.157  -5.225  0.00  0.00     0.001 A 
HETATM   24  C   UNK N   1      28.900  23.209  -5.485  0.00  0.00     0.010 A 
ENDBRANCH   1  19
TORSDOF 6
ENDMDL
MODEL 9
REMARK VINA RESULT:      -5.8      1.725      2.965
REMARK  6 active torsions:
REMARK  status: ('A' for Active; 'I' for Inactive)
REMARK    1  A    between atoms: C_6  and  O_2 
REMARK    2  A    between atoms: O_2  and  C_13 
REMARK    3  A    between atoms: O_3  and  C_16 
REMARK    4  A    between atoms: O_3  and  C_22 
REMARK    5  A    between atoms: C_5  and  C_6 
REMARK    6  A    between atoms: C_6  and  C_10 
ROOT
HETATM    1  C   UNK N   1      29.301  16.886   5.582  0.00  0.00     0.192 C 
ENDROOT
BRANCH   1   2
HETATM    2  O   UNK N   1      30.188  16.426   6.561  0.00  0.00    -0.336 OA
BRANCH   2   3
HETATM    3  C   UNK N   1      31.436  16.901   6.844  0.00  0.00     0.103 A 
HETATM    4  C   UNK N   1      32.485  16.772   5.909  0.00  0.00     0.102 A 
HETATM    5  C   UNK N   1      33.754  17.307   6.221  0.00  0.00     0.039 A 
HETATM    6  C   UNK N   1      33.972  17.971   7.427  0.00  0.00     0.003 A 
HETATM    7  C   UNK N   1      32.927  18.123   8.332  0.00  0.00     0.003 A 
HETATM    8  C   UNK N   1      31.668  17.598   8.036  0.00  0.00     0.040 A 
BRANCH   4   9
HETATM    9  O   UNK N   1      32.268  16.151   4.723  0.00  0.00    -0.349 OA
BRANCH   9  10
HETATM   10  C   UNK N   1      32.770  16.599   3.515  0.00  0.00     0.171 C 
HETATM   11  C   UNK N   1      33.594  15.517   2.832  0.00  0.00     0.034 C 
ENDBRANCH   9  10
ENDBRANCH   4   9
ENDBRANCH   2   3
ENDBRANCH   1   2
BRANCH   1  12
HETATM   12  C   UNK N   1      28.475  15.778   4.897  0.00  0.00     0.172 C 
HETATM   13  O   UNK N   1      28.232  16.074   3.524  0.00  0.00    -0.380 OA
HETATM   14  C   UNK N   1      29.326  15.666   2.733  0.00  0.00     0.187 C 
HETATM   15  C   UNK N   1      29.413  14.134   2.715  0.00  0.00     0.140 C 
HETATM   16  N   UNK N   1      28.854  13.546   3.940  0.00  0.00    -0.417 N 
HETATM   17  C   UNK N   1      29.170  14.409   5.077  0.00  0.00     0.148 C 
HETATM   18  H   UNK N   1      28.328  12.674   3.989  0.00  0.00     0.153 HD
ENDBRANCH   1  12
BRANCH   1  19
HETATM   19  C   UNK N   1      28.596  18.220   5.788  0.00  0.00    -0.026 A 
HETATM   20  C   UNK N   1      28.340  19.112   4.741  0.00  0.00     0.010 A 
HETATM   21  C   UNK N   1      27.693  20.328   4.976  0.00  0.00     0.001 A 
HETATM   22  C   UNK N   1      27.309  20.676   6.272  0.00  0.00     0.000 A 
HETATM   23  C   UNK N   1      27.568  19.801   7.330  0.00  0.00     0.001 A 
HETATM   24  C   UNK N   1      28.203  18.580   7.087  0.00  0.00     0.010 A 
ENDBRANCH   1  19
TORSDOF 6
ENDMDL
