MODEL 1
REMARK VINA RESULT:      -6.4      0.000      0.000
REMARK  5 active torsions:
REMARK  status: ('A' for Active; 'I' for Inactive)
REMARK    1  A    between atoms: C_14  and  O_3 
REMARK    2  A    between atoms: O_4  and  C_17 
REMARK    3  A    between atoms: C_13  and  N_5 
REMARK    4  A    between atoms: N_12  and  C_21 
REMARK    5  A    between atoms: C_16  and  C_17 
ROOT
HETATM    1 Cl   UNK N   1      26.212  20.758   2.788  0.00  0.00    -0.045 Cl
HETATM    2  N   UNK N   1      22.322  18.034   4.708  0.00  0.00    -0.300 N 
HETATM    3  N   UNK N   1      23.601  16.614   5.897  0.00  0.00    -0.346 N 
ATOM      4  HN  UNK N   1      23.894  15.854   6.511  1.00  0.00     0.167 HD
HETATM    5  N   UNK N   1      24.138  19.333   3.770  0.00  0.00    -0.316 N 
ATOM      6  HN  UNK N   1      23.534  19.958   3.235  1.00  0.00     0.170 HD
HETATM    7  N   UNK N   1      26.300  18.642   4.481  0.00  0.00    -0.317 N 
ATOM      8  HN  UNK N   1      27.311  18.769   4.463  1.00  0.00     0.170 HD
HETATM    9  C   UNK N   1      23.615  18.332   4.520  0.00  0.00     0.143 A 
HETATM   10  C   UNK N   1      22.329  16.971   5.556  0.00  0.00     0.188 A 
HETATM   11  C   UNK N   1      24.382  17.492   5.238  0.00  0.00     0.122 A 
HETATM   12  C   UNK N   1      25.761  17.637   5.238  0.00  0.00     0.132 A 
HETATM   13  C   UNK N   1      25.497  19.481   3.748  0.00  0.00     0.182 A 
ENDROOT
BRANCH   2  14
HETATM   14  C   UNK N   1      21.141  18.731   4.190  0.00  0.00     0.233 C 
HETATM   15  O   UNK N   1      21.510  19.765   3.314  0.00  0.00    -0.356 OA
HETATM   16  C   UNK N   1      20.366  19.989   2.544  0.00  0.00     0.176 C 
HETATM   17  C   UNK N   1      19.713  18.647   2.307  0.00  0.00     0.153 C 
HETATM   18  C   UNK N   1      20.208  17.798   3.446  0.00  0.00     0.088 C 
BRANCH  16  19
HETATM   19  C   UNK N   1      20.758  20.632   1.223  0.00  0.00     0.198 C 
BRANCH  19  20
HETATM   20  O   UNK N   1      20.543  19.745   0.167  0.00  0.00    -0.398 OA
HETATM   21  H   UNK N   1      20.030  18.933   0.300  0.00  0.00     0.209 HD
ENDBRANCH  19  20
ENDBRANCH  16  19
BRANCH  17  22
HETATM   22  O   UNK N   1      18.326  18.787   2.361  0.00  0.00    -0.393 OA
HETATM   23  H   UNK N   1      17.782  18.302   3.001  0.00  0.00     0.210 HD
ENDBRANCH  17  22
ENDBRANCH   2  14
BRANCH  12  24
HETATM   24  N   UNK N   1      26.589  16.795   6.008  0.00  0.00    -0.383 N 
HETATM   25  H   UNK N   1      26.189  16.104   6.584  0.00  0.00     0.157 HD
HETATM   26  H   UNK N   1      27.567  16.898   5.969  0.00  0.00     0.157 HD
ENDBRANCH  12  24
TORSDOF 5
ENDMDL
MODEL 2
REMARK VINA RESULT:      -6.3     17.630     19.530
REMARK  5 active torsions:
REMARK  status: ('A' for Active; 'I' for Inactive)
REMARK    1  A    between atoms: C_14  and  O_3 
REMARK    2  A    between atoms: O_4  and  C_17 
REMARK    3  A    between atoms: C_13  and  N_5 
REMARK    4  A    between atoms: N_12  and  C_21 
REMARK    5  A    between atoms: C_16  and  C_17 
ROOT
HETATM    1 Cl   UNK N   1      33.810  10.289  12.465  0.00  0.00    -0.045 Cl
HETATM    2  N   UNK N   1      35.788  13.403  16.019  0.00  0.00    -0.300 N 
HETATM    3  N   UNK N   1      37.086  14.574  14.601  0.00  0.00    -0.346 N 
ATOM      4  HN  UNK N   1      37.750  15.254  14.230  1.00  0.00     0.167 HD
HETATM    5  N   UNK N   1      34.846  11.904  14.367  0.00  0.00    -0.316 N 
ATOM      6  HN  UNK N   1      34.272  11.385  15.033  1.00  0.00     0.170 HD
HETATM    7  N   UNK N   1      35.594  12.307  12.146  0.00  0.00    -0.317 N 
ATOM      8  HN  UNK N   1      35.564  12.071  11.154  1.00  0.00     0.170 HD
HETATM    9  C   UNK N   1      35.646  12.918  14.778  0.00  0.00     0.143 A 
HETATM   10  C   UNK N   1      36.681  14.422  15.896  0.00  0.00     0.188 A 
HETATM   11  C   UNK N   1      36.413  13.623  13.927  0.00  0.00     0.122 A 
HETATM   12  C   UNK N   1      36.396  13.330  12.571  0.00  0.00     0.132 A 
HETATM   13  C   UNK N   1      34.828  11.594  13.036  0.00  0.00     0.182 A 
ENDROOT
BRANCH   2  14
HETATM   14  C   UNK N   1      35.088  12.998  17.242  0.00  0.00     0.233 C 
HETATM   15  O   UNK N   1      35.490  11.716  17.652  0.00  0.00    -0.356 OA
HETATM   16  C   UNK N   1      35.166  11.672  19.010  0.00  0.00     0.176 C 
HETATM   17  C   UNK N   1      35.429  13.045  19.582  0.00  0.00     0.153 C 
HETATM   18  C   UNK N   1      35.340  13.957  18.388  0.00  0.00     0.088 C 
BRANCH  16  19
HETATM   19  C   UNK N   1      36.028  10.630  19.706  0.00  0.00     0.198 C 
BRANCH  19  20
HETATM   20  O   UNK N   1      36.469  11.109  20.940  0.00  0.00    -0.398 OA
HETATM   21  H   UNK N   1      36.304  10.608  21.754  0.00  0.00     0.209 HD
ENDBRANCH  19  20
ENDBRANCH  16  19
BRANCH  17  22
HETATM   22  O   UNK N   1      34.443  13.358  20.518  0.00  0.00    -0.393 OA
HETATM   23  H   UNK N   1      34.622  13.918  21.290  0.00  0.00     0.210 HD
ENDBRANCH  17  22
ENDBRANCH   2  14
BRANCH  12  24
HETATM   24  N   UNK N   1      37.161  14.074  11.649  0.00  0.00    -0.383 N 
HETATM   25  H   UNK N   1      37.179  13.812  10.700  0.00  0.00     0.157 HD
HETATM   26  H   UNK N   1      37.677  14.855  11.954  0.00  0.00     0.157 HD
ENDBRANCH  12  24
TORSDOF 5
ENDMDL
MODEL 3
REMARK VINA RESULT:      -6.0      6.504      9.445
REMARK  5 active torsions:
REMARK  status: ('A' for Active; 'I' for Inactive)
REMARK    1  A    between atoms: C_14  and  O_3 
REMARK    2  A    between atoms: O_4  and  C_17 
REMARK    3  A    between atoms: C_13  and  N_5 
REMARK    4  A    between atoms: N_12  and  C_21 
REMARK    5  A    between atoms: C_16  and  C_17 
ROOT
HETATM    1 Cl   UNK N   1      27.993  15.829   2.707  0.00  0.00    -0.045 Cl
HETATM    2  N   UNK N   1      29.171  17.950   7.218  0.00  0.00    -0.300 N 
HETATM    3  N   UNK N   1      27.366  19.291   7.319  0.00  0.00    -0.346 N 
ATOM      4  HN  UNK N   1      26.687  19.981   7.639  1.00  0.00     0.167 HD
HETATM    5  N   UNK N   1      28.652  16.939   5.079  0.00  0.00    -0.316 N 
ATOM      6  HN  UNK N   1      29.483  16.346   5.056  1.00  0.00     0.170 HD
HETATM    7  N   UNK N   1      26.616  17.695   4.112  0.00  0.00    -0.317 N 
ATOM      8  HN  UNK N   1      25.936  17.651   3.352  1.00  0.00     0.170 HD
HETATM    9  C   UNK N   1      28.427  17.783   6.116  0.00  0.00     0.143 A 
HETATM   10  C   UNK N   1      28.506  18.884   7.949  0.00  0.00     0.188 A 
HETATM   11  C   UNK N   1      27.342  18.575   6.178  0.00  0.00     0.122 A 
HETATM   12  C   UNK N   1      26.397  18.542   5.164  0.00  0.00     0.132 A 
HETATM   13  C   UNK N   1      27.737  16.903   4.064  0.00  0.00     0.182 A 
ENDROOT
BRANCH   2  14
HETATM   14  C   UNK N   1      30.390  17.238   7.610  0.00  0.00     0.233 C 
HETATM   15  O   UNK N   1      31.251  17.070   6.514  0.00  0.00    -0.356 OA
HETATM   16  C   UNK N   1      32.507  16.862   7.090  0.00  0.00     0.176 C 
HETATM   17  C   UNK N   1      32.591  17.742   8.317  0.00  0.00     0.153 C 
HETATM   18  C   UNK N   1      31.153  17.969   8.697  0.00  0.00     0.088 C 
BRANCH  16  19
HETATM   19  C   UNK N   1      33.594  17.234   6.093  0.00  0.00     0.198 C 
BRANCH  19  20
HETATM   20  O   UNK N   1      34.530  18.082   6.686  0.00  0.00    -0.398 OA
HETATM   21  H   UNK N   1      35.299  17.721   7.152  0.00  0.00     0.209 HD
ENDBRANCH  19  20
ENDBRANCH  16  19
BRANCH  17  22
HETATM   22  O   UNK N   1      33.270  17.065   9.330  0.00  0.00    -0.393 OA
HETATM   23  H   UNK N   1      33.549  17.506  10.148  0.00  0.00     0.210 HD
ENDBRANCH  17  22
ENDBRANCH   2  14
BRANCH  12  24
HETATM   24  N   UNK N   1      25.232  19.333   5.218  0.00  0.00    -0.383 N 
HETATM   25  H   UNK N   1      24.710  19.498   4.399  0.00  0.00     0.157 HD
HETATM   26  H   UNK N   1      24.940  19.722   6.074  0.00  0.00     0.157 HD
ENDBRANCH  12  24
TORSDOF 5
ENDMDL
MODEL 4
REMARK VINA RESULT:      -5.9     13.099     15.018
REMARK  5 active torsions:
REMARK  status: ('A' for Active; 'I' for Inactive)
REMARK    1  A    between atoms: C_14  and  O_3 
REMARK    2  A    between atoms: O_4  and  C_17 
REMARK    3  A    between atoms: C_13  and  N_5 
REMARK    4  A    between atoms: N_12  and  C_21 
REMARK    5  A    between atoms: C_16  and  C_17 
ROOT
HETATM    1 Cl   UNK N   1      33.894  10.252  12.816  0.00  0.00    -0.045 Cl
HETATM    2  N   UNK N   1      35.042  14.907  11.012  0.00  0.00    -0.300 N 
HETATM    3  N   UNK N   1      36.457  15.454  12.675  0.00  0.00    -0.346 N 
ATOM      4  HN  UNK N   1      37.117  15.970  13.257  1.00  0.00     0.167 HD
HETATM    5  N   UNK N   1      34.465  12.707  11.845  0.00  0.00    -0.316 N 
ATOM      6  HN  UNK N   1      33.823  12.488  11.082  1.00  0.00     0.170 HD
HETATM    7  N   UNK N   1      35.578  12.104  13.858  0.00  0.00    -0.317 N 
ATOM      8  HN  UNK N   1      35.753  11.418  14.592  1.00  0.00     0.170 HD
HETATM    9  C   UNK N   1      35.104  13.902  11.897  0.00  0.00     0.143 A 
HETATM   10  C   UNK N   1      35.879  15.858  11.507  0.00  0.00     0.188 A 
HETATM   11  C   UNK N   1      35.957  14.222  12.886  0.00  0.00     0.122 A 
HETATM   12  C   UNK N   1      36.220  13.312  13.899  0.00  0.00     0.132 A 
HETATM   13  C   UNK N   1      34.702  11.804  12.843  0.00  0.00     0.182 A 
ENDROOT
BRANCH   2  14
HETATM   14  C   UNK N   1      34.307  14.963   9.746  0.00  0.00     0.233 C 
HETATM   15  O   UNK N   1      33.823  16.258   9.499  0.00  0.00    -0.356 OA
HETATM   16  C   UNK N   1      33.613  16.290   8.118  0.00  0.00     0.176 C 
HETATM   17  C   UNK N   1      34.718  15.483   7.475  0.00  0.00     0.153 C 
HETATM   18  C   UNK N   1      35.168  14.552   8.568  0.00  0.00     0.088 C 
BRANCH  16  19
HETATM   19  C   UNK N   1      33.652  17.730   7.630  0.00  0.00     0.198 C 
BRANCH  19  20
HETATM   20  O   UNK N   1      34.411  17.828   6.463  0.00  0.00    -0.398 OA
HETATM   21  H   UNK N   1      34.459  17.087   5.840  0.00  0.00     0.209 HD
ENDBRANCH  19  20
ENDBRANCH  16  19
BRANCH  17  22
HETATM   22  O   UNK N   1      34.203  14.766   6.395  0.00  0.00    -0.393 OA
HETATM   23  H   UNK N   1      34.169  13.796   6.388  0.00  0.00     0.210 HD
ENDBRANCH  17  22
ENDBRANCH   2  14
BRANCH  12  24
HETATM   24  N   UNK N   1      37.136  13.603  14.930  0.00  0.00    -0.383 N 
HETATM   25  H   UNK N   1      36.845  14.119  15.716  0.00  0.00     0.157 HD
HETATM   26  H   UNK N   1      38.067  13.291  14.864  0.00  0.00     0.157 HD
ENDBRANCH  12  24
TORSDOF 5
ENDMDL
MODEL 5
REMARK VINA RESULT:      -5.8     14.056     15.942
REMARK  5 active torsions:
REMARK  status: ('A' for Active; 'I' for Inactive)
REMARK    1  A    between atoms: C_14  and  O_3 
REMARK    2  A    between atoms: O_4  and  C_17 
REMARK    3  A    between atoms: C_13  and  N_5 
REMARK    4  A    between atoms: N_12  and  C_21 
REMARK    5  A    between atoms: C_16  and  C_17 
ROOT
HETATM    1 Cl   UNK N   1      37.598  15.716  15.957  0.00  0.00    -0.045 Cl
HETATM    2  N   UNK N   1      35.567  13.945  11.601  0.00  0.00    -0.300 N 
HETATM    3  N   UNK N   1      34.709  12.066  12.496  0.00  0.00    -0.346 N 
ATOM      4  HN  UNK N   1      34.227  11.173  12.599  1.00  0.00     0.167 HD
HETATM    5  N   UNK N   1      36.554  14.804  13.640  0.00  0.00    -0.316 N 
ATOM      6  HN  UNK N   1      36.937  15.645  13.206  1.00  0.00     0.170 HD
HETATM    7  N   UNK N   1      36.185  13.438  15.551  0.00  0.00    -0.317 N 
ATOM      8  HN  UNK N   1      36.307  13.277  16.551  1.00  0.00     0.170 HD
HETATM    9  C   UNK N   1      35.868  13.892  12.906  0.00  0.00     0.143 A 
HETATM   10  C   UNK N   1      34.855  12.811  11.362  0.00  0.00     0.188 A 
HETATM   11  C   UNK N   1      35.348  12.776  13.446  0.00  0.00     0.122 A 
HETATM   12  C   UNK N   1      35.493  12.526  14.802  0.00  0.00     0.132 A 
HETATM   13  C   UNK N   1      36.717  14.566  14.976  0.00  0.00     0.182 A 
ENDROOT
BRANCH   2  14
HETATM   14  C   UNK N   1      35.858  15.014  10.641  0.00  0.00     0.233 C 
HETATM   15  O   UNK N   1      35.488  14.637   9.340  0.00  0.00    -0.356 OA
HETATM   16  C   UNK N   1      35.342  15.849   8.659  0.00  0.00     0.176 C 
HETATM   17  C   UNK N   1      34.750  16.844   9.631  0.00  0.00     0.153 C 
HETATM   18  C   UNK N   1      35.131  16.299  10.981  0.00  0.00     0.088 C 
BRANCH  16  19
HETATM   19  C   UNK N   1      34.418  15.655   7.466  0.00  0.00     0.198 C 
BRANCH  19  20
HETATM   20  O   UNK N   1      34.936  16.295   6.340  0.00  0.00    -0.398 OA
HETATM   21  H   UNK N   1      35.295  17.194   6.402  0.00  0.00     0.209 HD
ENDBRANCH  19  20
ENDBRANCH  16  19
BRANCH  17  22
HETATM   22  O   UNK N   1      35.324  18.097   9.423  0.00  0.00    -0.393 OA
HETATM   23  H   UNK N   1      35.988  18.254   8.732  0.00  0.00     0.210 HD
ENDBRANCH  17  22
ENDBRANCH   2  14
BRANCH  12  24
HETATM   24  N   UNK N   1      34.929  11.383  15.404  0.00  0.00    -0.383 N 
HETATM   25  H   UNK N   1      35.140  11.164  16.340  0.00  0.00     0.157 HD
HETATM   26  H   UNK N   1      34.323  10.803  14.888  0.00  0.00     0.157 HD
ENDBRANCH  12  24
TORSDOF 5
ENDMDL
MODEL 6
REMARK VINA RESULT:      -5.8      3.444      5.451
REMARK  5 active torsions:
REMARK  status: ('A' for Active; 'I' for Inactive)
REMARK    1  A    between atoms: C_14  and  O_3 
REMARK    2  A    between atoms: O_4  and  C_17 
REMARK    3  A    between atoms: C_13  and  N_5 
REMARK    4  A    between atoms: N_12  and  C_21 
REMARK    5  A    between atoms: C_16  and  C_17 
ROOT
HETATM    1 Cl   UNK N   1      24.499  20.537   3.549  0.00  0.00    -0.045 Cl
HETATM    2  N   UNK N   1      20.402  17.480   3.866  0.00  0.00    -0.300 N 
HETATM    3  N   UNK N   1      19.221  18.511   2.251  0.00  0.00    -0.346 N 
ATOM      4  HN  UNK N   1      18.475  18.752   1.598  1.00  0.00     0.167 HD
HETATM    5  N   UNK N   1      22.348  18.916   3.754  0.00  0.00    -0.316 N 
ATOM      6  HN  UNK N   1      22.859  18.434   4.494  1.00  0.00     0.170 HD
HETATM    7  N   UNK N   1      22.209  20.619   2.099  0.00  0.00    -0.317 N 
ATOM      8  HN  UNK N   1      22.635  21.410   1.617  1.00  0.00     0.170 HD
HETATM    9  C   UNK N   1      21.106  18.515   3.388  0.00  0.00     0.143 A 
HETATM   10  C   UNK N   1      19.240  17.492   3.159  0.00  0.00     0.188 A 
HETATM   11  C   UNK N   1      20.407  19.126   2.415  0.00  0.00     0.122 A 
HETATM   12  C   UNK N   1      20.957  20.204   1.736  0.00  0.00     0.132 A 
HETATM   13  C   UNK N   1      22.899  19.985   3.104  0.00  0.00     0.182 A 
ENDROOT
BRANCH   2  14
HETATM   14  C   UNK N   1      20.803  16.491   4.871  0.00  0.00     0.233 C 
HETATM   15  O   UNK N   1      20.925  17.082   6.139  0.00  0.00    -0.356 OA
HETATM   16  C   UNK N   1      20.806  16.013   7.031  0.00  0.00     0.176 C 
HETATM   17  C   UNK N   1      19.787  15.057   6.455  0.00  0.00     0.153 C 
HETATM   18  C   UNK N   1      19.809  15.353   4.980  0.00  0.00     0.088 C 
BRANCH  16  19
HETATM   19  C   UNK N   1      20.347  16.528   8.387  0.00  0.00     0.198 C 
BRANCH  19  20
HETATM   20  O   UNK N   1      19.410  15.659   8.946  0.00  0.00    -0.398 OA
HETATM   21  H   UNK N   1      19.071  15.806   9.842  0.00  0.00     0.209 HD
ENDBRANCH  19  20
ENDBRANCH  16  19
BRANCH  17  22
HETATM   22  O   UNK N   1      20.188  13.744   6.702  0.00  0.00    -0.393 OA
HETATM   23  H   UNK N   1      21.117  13.469   6.653  0.00  0.00     0.210 HD
ENDBRANCH  17  22
ENDBRANCH   2  14
BRANCH  12  24
HETATM   24  N   UNK N   1      20.264  20.843   0.688  0.00  0.00    -0.383 N 
HETATM   25  H   UNK N   1      20.042  21.800   0.756  0.00  0.00     0.157 HD
HETATM   26  H   UNK N   1      20.002  20.333  -0.112  0.00  0.00     0.157 HD
ENDBRANCH  12  24
TORSDOF 5
ENDMDL
MODEL 7
REMARK VINA RESULT:      -5.7     15.777     17.220
REMARK  5 active torsions:
REMARK  status: ('A' for Active; 'I' for Inactive)
REMARK    1  A    between atoms: C_14  and  O_3 
REMARK    2  A    between atoms: O_4  and  C_17 
REMARK    3  A    between atoms: C_13  and  N_5 
REMARK    4  A    between atoms: N_12  and  C_21 
REMARK    5  A    between atoms: C_16  and  C_17 
ROOT
HETATM    1 Cl   UNK N   1      37.466  15.696  15.975  0.00  0.00    -0.045 Cl
HETATM    2  N   UNK N   1      34.799  12.235  13.302  0.00  0.00    -0.300 N 
HETATM    3  N   UNK N   1      34.287  10.929  15.063  0.00  0.00    -0.346 N 
ATOM      4  HN  UNK N   1      33.910  10.172  15.632  1.00  0.00     0.167 HD
HETATM    5  N   UNK N   1      36.080  13.881  14.532  0.00  0.00    -0.316 N 
ATOM      6  HN  UNK N   1      36.302  14.451  13.715  1.00  0.00     0.170 HD
HETATM    7  N   UNK N   1      36.197  13.474  16.873  0.00  0.00    -0.317 N 
ATOM      8  HN  UNK N   1      36.519  13.759  17.797  1.00  0.00     0.170 HD
HETATM    9  C   UNK N   1      35.346  12.747  14.412  0.00  0.00     0.143 A 
HETATM   10  C   UNK N   1      34.152  11.113  13.717  0.00  0.00     0.188 A 
HETATM   11  C   UNK N   1      35.033  11.975  15.468  0.00  0.00     0.122 A 
HETATM   12  C   UNK N   1      35.454  12.333  16.741  0.00  0.00     0.132 A 
HETATM   13  C   UNK N   1      36.514  14.241  15.777  0.00  0.00     0.182 A 
ENDROOT
BRANCH   2  14
HETATM   14  C   UNK N   1      34.812  12.784  11.943  0.00  0.00     0.233 C 
HETATM   15  O   UNK N   1      34.595  14.171  11.957  0.00  0.00    -0.356 OA
HETATM   16  C   UNK N   1      35.116  14.614  10.739  0.00  0.00     0.176 C 
HETATM   17  C   UNK N   1      36.346  13.785  10.447  0.00  0.00     0.153 C 
HETATM   18  C   UNK N   1      36.126  12.523  11.235  0.00  0.00     0.088 C 
BRANCH  16  19
HETATM   19  C   UNK N   1      35.479  16.087  10.844  0.00  0.00     0.198 C 
BRANCH  19  20
HETATM   20  O   UNK N   1      36.864  16.251  10.809  0.00  0.00    -0.398 OA
HETATM   21  H   UNK N   1      37.454  15.544  11.113  0.00  0.00     0.209 HD
ENDBRANCH  19  20
ENDBRANCH  16  19
BRANCH  17  22
HETATM   22  O   UNK N   1      36.411  13.511   9.081  0.00  0.00    -0.393 OA
HETATM   23  H   UNK N   1      36.861  14.102   8.456  0.00  0.00     0.210 HD
ENDBRANCH  17  22
ENDBRANCH   2  14
BRANCH  12  24
HETATM   24  N   UNK N   1      35.112  11.564  17.872  0.00  0.00    -0.383 N 
HETATM   25  H   UNK N   1      34.215  11.646  18.270  0.00  0.00     0.157 HD
HETATM   26  H   UNK N   1      35.770  10.945  18.263  0.00  0.00     0.157 HD
ENDBRANCH  12  24
TORSDOF 5
ENDMDL
MODEL 8
REMARK VINA RESULT:      -5.7     17.383     18.903
REMARK  5 active torsions:
REMARK  status: ('A' for Active; 'I' for Inactive)
REMARK    1  A    between atoms: C_14  and  O_3 
REMARK    2  A    between atoms: O_4  and  C_17 
REMARK    3  A    between atoms: C_13  and  N_5 
REMARK    4  A    between atoms: N_12  and  C_21 
REMARK    5  A    between atoms: C_16  and  C_17 
ROOT
HETATM    1 Cl   UNK N   1      35.980  15.977  18.038  0.00  0.00    -0.045 Cl
HETATM    2  N   UNK N   1      35.173  11.410  15.863  0.00  0.00    -0.300 N 
HETATM    3  N   UNK N   1      34.908  10.281  17.792  0.00  0.00    -0.346 N 
ATOM      4  HN  UNK N   1      34.747   9.528  18.461  1.00  0.00     0.167 HD
HETATM    5  N   UNK N   1      35.575  13.581  16.859  0.00  0.00    -0.316 N 
ATOM      6  HN  UNK N   1      35.697  14.067  15.969  1.00  0.00     0.170 HD
HETATM    7  N   UNK N   1      35.478  13.596  19.235  0.00  0.00    -0.317 N 
ATOM      8  HN  UNK N   1      35.533  14.114  20.112  1.00  0.00     0.170 HD
HETATM    9  C   UNK N   1      35.326  12.248  16.897  0.00  0.00     0.143 A 
HETATM   10  C   UNK N   1      34.919  10.200  16.429  0.00  0.00     0.188 A 
HETATM   11  C   UNK N   1      35.157  11.579  18.051  0.00  0.00     0.122 A 
HETATM   12  C   UNK N   1      35.224  12.252  19.262  0.00  0.00     0.132 A 
HETATM   13  C   UNK N   1      35.657  14.257  18.044  0.00  0.00     0.182 A 
ENDROOT
BRANCH   2  14
HETATM   14  C   UNK N   1      35.192  11.718  14.430  0.00  0.00     0.233 C 
HETATM   15  O   UNK N   1      34.922  13.077  14.202  0.00  0.00    -0.356 OA
HETATM   16  C   UNK N   1      35.450  13.325  12.932  0.00  0.00     0.176 C 
HETATM   17  C   UNK N   1      36.716  12.509  12.803  0.00  0.00     0.153 C 
HETATM   18  C   UNK N   1      36.529  11.393  13.794  0.00  0.00     0.088 C 
BRANCH  16  19
HETATM   19  C   UNK N   1      35.755  14.808  12.787  0.00  0.00     0.198 C 
BRANCH  19  20
HETATM   20  O   UNK N   1      36.731  15.012  11.811  0.00  0.00    -0.398 OA
HETATM   21  H   UNK N   1      37.177  15.868  11.728  0.00  0.00     0.209 HD
ENDBRANCH  19  20
ENDBRANCH  16  19
BRANCH  17  22
HETATM   22  O   UNK N   1      36.818  12.008  11.505  0.00  0.00    -0.393 OA
HETATM   23  H   UNK N   1      37.625  12.105  10.975  0.00  0.00     0.210 HD
ENDBRANCH  17  22
ENDBRANCH   2  14
BRANCH  12  24
HETATM   24  N   UNK N   1      35.016  11.585  20.486  0.00  0.00    -0.383 N 
HETATM   25  H   UNK N   1      34.359  11.933  21.131  0.00  0.00     0.157 HD
HETATM   26  H   UNK N   1      35.527  10.770  20.696  0.00  0.00     0.157 HD
ENDBRANCH  12  24
TORSDOF 5
ENDMDL
MODEL 9
REMARK VINA RESULT:      -5.6     11.523     12.845
REMARK  5 active torsions:
REMARK  status: ('A' for Active; 'I' for Inactive)
REMARK    1  A    between atoms: C_14  and  O_3 
REMARK    2  A    between atoms: O_4  and  C_17 
REMARK    3  A    between atoms: C_13  and  N_5 
REMARK    4  A    between atoms: N_12  and  C_21 
REMARK    5  A    between atoms: C_16  and  C_17 
ROOT
HETATM    1 Cl   UNK N   1      29.363  20.855  -7.809  0.00  0.00    -0.045 Cl
HETATM    2  N   UNK N   1      27.167  24.331  -4.753  0.00  0.00    -0.300 N 
HETATM    3  N   UNK N   1      25.135  24.232  -5.716  0.00  0.00    -0.346 N 
ATOM      4  HN  UNK N   1      24.153  24.405  -5.929  1.00  0.00     0.167 HD
HETATM    5  N   UNK N   1      28.241  22.704  -6.190  0.00  0.00    -0.316 N 
ATOM      6  HN  UNK N   1      29.154  22.774  -5.739  1.00  0.00     0.170 HD
HETATM    7  N   UNK N   1      26.803  21.749  -7.826  0.00  0.00    -0.317 N 
ATOM      8  HN  UNK N   1      26.664  21.098  -8.599  1.00  0.00     0.170 HD
HETATM    9  C   UNK N   1      27.196  23.459  -5.771  0.00  0.00     0.143 A 
HETATM   10  C   UNK N   1      25.891  24.802  -4.734  0.00  0.00     0.188 A 
HETATM   11  C   UNK N   1      25.980  23.390  -6.342  0.00  0.00     0.122 A 
HETATM   12  C   UNK N   1      25.754  22.514  -7.393  0.00  0.00     0.132 A 
HETATM   13  C   UNK N   1      28.039  21.845  -7.235  0.00  0.00     0.182 A 
ENDROOT
BRANCH   2  14
HETATM   14  C   UNK N   1      28.236  24.662  -3.807  0.00  0.00     0.233 C 
HETATM   15  O   UNK N   1      29.024  23.536  -3.520  0.00  0.00    -0.356 OA
HETATM   16  C   UNK N   1      30.229  24.067  -3.054  0.00  0.00     0.176 C 
HETATM   17  C   UNK N   1      30.508  25.320  -3.852  0.00  0.00     0.153 C 
HETATM   18  C   UNK N   1      29.149  25.750  -4.335  0.00  0.00     0.088 C 
BRANCH  16  19
HETATM   19  C   UNK N   1      31.344  23.052  -3.250  0.00  0.00     0.198 C 
BRANCH  19  20
HETATM   20  O   UNK N   1      31.496  22.268  -2.106  0.00  0.00    -0.398 OA
HETATM   21  H   UNK N   1      32.301  22.327  -1.569  0.00  0.00     0.209 HD
ENDBRANCH  19  20
ENDBRANCH  16  19
BRANCH  17  22
HETATM   22  O   UNK N   1      31.066  26.290  -3.019  0.00  0.00    -0.393 OA
HETATM   23  H   UNK N   1      30.559  27.054  -2.704  0.00  0.00     0.210 HD
ENDBRANCH  17  22
ENDBRANCH   2  14
BRANCH  12  24
HETATM   24  N   UNK N   1      24.483  22.392  -7.989  0.00  0.00    -0.383 N 
HETATM   25  H   UNK N   1      24.148  23.101  -8.585  0.00  0.00     0.157 HD
HETATM   26  H   UNK N   1      23.928  21.599  -7.808  0.00  0.00     0.157 HD
ENDBRANCH  12  24
TORSDOF 5
ENDMDL
