REMARK  10 active torsions:
REMARK  status: ('A' for Active; 'I' for Inactive)
REMARK    1  A    between atoms: O_1  and  C_14 
REMARK    2  A    between atoms: O_2  and  C_15 
REMARK    3  A    between atoms: O_2  and  C_18 
REMARK    4  A    between atoms: O_4  and  C_23 
REMARK    5  A    between atoms: N_5  and  C_12 
REMARK    6  A    between atoms: N_6  and  C_13 
REMARK       I    between atoms: N_7  and  C_16 
REMARK    7  A    between atoms: N_7  and  C_17 
REMARK    8  A    between atoms: C_12  and  C_14 
REMARK    9  A    between atoms: C_13  and  C_16 
REMARK   10  A    between atoms: C_14  and  C_15 
ROOT
HETATM    1  N   UNK N   1       6.092   0.709   0.418  0.00  0.00     0.094 N 
HETATM    2  N   UNK N   1       3.498   0.119  -0.763  0.00  0.00     0.100 N 
HETATM    3  C   UNK N   1       5.750  -0.659   0.023  0.00  0.00     0.302 C 
HETATM    4  C   UNK N   1       4.869   1.383   0.869  0.00  0.00     0.302 C 
HETATM    5  C   UNK N   1       4.696  -0.675  -1.098  0.00  0.00     0.303 C 
HETATM    6  C   UNK N   1       3.824   1.448  -0.248  0.00  0.00     0.303 C 
ENDROOT
BRANCH   1   7
HETATM    7  C   UNK N   1       6.762   1.372  -0.714  0.00  0.00     0.306 C 
BRANCH   7   8
HETATM    8  C   UNK N   1       6.928   2.890  -0.585  0.00  0.00     0.170 C 
BRANCH   8   9
HETATM    9  O   UNK N   1       5.759   3.559  -0.950  0.00  0.00    -0.392 OA
HETATM   10  H   UNK N   1       5.756   4.496  -1.204  0.00  0.00     0.210 HD
ENDBRANCH   8   9
BRANCH   8  11
HETATM   11  C   UNK N   1       7.381   3.325   0.799  0.00  0.00     0.209 C 
BRANCH  11  12
HETATM   12  O   UNK N   1       7.954   4.574   0.721  0.00  0.00    -0.346 OA
BRANCH  12  13
HETATM   13  C   UNK N   1       9.245   4.817   0.367  0.00  0.00     0.102 A 
HETATM   14  C   UNK N   1      10.196   3.785   0.124  0.00  0.00     0.101 A 
HETATM   15  C   UNK N   1      11.509   4.135  -0.239  0.00  0.00     0.039 A 
HETATM   16  C   UNK N   1      11.881   5.473  -0.360  0.00  0.00     0.003 A 
HETATM   17  C   UNK N   1      10.949   6.481  -0.120  0.00  0.00     0.003 A 
HETATM   18  C   UNK N   1       9.642   6.153   0.241  0.00  0.00     0.039 A 
BRANCH  14  19
HETATM   19  O   UNK N   1       9.844   2.480   0.244  0.00  0.00    -0.353 OA
HETATM   20  C   UNK N   1      10.706   1.430   0.017  0.00  0.00     0.210 C 
ENDBRANCH  14  19
ENDBRANCH  12  13
ENDBRANCH  11  12
ENDBRANCH   8  11
ENDBRANCH   7   8
ENDBRANCH   1   7
BRANCH   2  21
HETATM   21  C   UNK N   1       2.484  -0.506   0.102  0.00  0.00     0.375 C 
BRANCH  21  22
HETATM   22  C   UNK N   1       2.697  -1.958   0.388  0.00  0.00     0.250 C 
HETATM   23  O   UNK N   1       3.482  -2.284   1.267  0.00  0.00    -0.271 OA
HETATM   24  N   UNK N   1       1.944  -2.884  -0.258  0.00  0.00    -0.325 N 
HETATM   25  H   UNK N   1       1.254  -2.552  -0.877  0.00  0.00     0.169 HD
BRANCH  24  26
HETATM   26  C   UNK N   1       2.068  -4.298  -0.114  0.00  0.00     0.046 A 
HETATM   27  C   UNK N   1       3.328  -4.959  -0.087  0.00  0.00    -0.035 A 
HETATM   28  C   UNK N   1       3.380  -6.348   0.053  0.00  0.00     0.009 A 
HETATM   29  C   UNK N   1       4.620  -4.235  -0.265  0.00  0.00     0.050 C 
HETATM   30  C   UNK N   1       2.209  -7.095   0.165  0.00  0.00     0.001 A 
HETATM   31  C   UNK N   1       0.969  -6.459   0.114  0.00  0.00     0.009 A 
HETATM   32  C   UNK N   1       0.894  -5.072  -0.030  0.00  0.00    -0.035 A 
HETATM   33  C   UNK N   1      -0.451  -4.428  -0.080  0.00  0.00     0.050 C 
ENDBRANCH  24  26
ENDBRANCH  21  22
ENDBRANCH   2  21
TORSDOF 10
