MODEL 1
REMARK VINA RESULT:      -7.5      0.000      0.000
REMARK  10 active torsions:
REMARK  status: ('A' for Active; 'I' for Inactive)
REMARK    1  A    between atoms: O_1  and  C_14 
REMARK    2  A    between atoms: O_2  and  C_15 
REMARK    3  A    between atoms: O_2  and  C_18 
REMARK    4  A    between atoms: O_4  and  C_23 
REMARK    5  A    between atoms: N_5  and  C_12 
REMARK    6  A    between atoms: N_6  and  C_13 
REMARK       I    between atoms: N_7  and  C_16 
REMARK    7  A    between atoms: N_7  and  C_17 
REMARK    8  A    between atoms: C_12  and  C_14 
REMARK    9  A    between atoms: C_13  and  C_16 
REMARK   10  A    between atoms: C_14  and  C_15 
ROOT
HETATM    1  N   UNK N   1      36.874  13.798   9.920  0.00  0.00     0.094 N 
HETATM    2  N   UNK N   1      35.387  13.723  12.421  0.00  0.00     0.100 N 
HETATM    3  C   UNK N   1      37.228  12.835  10.966  0.00  0.00     0.302 C 
HETATM    4  C   UNK N   1      36.384  15.023  10.562  0.00  0.00     0.302 C 
HETATM    5  C   UNK N   1      36.022  12.512  11.865  0.00  0.00     0.303 C 
HETATM    6  C   UNK N   1      35.139  14.749  11.409  0.00  0.00     0.303 C 
ENDROOT
BRANCH   1   7
HETATM    7  C   UNK N   1      35.905  13.167   9.008  0.00  0.00     0.306 C 
BRANCH   7   8
HETATM    8  C   UNK N   1      35.973  13.631   7.549  0.00  0.00     0.170 C 
BRANCH   8   9
HETATM    9  O   UNK N   1      36.202  12.558   6.688  0.00  0.00    -0.392 OA
HETATM   10  H   UNK N   1      36.881  11.887   6.865  0.00  0.00     0.210 HD
ENDBRANCH   8   9
BRANCH   8  11
HETATM   11  C   UNK N   1      34.744  14.412   7.113  0.00  0.00     0.209 C 
BRANCH  11  12
HETATM   12  O   UNK N   1      35.108  15.351   6.176  0.00  0.00    -0.346 OA
BRANCH  12  13
HETATM   13  C   UNK N   1      34.264  15.911   5.267  0.00  0.00     0.102 A 
HETATM   14  C   UNK N   1      33.756  17.236   5.384  0.00  0.00     0.101 A 
HETATM   15  C   UNK N   1      32.889  17.728   4.392  0.00  0.00     0.039 A 
HETATM   16  C   UNK N   1      32.526  16.933   3.306  0.00  0.00     0.003 A 
HETATM   17  C   UNK N   1      33.023  15.636   3.194  0.00  0.00     0.003 A 
HETATM   18  C   UNK N   1      33.884  15.131   4.169  0.00  0.00     0.039 A 
BRANCH  14  19
HETATM   19  O   UNK N   1      34.100  18.016   6.440  0.00  0.00    -0.353 OA
HETATM   20  C   UNK N   1      33.435  18.009   7.646  0.00  0.00     0.210 C 
ENDBRANCH  14  19
ENDBRANCH  12  13
ENDBRANCH  11  12
ENDBRANCH   8  11
ENDBRANCH   7   8
ENDBRANCH   1   7
BRANCH   2  21
HETATM   21  C   UNK N   1      36.012  14.342  13.602  0.00  0.00     0.375 C 
BRANCH  21  22
HETATM   22  C   UNK N   1      36.177  13.439  14.782  0.00  0.00     0.250 C 
HETATM   23  O   UNK N   1      37.303  13.130  15.145  0.00  0.00    -0.271 OA
HETATM   24  N   UNK N   1      35.084  13.061  15.492  0.00  0.00    -0.325 N 
HETATM   25  H   UNK N   1      34.215  13.430  15.213  0.00  0.00     0.169 HD
BRANCH  24  26
HETATM   26  C   UNK N   1      35.089  12.175  16.611  0.00  0.00     0.046 A 
HETATM   27  C   UNK N   1      34.932  10.767  16.475  0.00  0.00    -0.035 A 
HETATM   28  C   UNK N   1      34.943   9.955  17.611  0.00  0.00     0.009 A 
HETATM   29  C   UNK N   1      34.691  10.108  15.158  0.00  0.00     0.050 C 
HETATM   30  C   UNK N   1      35.104  10.509  18.879  0.00  0.00     0.001 A 
HETATM   31  C   UNK N   1      35.233  11.890  19.025  0.00  0.00     0.009 A 
HETATM   32  C   UNK N   1      35.221  12.721  17.902  0.00  0.00    -0.035 A 
HETATM   33  C   UNK N   1      35.362  14.194  18.099  0.00  0.00     0.050 C 
ENDBRANCH  24  26
ENDBRANCH  21  22
ENDBRANCH   2  21
TORSDOF 10
ENDMDL
MODEL 2
REMARK VINA RESULT:      -7.4      1.005      1.756
REMARK  10 active torsions:
REMARK  status: ('A' for Active; 'I' for Inactive)
REMARK    1  A    between atoms: O_1  and  C_14 
REMARK    2  A    between atoms: O_2  and  C_15 
REMARK    3  A    between atoms: O_2  and  C_18 
REMARK    4  A    between atoms: O_4  and  C_23 
REMARK    5  A    between atoms: N_5  and  C_12 
REMARK    6  A    between atoms: N_6  and  C_13 
REMARK       I    between atoms: N_7  and  C_16 
REMARK    7  A    between atoms: N_7  and  C_17 
REMARK    8  A    between atoms: C_12  and  C_14 
REMARK    9  A    between atoms: C_13  and  C_16 
REMARK   10  A    between atoms: C_14  and  C_15 
ROOT
HETATM    1  N   UNK N   1      36.812  14.581   9.772  0.00  0.00     0.094 N 
HETATM    2  N   UNK N   1      35.250  13.803  12.101  0.00  0.00     0.100 N 
HETATM    3  C   UNK N   1      37.169  13.386  10.540  0.00  0.00     0.302 C 
HETATM    4  C   UNK N   1      36.255  15.577  10.694  0.00  0.00     0.302 C 
HETATM    5  C   UNK N   1      35.948  12.801  11.272  0.00  0.00     0.303 C 
HETATM    6  C   UNK N   1      34.995  15.053  11.387  0.00  0.00     0.303 C 
ENDROOT
BRANCH   1   7
HETATM    7  C   UNK N   1      35.897  14.187   8.687  0.00  0.00     0.306 C 
BRANCH   7   8
HETATM    8  C   UNK N   1      36.572  13.722   7.392  0.00  0.00     0.170 C 
BRANCH   8   9
HETATM    9  O   UNK N   1      36.264  12.390   7.112  0.00  0.00    -0.392 OA
HETATM   10  H   UNK N   1      35.660  11.870   7.667  0.00  0.00     0.210 HD
ENDBRANCH   8   9
BRANCH   8  11
HETATM   11  C   UNK N   1      36.246  14.606   6.199  0.00  0.00     0.209 C 
BRANCH  11  12
HETATM   12  O   UNK N   1      35.077  15.291   6.443  0.00  0.00    -0.346 OA
BRANCH  12  13
HETATM   13  C   UNK N   1      34.293  15.856   5.486  0.00  0.00     0.102 A 
HETATM   14  C   UNK N   1      33.842  17.206   5.542  0.00  0.00     0.101 A 
HETATM   15  C   UNK N   1      33.034  17.702   4.503  0.00  0.00     0.039 A 
HETATM   16  C   UNK N   1      32.675  16.888   3.430  0.00  0.00     0.003 A 
HETATM   17  C   UNK N   1      33.116  15.567   3.378  0.00  0.00     0.003 A 
HETATM   18  C   UNK N   1      33.918  15.057   4.399  0.00  0.00     0.039 A 
BRANCH  14  19
HETATM   19  O   UNK N   1      34.183  18.004   6.585  0.00  0.00    -0.353 OA
HETATM   20  C   UNK N   1      33.499  18.036   7.781  0.00  0.00     0.210 C 
ENDBRANCH  14  19
ENDBRANCH  12  13
ENDBRANCH  11  12
ENDBRANCH   8  11
ENDBRANCH   7   8
ENDBRANCH   1   7
BRANCH   2  21
HETATM   21  C   UNK N   1      35.813  14.103  13.428  0.00  0.00     0.375 C 
BRANCH  21  22
HETATM   22  C   UNK N   1      35.414  13.161  14.518  0.00  0.00     0.250 C 
HETATM   23  O   UNK N   1      34.303  12.650  14.489  0.00  0.00    -0.271 OA
HETATM   24  N   UNK N   1      36.322  12.810  15.464  0.00  0.00    -0.325 N 
HETATM   25  H   UNK N   1      37.232  13.173  15.372  0.00  0.00     0.169 HD
BRANCH  24  26
HETATM   26  C   UNK N   1      36.067  11.957  16.579  0.00  0.00     0.046 A 
HETATM   27  C   UNK N   1      35.455  12.422  17.777  0.00  0.00    -0.035 A 
HETATM   28  C   UNK N   1      35.237  11.535  18.834  0.00  0.00     0.009 A 
HETATM   29  C   UNK N   1      35.082  13.851  17.987  0.00  0.00     0.050 C 
HETATM   30  C   UNK N   1      35.615  10.198  18.729  0.00  0.00     0.001 A 
HETATM   31  C   UNK N   1      36.239   9.739  17.570  0.00  0.00     0.009 A 
HETATM   32  C   UNK N   1      36.470  10.609  16.502  0.00  0.00    -0.035 A 
HETATM   33  C   UNK N   1      37.139  10.081  15.278  0.00  0.00     0.050 C 
ENDBRANCH  24  26
ENDBRANCH  21  22
ENDBRANCH   2  21
TORSDOF 10
ENDMDL
MODEL 3
REMARK VINA RESULT:      -7.4      3.728     10.974
REMARK  10 active torsions:
REMARK  status: ('A' for Active; 'I' for Inactive)
REMARK    1  A    between atoms: O_1  and  C_14 
REMARK    2  A    between atoms: O_2  and  C_15 
REMARK    3  A    between atoms: O_2  and  C_18 
REMARK    4  A    between atoms: O_4  and  C_23 
REMARK    5  A    between atoms: N_5  and  C_12 
REMARK    6  A    between atoms: N_6  and  C_13 
REMARK       I    between atoms: N_7  and  C_16 
REMARK    7  A    between atoms: N_7  and  C_17 
REMARK    8  A    between atoms: C_12  and  C_14 
REMARK    9  A    between atoms: C_13  and  C_16 
REMARK   10  A    between atoms: C_14  and  C_15 
ROOT
HETATM    1  N   UNK N   1      34.875  16.060   8.669  0.00  0.00     0.094 N 
HETATM    2  N   UNK N   1      31.989  15.891   8.327  0.00  0.00     0.100 N 
HETATM    3  C   UNK N   1      34.133  17.165   8.058  0.00  0.00     0.302 C 
HETATM    4  C   UNK N   1      34.214  14.800   8.308  0.00  0.00     0.302 C 
HETATM    5  C   UNK N   1      32.667  17.186   8.525  0.00  0.00     0.303 C 
HETATM    6  C   UNK N   1      32.772  14.759   8.821  0.00  0.00     0.303 C 
ENDROOT
BRANCH   1   7
HETATM    7  C   UNK N   1      34.963  16.298  10.120  0.00  0.00     0.306 C 
BRANCH   7   8
HETATM    8  C   UNK N   1      35.951  15.403  10.876  0.00  0.00     0.170 C 
BRANCH   8   9
HETATM    9  O   UNK N   1      37.270  15.796  10.642  0.00  0.00    -0.392 OA
HETATM   10  H   UNK N   1      37.936  15.821  11.348  0.00  0.00     0.210 HD
ENDBRANCH   8   9
BRANCH   8  11
HETATM   11  C   UNK N   1      35.672  15.335  12.369  0.00  0.00     0.209 C 
BRANCH  11  12
HETATM   12  O   UNK N   1      36.377  14.288  12.918  0.00  0.00    -0.346 OA
BRANCH  12  13
HETATM   13  C   UNK N   1      35.920  13.480  13.913  0.00  0.00     0.102 A 
HETATM   14  C   UNK N   1      36.466  13.476  15.228  0.00  0.00     0.101 A 
HETATM   15  C   UNK N   1      35.926  12.604  16.191  0.00  0.00     0.039 A 
HETATM   16  C   UNK N   1      34.870  11.753  15.868  0.00  0.00     0.003 A 
HETATM   17  C   UNK N   1      34.339  11.758  14.580  0.00  0.00     0.003 A 
HETATM   18  C   UNK N   1      34.862  12.615  13.611  0.00  0.00     0.039 A 
BRANCH  14  19
HETATM   19  O   UNK N   1      37.497  14.297  15.550  0.00  0.00    -0.353 OA
HETATM   20  C   UNK N   1      37.336  15.600  15.968  0.00  0.00     0.210 C 
ENDBRANCH  14  19
ENDBRANCH  12  13
ENDBRANCH  11  12
ENDBRANCH   8  11
ENDBRANCH   7   8
ENDBRANCH   1   7
BRANCH   2  21
HETATM   21  C   UNK N   1      31.481  15.583   6.980  0.00  0.00     0.375 C 
BRANCH  21  22
HETATM   22  C   UNK N   1      30.766  16.705   6.297  0.00  0.00     0.250 C 
HETATM   23  O   UNK N   1      31.401  17.476   5.592  0.00  0.00    -0.271 OA
HETATM   24  N   UNK N   1      29.415  16.789   6.386  0.00  0.00    -0.325 N 
HETATM   25  H   UNK N   1      28.950  16.075   6.881  0.00  0.00     0.169 HD
BRANCH  24  26
HETATM   26  C   UNK N   1      28.611  17.823   5.822  0.00  0.00     0.046 A 
HETATM   27  C   UNK N   1      28.246  17.848   4.446  0.00  0.00    -0.035 A 
HETATM   28  C   UNK N   1      27.459  18.893   3.956  0.00  0.00     0.009 A 
HETATM   29  C   UNK N   1      28.723  16.826   3.470  0.00  0.00     0.050 C 
HETATM   30  C   UNK N   1      27.027  19.914   4.800  0.00  0.00     0.001 A 
HETATM   31  C   UNK N   1      27.400  19.912   6.144  0.00  0.00     0.009 A 
HETATM   32  C   UNK N   1      28.191  18.879   6.654  0.00  0.00    -0.035 A 
HETATM   33  C   UNK N   1      28.569  18.912   8.097  0.00  0.00     0.050 C 
ENDBRANCH  24  26
ENDBRANCH  21  22
ENDBRANCH   2  21
TORSDOF 10
ENDMDL
MODEL 4
REMARK VINA RESULT:      -7.4      2.705     10.931
REMARK  10 active torsions:
REMARK  status: ('A' for Active; 'I' for Inactive)
REMARK    1  A    between atoms: O_1  and  C_14 
REMARK    2  A    between atoms: O_2  and  C_15 
REMARK    3  A    between atoms: O_2  and  C_18 
REMARK    4  A    between atoms: O_4  and  C_23 
REMARK    5  A    between atoms: N_5  and  C_12 
REMARK    6  A    between atoms: N_6  and  C_13 
REMARK       I    between atoms: N_7  and  C_16 
REMARK    7  A    between atoms: N_7  and  C_17 
REMARK    8  A    between atoms: C_12  and  C_14 
REMARK    9  A    between atoms: C_13  and  C_16 
REMARK   10  A    between atoms: C_14  and  C_15 
ROOT
HETATM    1  N   UNK N   1      36.052  14.276  11.070  0.00  0.00     0.094 N 
HETATM    2  N   UNK N   1      34.066  16.110   9.991  0.00  0.00     0.100 N 
HETATM    3  C   UNK N   1      36.453  15.589  10.561  0.00  0.00     0.302 C 
HETATM    4  C   UNK N   1      34.912  13.798  10.279  0.00  0.00     0.302 C 
HETATM    5  C   UNK N   1      35.297  16.601  10.640  0.00  0.00     0.303 C 
HETATM    6  C   UNK N   1      33.717  14.749  10.394  0.00  0.00     0.303 C 
ENDROOT
BRANCH   1   7
HETATM    7  C   UNK N   1      35.777  14.394  12.512  0.00  0.00     0.306 C 
BRANCH   7   8
HETATM    8  C   UNK N   1      36.394  13.303  13.393  0.00  0.00     0.170 C 
BRANCH   8   9
HETATM    9  O   UNK N   1      37.615  12.866  12.876  0.00  0.00    -0.392 OA
HETATM   10  H   UNK N   1      38.156  12.195  13.322  0.00  0.00     0.210 HD
ENDBRANCH   8   9
BRANCH   8  11
HETATM   11  C   UNK N   1      36.552  13.726  14.844  0.00  0.00     0.209 C 
BRANCH  11  12
HETATM   12  O   UNK N   1      35.415  13.390  15.544  0.00  0.00    -0.346 OA
BRANCH  12  13
HETATM   13  C   UNK N   1      35.402  12.815  16.777  0.00  0.00     0.102 A 
HETATM   14  C   UNK N   1      35.598  11.420  16.990  0.00  0.00     0.101 A 
HETATM   15  C   UNK N   1      35.569  10.917  18.304  0.00  0.00     0.039 A 
HETATM   16  C   UNK N   1      35.351  11.768  19.387  0.00  0.00     0.003 A 
HETATM   17  C   UNK N   1      35.159  13.132  19.175  0.00  0.00     0.003 A 
HETATM   18  C   UNK N   1      35.184  13.649  17.880  0.00  0.00     0.039 A 
BRANCH  14  19
HETATM   19  O   UNK N   1      35.805  10.584  15.942  0.00  0.00    -0.353 OA
HETATM   20  C   UNK N   1      37.044  10.105  15.578  0.00  0.00     0.210 C 
ENDBRANCH  14  19
ENDBRANCH  12  13
ENDBRANCH  11  12
ENDBRANCH   8  11
ENDBRANCH   7   8
ENDBRANCH   1   7
BRANCH   2  21
HETATM   21  C   UNK N   1      33.974  16.226   8.526  0.00  0.00     0.375 C 
BRANCH  21  22
HETATM   22  C   UNK N   1      32.853  17.079   8.024  0.00  0.00     0.250 C 
HETATM   23  O   UNK N   1      33.059  18.265   7.804  0.00  0.00    -0.271 OA
HETATM   24  N   UNK N   1      31.660  16.507   7.723  0.00  0.00    -0.325 N 
HETATM   25  H   UNK N   1      31.591  15.530   7.821  0.00  0.00     0.169 HD
BRANCH  24  26
HETATM   26  C   UNK N   1      30.498  17.204   7.276  0.00  0.00     0.046 A 
HETATM   27  C   UNK N   1      29.589  17.835   8.171  0.00  0.00    -0.035 A 
HETATM   28  C   UNK N   1      28.467  18.498   7.669  0.00  0.00     0.009 A 
HETATM   29  C   UNK N   1      29.746  17.771   9.654  0.00  0.00     0.050 C 
HETATM   30  C   UNK N   1      28.226  18.546   6.297  0.00  0.00     0.001 A 
HETATM   31  C   UNK N   1      29.097  17.909   5.413  0.00  0.00     0.009 A 
HETATM   32  C   UNK N   1      30.222  17.237   5.895  0.00  0.00    -0.035 A 
HETATM   33  C   UNK N   1      31.131  16.568   4.918  0.00  0.00     0.050 C 
ENDBRANCH  24  26
ENDBRANCH  21  22
ENDBRANCH   2  21
TORSDOF 10
ENDMDL
MODEL 5
REMARK VINA RESULT:      -7.3      2.517      3.562
REMARK  10 active torsions:
REMARK  status: ('A' for Active; 'I' for Inactive)
REMARK    1  A    between atoms: O_1  and  C_14 
REMARK    2  A    between atoms: O_2  and  C_15 
REMARK    3  A    between atoms: O_2  and  C_18 
REMARK    4  A    between atoms: O_4  and  C_23 
REMARK    5  A    between atoms: N_5  and  C_12 
REMARK    6  A    between atoms: N_6  and  C_13 
REMARK       I    between atoms: N_7  and  C_16 
REMARK    7  A    between atoms: N_7  and  C_17 
REMARK    8  A    between atoms: C_12  and  C_14 
REMARK    9  A    between atoms: C_13  and  C_16 
REMARK   10  A    between atoms: C_14  and  C_15 
ROOT
HETATM    1  N   UNK N   1      34.240  16.012   9.702  0.00  0.00     0.094 N 
HETATM    2  N   UNK N   1      35.949  14.539  11.540  0.00  0.00     0.100 N 
HETATM    3  C   UNK N   1      35.386  16.667  10.336  0.00  0.00     0.302 C 
HETATM    4  C   UNK N   1      33.693  15.023  10.637  0.00  0.00     0.302 C 
HETATM    5  C   UNK N   1      36.474  15.649  10.722  0.00  0.00     0.303 C 
HETATM    6  C   UNK N   1      34.730  13.952  10.986  0.00  0.00     0.303 C 
ENDROOT
BRANCH   1   7
HETATM    7  C   UNK N   1      34.675  15.447   8.413  0.00  0.00     0.306 C 
BRANCH   7   8
HETATM    8  C   UNK N   1      34.126  16.149   7.166  0.00  0.00     0.170 C 
BRANCH   8   9
HETATM    9  O   UNK N   1      34.946  15.925   6.059  0.00  0.00    -0.392 OA
HETATM   10  H   UNK N   1      35.327  15.054   5.864  0.00  0.00     0.210 HD
ENDBRANCH   8   9
BRANCH   8  11
HETATM   11  C   UNK N   1      32.689  15.768   6.851  0.00  0.00     0.209 C 
BRANCH  11  12
HETATM   12  O   UNK N   1      31.951  16.909   6.635  0.00  0.00    -0.346 OA
BRANCH  12  13
HETATM   13  C   UNK N   1      30.897  17.310   7.396  0.00  0.00     0.102 A 
HETATM   14  C   UNK N   1      29.547  16.956   7.110  0.00  0.00     0.101 A 
HETATM   15  C   UNK N   1      28.524  17.418   7.957  0.00  0.00     0.039 A 
HETATM   16  C   UNK N   1      28.821  18.213   9.063  0.00  0.00     0.003 A 
HETATM   17  C   UNK N   1      30.142  18.560   9.340  0.00  0.00     0.003 A 
HETATM   18  C   UNK N   1      31.170  18.111   8.511  0.00  0.00     0.039 A 
BRANCH  14  19
HETATM   19  O   UNK N   1      29.249  16.187   6.033  0.00  0.00    -0.353 OA
HETATM   20  C   UNK N   1      27.970  15.801   5.698  0.00  0.00     0.210 C 
ENDBRANCH  14  19
ENDBRANCH  12  13
ENDBRANCH  11  12
ENDBRANCH   8  11
ENDBRANCH   7   8
ENDBRANCH   1   7
BRANCH   2  21
HETATM   21  C   UNK N   1      35.765  14.780  12.981  0.00  0.00     0.375 C 
BRANCH  21  22
HETATM   22  C   UNK N   1      35.903  13.573  13.852  0.00  0.00     0.250 C 
HETATM   23  O   UNK N   1      36.937  12.922  13.811  0.00  0.00    -0.271 OA
HETATM   24  N   UNK N   1      34.925  13.278  14.746  0.00  0.00    -0.325 N 
HETATM   25  H   UNK N   1      34.166  13.902  14.806  0.00  0.00     0.169 HD
BRANCH  24  26
HETATM   26  C   UNK N   1      34.907  12.141  15.608  0.00  0.00     0.046 A 
HETATM   27  C   UNK N   1      34.568  10.837  15.149  0.00  0.00    -0.035 A 
HETATM   28  C   UNK N   1      34.566   9.766  16.046  0.00  0.00     0.009 A 
HETATM   29  C   UNK N   1      34.149  10.562  13.745  0.00  0.00     0.050 C 
HETATM   30  C   UNK N   1      34.890   9.961  17.387  0.00  0.00     0.001 A 
HETATM   31  C   UNK N   1      35.198  11.239  17.851  0.00  0.00     0.009 A 
HETATM   32  C   UNK N   1      35.202  12.325  16.973  0.00  0.00    -0.035 A 
HETATM   33  C   UNK N   1      35.537  13.678  17.506  0.00  0.00     0.050 C 
ENDBRANCH  24  26
ENDBRANCH  21  22
ENDBRANCH   2  21
TORSDOF 10
ENDMDL
MODEL 6
REMARK VINA RESULT:      -7.3      2.627      4.264
REMARK  10 active torsions:
REMARK  status: ('A' for Active; 'I' for Inactive)
REMARK    1  A    between atoms: O_1  and  C_14 
REMARK    2  A    between atoms: O_2  and  C_15 
REMARK    3  A    between atoms: O_2  and  C_18 
REMARK    4  A    between atoms: O_4  and  C_23 
REMARK    5  A    between atoms: N_5  and  C_12 
REMARK    6  A    between atoms: N_6  and  C_13 
REMARK       I    between atoms: N_7  and  C_16 
REMARK    7  A    between atoms: N_7  and  C_17 
REMARK    8  A    between atoms: C_12  and  C_14 
REMARK    9  A    between atoms: C_13  and  C_16 
REMARK   10  A    between atoms: C_14  and  C_15 
ROOT
HETATM    1  N   UNK N   1      34.516  15.521   9.500  0.00  0.00     0.094 N 
HETATM    2  N   UNK N   1      36.733  14.510  11.092  0.00  0.00     0.100 N 
HETATM    3  C   UNK N   1      34.528  15.699  10.953  0.00  0.00     0.302 C 
HETATM    4  C   UNK N   1      35.177  14.250   9.181  0.00  0.00     0.302 C 
HETATM    5  C   UNK N   1      35.963  15.698  11.509  0.00  0.00     0.303 C 
HETATM    6  C   UNK N   1      36.632  14.243   9.658  0.00  0.00     0.303 C 
ENDROOT
BRANCH   1   7
HETATM    7  C   UNK N   1      35.144  16.699   8.876  0.00  0.00     0.306 C 
BRANCH   7   8
HETATM    8  C   UNK N   1      34.209  17.886   8.619  0.00  0.00     0.170 C 
BRANCH   8   9
HETATM    9  O   UNK N   1      34.931  19.036   8.297  0.00  0.00    -0.392 OA
HETATM   10  H   UNK N   1      35.865  19.145   8.534  0.00  0.00     0.210 HD
ENDBRANCH   8   9
BRANCH   8  11
HETATM   11  C   UNK N   1      33.160  17.600   7.558  0.00  0.00     0.209 C 
BRANCH  11  12
HETATM   12  O   UNK N   1      32.104  16.926   8.129  0.00  0.00    -0.346 OA
BRANCH  12  13
HETATM   13  C   UNK N   1      30.809  17.343   8.103  0.00  0.00     0.102 A 
HETATM   14  C   UNK N   1      29.877  16.936   7.107  0.00  0.00     0.101 A 
HETATM   15  C   UNK N   1      28.558  17.419   7.164  0.00  0.00     0.039 A 
HETATM   16  C   UNK N   1      28.162  18.288   8.181  0.00  0.00     0.003 A 
HETATM   17  C   UNK N   1      29.076  18.686   9.154  0.00  0.00     0.003 A 
HETATM   18  C   UNK N   1      30.389  18.217   9.113  0.00  0.00     0.039 A 
BRANCH  14  19
HETATM   19  O   UNK N   1      30.255  16.094   6.111  0.00  0.00    -0.353 OA
HETATM   20  C   UNK N   1      29.403  15.203   5.497  0.00  0.00     0.210 C 
ENDBRANCH  14  19
ENDBRANCH  12  13
ENDBRANCH  11  12
ENDBRANCH   8  11
ENDBRANCH   7   8
ENDBRANCH   1   7
BRANCH   2  21
HETATM   21  C   UNK N   1      36.519  13.260  11.839  0.00  0.00     0.375 C 
BRANCH  21  22
HETATM   22  C   UNK N   1      35.920  13.424  13.199  0.00  0.00     0.250 C 
HETATM   23  O   UNK N   1      34.709  13.556  13.306  0.00  0.00    -0.271 OA
HETATM   24  N   UNK N   1      36.713  13.323  14.296  0.00  0.00    -0.325 N 
HETATM   25  H   UNK N   1      37.663  13.109  14.147  0.00  0.00     0.169 HD
BRANCH  24  26
HETATM   26  C   UNK N   1      36.285  13.497  15.645  0.00  0.00     0.046 A 
HETATM   27  C   UNK N   1      36.559  14.679  16.390  0.00  0.00    -0.035 A 
HETATM   28  C   UNK N   1      36.114  14.785  17.710  0.00  0.00     0.009 A 
HETATM   29  C   UNK N   1      37.364  15.807  15.841  0.00  0.00     0.050 C 
HETATM   30  C   UNK N   1      35.406  13.744  18.308  0.00  0.00     0.001 A 
HETATM   31  C   UNK N   1      35.156  12.572  17.594  0.00  0.00     0.009 A 
HETATM   32  C   UNK N   1      35.595  12.443  16.275  0.00  0.00    -0.035 A 
HETATM   33  C   UNK N   1      35.307  11.174  15.544  0.00  0.00     0.050 C 
ENDBRANCH  24  26
ENDBRANCH  21  22
ENDBRANCH   2  21
TORSDOF 10
ENDMDL
MODEL 7
REMARK VINA RESULT:      -7.3      2.251     10.393
REMARK  10 active torsions:
REMARK  status: ('A' for Active; 'I' for Inactive)
REMARK    1  A    between atoms: O_1  and  C_14 
REMARK    2  A    between atoms: O_2  and  C_15 
REMARK    3  A    between atoms: O_2  and  C_18 
REMARK    4  A    between atoms: O_4  and  C_23 
REMARK    5  A    between atoms: N_5  and  C_12 
REMARK    6  A    between atoms: N_6  and  C_13 
REMARK       I    between atoms: N_7  and  C_16 
REMARK    7  A    between atoms: N_7  and  C_17 
REMARK    8  A    between atoms: C_12  and  C_14 
REMARK    9  A    between atoms: C_13  and  C_16 
REMARK   10  A    between atoms: C_14  and  C_15 
ROOT
HETATM    1  N   UNK N   1      36.408  14.275  11.352  0.00  0.00     0.094 N 
HETATM    2  N   UNK N   1      34.526  15.430   9.456  0.00  0.00     0.100 N 
HETATM    3  C   UNK N   1      35.350  15.177  11.812  0.00  0.00     0.302 C 
HETATM    4  C   UNK N   1      36.827  14.695  10.010  0.00  0.00     0.302 C 
HETATM    5  C   UNK N   1      34.144  15.164  10.856  0.00  0.00     0.303 C 
HETATM    6  C   UNK N   1      35.664  14.625   9.016  0.00  0.00     0.303 C 
ENDROOT
BRANCH   1   7
HETATM    7  C   UNK N   1      35.910  12.891  11.421  0.00  0.00     0.306 C 
BRANCH   7   8
HETATM    8  C   UNK N   1      36.442  12.056  12.591  0.00  0.00     0.170 C 
BRANCH   8   9
HETATM    9  O   UNK N   1      37.793  12.317  12.824  0.00  0.00    -0.392 OA
HETATM   10  H   UNK N   1      38.152  13.218  12.838  0.00  0.00     0.210 HD
ENDBRANCH   8   9
BRANCH   8  11
HETATM   11  C   UNK N   1      35.637  12.236  13.867  0.00  0.00     0.209 C 
BRANCH  11  12
HETATM   12  O   UNK N   1      36.495  12.401  14.930  0.00  0.00    -0.346 OA
BRANCH  12  13
HETATM   13  C   UNK N   1      36.443  13.429  15.821  0.00  0.00     0.102 A 
HETATM   14  C   UNK N   1      35.637  13.405  16.995  0.00  0.00     0.101 A 
HETATM   15  C   UNK N   1      35.650  14.516  17.857  0.00  0.00     0.039 A 
HETATM   16  C   UNK N   1      36.438  15.630  17.571  0.00  0.00     0.003 A 
HETATM   17  C   UNK N   1      37.224  15.651  16.420  0.00  0.00     0.003 A 
HETATM   18  C   UNK N   1      37.224  14.558  15.553  0.00  0.00     0.039 A 
BRANCH  14  19
HETATM   19  O   UNK N   1      34.863  12.327  17.279  0.00  0.00    -0.353 OA
HETATM   20  C   UNK N   1      35.253  11.302  18.112  0.00  0.00     0.210 C 
ENDBRANCH  14  19
ENDBRANCH  12  13
ENDBRANCH  11  12
ENDBRANCH   8  11
ENDBRANCH   7   8
ENDBRANCH   1   7
BRANCH   2  21
HETATM   21  C   UNK N   1      34.734  16.832   9.059  0.00  0.00     0.375 C 
BRANCH  21  22
HETATM   22  C   UNK N   1      33.733  17.377   8.092  0.00  0.00     0.250 C 
HETATM   23  O   UNK N   1      33.883  18.508   7.651  0.00  0.00    -0.271 OA
HETATM   24  N   UNK N   1      32.733  16.577   7.643  0.00  0.00    -0.325 N 
HETATM   25  H   UNK N   1      32.728  15.643   7.955  0.00  0.00     0.169 HD
BRANCH  24  26
HETATM   26  C   UNK N   1      31.689  16.975   6.756  0.00  0.00     0.046 A 
HETATM   27  C   UNK N   1      31.874  17.070   5.348  0.00  0.00    -0.035 A 
HETATM   28  C   UNK N   1      30.811  17.471   4.534  0.00  0.00     0.009 A 
HETATM   29  C   UNK N   1      33.188  16.817   4.690  0.00  0.00     0.050 C 
HETATM   30  C   UNK N   1      29.570  17.781   5.088  0.00  0.00     0.001 A 
HETATM   31  C   UNK N   1      29.387  17.715   6.468  0.00  0.00     0.009 A 
HETATM   32  C   UNK N   1      30.437  17.322   7.301  0.00  0.00    -0.035 A 
HETATM   33  C   UNK N   1      30.202  17.263   8.773  0.00  0.00     0.050 C 
ENDBRANCH  24  26
ENDBRANCH  21  22
ENDBRANCH   2  21
TORSDOF 10
ENDMDL
MODEL 8
REMARK VINA RESULT:      -7.3      2.143     10.833
REMARK  10 active torsions:
REMARK  status: ('A' for Active; 'I' for Inactive)
REMARK    1  A    between atoms: O_1  and  C_14 
REMARK    2  A    between atoms: O_2  and  C_15 
REMARK    3  A    between atoms: O_2  and  C_18 
REMARK    4  A    between atoms: O_4  and  C_23 
REMARK    5  A    between atoms: N_5  and  C_12 
REMARK    6  A    between atoms: N_6  and  C_13 
REMARK       I    between atoms: N_7  and  C_16 
REMARK    7  A    between atoms: N_7  and  C_17 
REMARK    8  A    between atoms: C_12  and  C_14 
REMARK    9  A    between atoms: C_13  and  C_16 
REMARK   10  A    between atoms: C_14  and  C_15 
ROOT
HETATM    1  N   UNK N   1      36.435  14.515  10.926  0.00  0.00     0.094 N 
HETATM    2  N   UNK N   1      34.475  15.520   9.024  0.00  0.00     0.100 N 
HETATM    3  C   UNK N   1      36.058  15.930  10.927  0.00  0.00     0.302 C 
HETATM    4  C   UNK N   1      36.374  14.017   9.547  0.00  0.00     0.302 C 
HETATM    5  C   UNK N   1      34.645  16.136  10.354  0.00  0.00     0.303 C 
HETATM    6  C   UNK N   1      34.962  14.142   8.971  0.00  0.00     0.303 C 
ENDROOT
BRANCH   1   7
HETATM    7  C   UNK N   1      35.558  13.794  11.865  0.00  0.00     0.306 C 
BRANCH   7   8
HETATM    8  C   UNK N   1      36.272  13.077  13.016  0.00  0.00     0.170 C 
BRANCH   8   9
HETATM    9  O   UNK N   1      37.585  12.751  12.672  0.00  0.00    -0.392 OA
HETATM   10  H   UNK N   1      38.282  12.638  13.338  0.00  0.00     0.210 HD
ENDBRANCH   8   9
BRANCH   8  11
HETATM   11  C   UNK N   1      36.241  13.860  14.318  0.00  0.00     0.209 C 
BRANCH  11  12
HETATM   12  O   UNK N   1      35.128  13.498  15.043  0.00  0.00    -0.346 OA
BRANCH  12  13
HETATM   13  C   UNK N   1      35.157  12.900  16.265  0.00  0.00     0.102 A 
HETATM   14  C   UNK N   1      35.171  11.488  16.444  0.00  0.00     0.101 A 
HETATM   15  C   UNK N   1      35.202  10.962  17.748  0.00  0.00     0.039 A 
HETATM   16  C   UNK N   1      35.218  11.809  18.856  0.00  0.00     0.003 A 
HETATM   17  C   UNK N   1      35.203  13.191  18.678  0.00  0.00     0.003 A 
HETATM   18  C   UNK N   1      35.172  13.730  17.392  0.00  0.00     0.039 A 
BRANCH  14  19
HETATM   19  O   UNK N   1      35.150  10.656  15.371  0.00  0.00    -0.353 OA
HETATM   20  C   UNK N   1      34.028  10.414  14.611  0.00  0.00     0.210 C 
ENDBRANCH  14  19
ENDBRANCH  12  13
ENDBRANCH  11  12
ENDBRANCH   8  11
ENDBRANCH   7   8
ENDBRANCH   1   7
BRANCH   2  21
HETATM   21  C   UNK N   1      34.979  16.263   7.857  0.00  0.00     0.375 C 
BRANCH  21  22
HETATM   22  C   UNK N   1      33.928  16.820   6.952  0.00  0.00     0.250 C 
HETATM   23  O   UNK N   1      34.137  17.876   6.373  0.00  0.00    -0.271 OA
HETATM   24  N   UNK N   1      32.805  16.097   6.708  0.00  0.00    -0.325 N 
HETATM   25  H   UNK N   1      32.744  15.206   7.122  0.00  0.00     0.169 HD
BRANCH  24  26
HETATM   26  C   UNK N   1      31.707  16.522   5.902  0.00  0.00     0.046 A 
HETATM   27  C   UNK N   1      31.721  16.441   4.482  0.00  0.00    -0.035 A 
HETATM   28  C   UNK N   1      30.614  16.877   3.751  0.00  0.00     0.009 A 
HETATM   29  C   UNK N   1      32.907  15.959   3.716  0.00  0.00     0.050 C 
HETATM   30  C   UNK N   1      29.493  17.393   4.398  0.00  0.00     0.001 A 
HETATM   31  C   UNK N   1      29.480  17.501   5.789  0.00  0.00     0.009 A 
HETATM   32  C   UNK N   1      30.578  17.074   6.539  0.00  0.00    -0.035 A 
HETATM   33  C   UNK N   1      30.526  17.205   8.024  0.00  0.00     0.050 C 
ENDBRANCH  24  26
ENDBRANCH  21  22
ENDBRANCH   2  21
TORSDOF 10
ENDMDL
MODEL 9
REMARK VINA RESULT:      -7.2      2.302      3.200
REMARK  10 active torsions:
REMARK  status: ('A' for Active; 'I' for Inactive)
REMARK    1  A    between atoms: O_1  and  C_14 
REMARK    2  A    between atoms: O_2  and  C_15 
REMARK    3  A    between atoms: O_2  and  C_18 
REMARK    4  A    between atoms: O_4  and  C_23 
REMARK    5  A    between atoms: N_5  and  C_12 
REMARK    6  A    between atoms: N_6  and  C_13 
REMARK       I    between atoms: N_7  and  C_16 
REMARK    7  A    between atoms: N_7  and  C_17 
REMARK    8  A    between atoms: C_12  and  C_14 
REMARK    9  A    between atoms: C_13  and  C_16 
REMARK   10  A    between atoms: C_14  and  C_15 
ROOT
HETATM    1  N   UNK N   1      34.467  14.529   9.757  0.00  0.00     0.094 N 
HETATM    2  N   UNK N   1      36.514  13.310  11.429  0.00  0.00     0.100 N 
HETATM    3  C   UNK N   1      34.473  14.751  11.204  0.00  0.00     0.302 C 
HETATM    4  C   UNK N   1      34.975  13.177   9.492  0.00  0.00     0.302 C 
HETATM    5  C   UNK N   1      35.886  14.595  11.793  0.00  0.00     0.303 C 
HETATM    6  C   UNK N   1      36.409  13.011  10.002  0.00  0.00     0.303 C 
ENDROOT
BRANCH   1   7
HETATM    7  C   UNK N   1      35.245  15.601   9.113  0.00  0.00     0.306 C 
BRANCH   7   8
HETATM    8  C   UNK N   1      34.747  17.026   9.376  0.00  0.00     0.170 C 
BRANCH   8   9
HETATM    9  O   UNK N   1      35.667  17.751  10.135  0.00  0.00    -0.392 OA
HETATM   10  H   UNK N   1      36.102  17.376  10.918  0.00  0.00     0.210 HD
ENDBRANCH   8   9
BRANCH   8  11
HETATM   11  C   UNK N   1      34.396  17.780   8.104  0.00  0.00     0.209 C 
BRANCH  11  12
HETATM   12  O   UNK N   1      33.078  18.174   8.155  0.00  0.00    -0.346 OA
BRANCH  12  13
HETATM   13  C   UNK N   1      32.047  17.524   7.551  0.00  0.00     0.102 A 
HETATM   14  C   UNK N   1      30.687  17.681   7.943  0.00  0.00     0.101 A 
HETATM   15  C   UNK N   1      29.689  16.967   7.256  0.00  0.00     0.039 A 
HETATM   16  C   UNK N   1      30.020  16.114   6.204  0.00  0.00     0.003 A 
HETATM   17  C   UNK N   1      31.352  15.961   5.823  0.00  0.00     0.003 A 
HETATM   18  C   UNK N   1      32.356  16.661   6.493  0.00  0.00     0.039 A 
BRANCH  14  19
HETATM   19  O   UNK N   1      30.355  18.506   8.969  0.00  0.00    -0.353 OA
HETATM   20  C   UNK N   1      29.291  18.285   9.815  0.00  0.00     0.210 C 
ENDBRANCH  14  19
ENDBRANCH  12  13
ENDBRANCH  11  12
ENDBRANCH   8  11
ENDBRANCH   7   8
ENDBRANCH   1   7
BRANCH   2  21
HETATM   21  C   UNK N   1      36.135  12.120  12.208  0.00  0.00     0.375 C 
BRANCH  21  22
HETATM   22  C   UNK N   1      35.584  12.398  13.570  0.00  0.00     0.250 C 
HETATM   23  O   UNK N   1      34.374  12.504  13.713  0.00  0.00    -0.271 OA
HETATM   24  N   UNK N   1      36.421  12.425  14.637  0.00  0.00    -0.325 N 
HETATM   25  H   UNK N   1      37.371  12.226  14.471  0.00  0.00     0.169 HD
BRANCH  24  26
HETATM   26  C   UNK N   1      36.040  12.718  15.981  0.00  0.00     0.046 A 
HETATM   27  C   UNK N   1      35.388  11.768  16.817  0.00  0.00    -0.035 A 
HETATM   28  C   UNK N   1      35.037  12.120  18.123  0.00  0.00     0.009 A 
HETATM   29  C   UNK N   1      34.998  10.410  16.340  0.00  0.00     0.050 C 
HETATM   30  C   UNK N   1      35.318  13.392  18.616  0.00  0.00     0.001 A 
HETATM   31  C   UNK N   1      35.933  14.337  17.796  0.00  0.00     0.009 A 
HETATM   32  C   UNK N   1      36.288  14.009  16.486  0.00  0.00    -0.035 A 
HETATM   33  C   UNK N   1      36.945  15.047  15.639  0.00  0.00     0.050 C 
ENDBRANCH  24  26
ENDBRANCH  21  22
ENDBRANCH   2  21
TORSDOF 10
ENDMDL
