MODEL 1
REMARK VINA RESULT:      -6.1      0.000      0.000
REMARK  4 active torsions:
REMARK  status: ('A' for Active; 'I' for Inactive)
REMARK    1  A    between atoms: S_1  and  C_6 
REMARK    2  A    between atoms: S_1  and  C_7 
REMARK    3  A    between atoms: N_4  and  C_16 
REMARK    4  A    between atoms: N_5  and  C_17 
ROOT
HETATM    1  S   UNK N   1      33.908  16.943   7.256  0.00  0.00     0.206 S 
HETATM    2  O   UNK N   1      34.965  16.307   6.340  0.00  0.00    -0.217 OA
HETATM    3  O   UNK N   1      34.574  18.326   7.178  0.00  0.00    -0.217 OA
ENDROOT
BRANCH   1   4
HETATM    4  C   UNK N   1      32.748  16.997   5.874  0.00  0.00     0.064 A 
HETATM    5  C   UNK N   1      33.175  17.304   4.576  0.00  0.00     0.026 A 
HETATM    6  C   UNK N   1      32.262  17.275   3.513  0.00  0.00     0.030 A 
HETATM    7  C   UNK N   1      30.921  16.929   3.740  0.00  0.00     0.025 A 
HETATM    8  C   UNK N   1      30.498  16.614   5.032  0.00  0.00     0.030 A 
HETATM    9  C   UNK N   1      31.404  16.641   6.088  0.00  0.00     0.026 A 
BRANCH   7  10
HETATM   10  N   UNK N   1      30.005  16.892   2.675  0.00  0.00    -0.399 N 
HETATM   11  H   UNK N   1      29.295  17.570   2.607  0.00  0.00     0.156 HD
HETATM   12  H   UNK N   1      30.075  16.186   1.993  0.00  0.00     0.156 HD
ENDBRANCH   7  10
ENDBRANCH   1   4
BRANCH   1  13
HETATM   13  C   UNK N   1      34.745  16.162   8.649  0.00  0.00     0.064 A 
HETATM   14  C   UNK N   1      34.846  16.867   9.856  0.00  0.00     0.026 A 
HETATM   15  C   UNK N   1      35.534  16.322  10.943  0.00  0.00     0.030 A 
HETATM   16  C   UNK N   1      36.128  15.068  10.823  0.00  0.00     0.025 A 
HETATM   17  C   UNK N   1      36.030  14.351   9.624  0.00  0.00     0.030 A 
HETATM   18  C   UNK N   1      35.338  14.901   8.532  0.00  0.00     0.026 A 
BRANCH  16  19
HETATM   19  N   UNK N   1      36.835  14.524  11.919  0.00  0.00    -0.399 N 
HETATM   20  H   UNK N   1      37.462  15.083  12.431  0.00  0.00     0.156 HD
HETATM   21  H   UNK N   1      36.700  13.581  12.170  0.00  0.00     0.156 HD
ENDBRANCH  16  19
ENDBRANCH   1  13
TORSDOF 4
ENDMDL
MODEL 2
REMARK VINA RESULT:      -6.0      0.816      6.926
REMARK  4 active torsions:
REMARK  status: ('A' for Active; 'I' for Inactive)
REMARK    1  A    between atoms: S_1  and  C_6 
REMARK    2  A    between atoms: S_1  and  C_7 
REMARK    3  A    between atoms: N_4  and  C_16 
REMARK    4  A    between atoms: N_5  and  C_17 
ROOT
HETATM    1  S   UNK N   1      33.966  16.983   7.578  0.00  0.00     0.206 S 
HETATM    2  O   UNK N   1      32.990  17.530   8.632  0.00  0.00    -0.217 OA
HETATM    3  O   UNK N   1      34.737  18.310   7.505  0.00  0.00    -0.217 OA
ENDROOT
BRANCH   1   4
HETATM    4  C   UNK N   1      34.856  16.091   8.871  0.00  0.00     0.064 A 
HETATM    5  C   UNK N   1      35.441  14.843   8.625  0.00  0.00     0.026 A 
HETATM    6  C   UNK N   1      36.180  14.205   9.630  0.00  0.00     0.030 A 
HETATM    7  C   UNK N   1      36.347  14.816  10.883  0.00  0.00     0.025 A 
HETATM    8  C   UNK N   1      35.771  16.065  11.124  0.00  0.00     0.030 A 
HETATM    9  C   UNK N   1      35.038  16.699  10.127  0.00  0.00     0.026 A 
BRANCH   7  10
HETATM   10  N   UNK N   1      37.093  14.182  11.890  0.00  0.00    -0.399 N 
HETATM   11  H   UNK N   1      37.918  13.695  11.666  0.00  0.00     0.156 HD
HETATM   12  H   UNK N   1      36.789  14.227  12.826  0.00  0.00     0.156 HD
ENDBRANCH   7  10
ENDBRANCH   1   4
BRANCH   1  13
HETATM   13  C   UNK N   1      32.659  17.200   6.355  0.00  0.00     0.064 A 
HETATM   14  C   UNK N   1      31.326  17.045   6.759  0.00  0.00     0.026 A 
HETATM   15  C   UNK N   1      30.286  17.151   5.833  0.00  0.00     0.030 A 
HETATM   16  C   UNK N   1      30.577  17.407   4.495  0.00  0.00     0.025 A 
HETATM   17  C   UNK N   1      31.904  17.568   4.080  0.00  0.00     0.030 A 
HETATM   18  C   UNK N   1      32.950  17.462   5.012  0.00  0.00     0.026 A 
BRANCH  16  19
HETATM   19  N   UNK N   1      29.524  17.500   3.558  0.00  0.00    -0.399 N 
HETATM   20  H   UNK N   1      28.816  16.818   3.539  0.00  0.00     0.156 HD
HETATM   21  H   UNK N   1      29.500  18.250   2.920  0.00  0.00     0.156 HD
ENDBRANCH  16  19
ENDBRANCH   1  13
TORSDOF 4
ENDMDL
MODEL 3
REMARK VINA RESULT:      -5.8      6.306      8.567
REMARK  4 active torsions:
REMARK  status: ('A' for Active; 'I' for Inactive)
REMARK    1  A    between atoms: S_1  and  C_6 
REMARK    2  A    between atoms: S_1  and  C_7 
REMARK    3  A    between atoms: N_4  and  C_16 
REMARK    4  A    between atoms: N_5  and  C_17 
ROOT
HETATM    1  S   UNK N   1      35.713  12.833  14.457  0.00  0.00     0.206 S 
HETATM    2  O   UNK N   1      34.262  12.345  14.313  0.00  0.00    -0.217 OA
HETATM    3  O   UNK N   1      36.284  11.452  14.099  0.00  0.00    -0.217 OA
ENDROOT
BRANCH   1   4
HETATM    4  C   UNK N   1      35.600  13.633  12.843  0.00  0.00     0.064 A 
HETATM    5  C   UNK N   1      35.040  12.975  11.741  0.00  0.00     0.026 A 
HETATM    6  C   UNK N   1      34.909  13.646  10.518  0.00  0.00     0.030 A 
HETATM    7  C   UNK N   1      35.325  14.980  10.392  0.00  0.00     0.025 A 
HETATM    8  C   UNK N   1      35.874  15.639  11.494  0.00  0.00     0.030 A 
HETATM    9  C   UNK N   1      36.005  14.974  12.709  0.00  0.00     0.026 A 
BRANCH   7  10
HETATM   10  N   UNK N   1      35.188  15.657   9.169  0.00  0.00    -0.399 N 
HETATM   11  H   UNK N   1      34.393  15.513   8.608  0.00  0.00     0.156 HD
HETATM   12  H   UNK N   1      35.891  16.279   8.872  0.00  0.00     0.156 HD
ENDBRANCH   7  10
ENDBRANCH   1   4
BRANCH   1  13
HETATM   13  C   UNK N   1      35.494  12.735  16.244  0.00  0.00     0.064 A 
HETATM   14  C   UNK N   1      35.391  13.925  16.977  0.00  0.00     0.026 A 
HETATM   15  C   UNK N   1      35.276  13.896  18.368  0.00  0.00     0.030 A 
HETATM   16  C   UNK N   1      35.269  12.673  19.034  0.00  0.00     0.025 A 
HETATM   17  C   UNK N   1      35.366  11.477  18.314  0.00  0.00     0.030 A 
HETATM   18  C   UNK N   1      35.482  11.507  16.914  0.00  0.00     0.026 A 
BRANCH  16  19
HETATM   19  N   UNK N   1      35.166  12.646  20.442  0.00  0.00    -0.399 N 
HETATM   20  H   UNK N   1      34.325  12.372  20.873  0.00  0.00     0.156 HD
HETATM   21  H   UNK N   1      35.939  12.904  20.996  0.00  0.00     0.156 HD
ENDBRANCH  16  19
ENDBRANCH   1  13
TORSDOF 4
ENDMDL
MODEL 4
REMARK VINA RESULT:      -5.8      6.916      9.267
REMARK  4 active torsions:
REMARK  status: ('A' for Active; 'I' for Inactive)
REMARK    1  A    between atoms: S_1  and  C_6 
REMARK    2  A    between atoms: S_1  and  C_7 
REMARK    3  A    between atoms: N_4  and  C_16 
REMARK    4  A    between atoms: N_5  and  C_17 
ROOT
HETATM    1  S   UNK N   1      36.031  12.314  14.635  0.00  0.00     0.206 S 
HETATM    2  O   UNK N   1      34.687  13.014  14.379  0.00  0.00    -0.217 OA
HETATM    3  O   UNK N   1      35.440  10.925  14.348  0.00  0.00    -0.217 OA
ENDROOT
BRANCH   1   4
HETATM    4  C   UNK N   1      36.607  12.832  13.004  0.00  0.00     0.064 A 
HETATM    5  C   UNK N   1      37.515  12.057  12.272  0.00  0.00     0.026 A 
HETATM    6  C   UNK N   1      37.894  12.453  10.983  0.00  0.00     0.030 A 
HETATM    7  C   UNK N   1      37.359  13.619  10.414  0.00  0.00     0.025 A 
HETATM    8  C   UNK N   1      36.446  14.386  11.140  0.00  0.00     0.030 A 
HETATM    9  C   UNK N   1      36.069  13.994  12.421  0.00  0.00     0.026 A 
BRANCH   7  10
HETATM   10  N   UNK N   1      37.731  14.015   9.118  0.00  0.00    -0.399 N 
HETATM   11  H   UNK N   1      38.220  13.395   8.530  0.00  0.00     0.156 HD
HETATM   12  H   UNK N   1      37.502  14.917   8.797  0.00  0.00     0.156 HD
ENDBRANCH   7  10
ENDBRANCH   1   4
BRANCH   1  13
HETATM   13  C   UNK N   1      35.729  12.531  16.399  0.00  0.00     0.064 A 
HETATM   14  C   UNK N   1      35.646  11.394  17.214  0.00  0.00     0.026 A 
HETATM   15  C   UNK N   1      35.360  11.514  18.576  0.00  0.00     0.030 A 
HETATM   16  C   UNK N   1      35.150  12.775  19.127  0.00  0.00     0.025 A 
HETATM   17  C   UNK N   1      35.235  13.919  18.326  0.00  0.00     0.030 A 
HETATM   18  C   UNK N   1      35.523  13.798  16.956  0.00  0.00     0.026 A 
BRANCH  16  19
HETATM   19  N   UNK N   1      34.847  12.893  20.502  0.00  0.00    -0.399 N 
HETATM   20  H   UNK N   1      35.514  12.641  21.180  0.00  0.00     0.156 HD
HETATM   21  H   UNK N   1      33.965  13.229  20.783  0.00  0.00     0.156 HD
ENDBRANCH  16  19
ENDBRANCH   1  13
TORSDOF 4
ENDMDL
MODEL 5
REMARK VINA RESULT:      -5.7     12.107     14.910
REMARK  4 active torsions:
REMARK  status: ('A' for Active; 'I' for Inactive)
REMARK    1  A    between atoms: S_1  and  C_6 
REMARK    2  A    between atoms: S_1  and  C_7 
REMARK    3  A    between atoms: N_4  and  C_16 
REMARK    4  A    between atoms: N_5  and  C_17 
ROOT
HETATM    1  S   UNK N   1      30.576  23.066  -3.558  0.00  0.00     0.206 S 
HETATM    2  O   UNK N   1      30.013  21.703  -3.125  0.00  0.00    -0.217 OA
HETATM    3  O   UNK N   1      30.607  23.588  -2.113  0.00  0.00    -0.217 OA
ENDROOT
BRANCH   1   4
HETATM    4  C   UNK N   1      32.214  22.328  -3.735  0.00  0.00     0.064 A 
HETATM    5  C   UNK N   1      32.638  21.286  -2.901  0.00  0.00     0.026 A 
HETATM    6  C   UNK N   1      33.890  20.690  -3.105  0.00  0.00     0.030 A 
HETATM    7  C   UNK N   1      34.720  21.125  -4.150  0.00  0.00     0.025 A 
HETATM    8  C   UNK N   1      34.293  22.157  -4.987  0.00  0.00     0.030 A 
HETATM    9  C   UNK N   1      33.050  22.749  -4.786  0.00  0.00     0.026 A 
BRANCH   7  10
HETATM   10  N   UNK N   1      35.973  20.525  -4.361  0.00  0.00    -0.399 N 
HETATM   11  H   UNK N   1      36.348  19.909  -3.691  0.00  0.00     0.156 HD
HETATM   12  H   UNK N   1      36.477  20.721  -5.183  0.00  0.00     0.156 HD
ENDBRANCH   7  10
ENDBRANCH   1   4
BRANCH   1  13
HETATM   13  C   UNK N   1      28.917  23.498  -4.114  0.00  0.00     0.064 A 
HETATM   14  C   UNK N   1      28.604  23.358  -5.473  0.00  0.00     0.026 A 
HETATM   15  C   UNK N   1      27.348  23.732  -5.956  0.00  0.00     0.030 A 
HETATM   16  C   UNK N   1      26.400  24.253  -5.080  0.00  0.00     0.025 A 
HETATM   17  C   UNK N   1      26.698  24.394  -3.719  0.00  0.00     0.030 A 
HETATM   18  C   UNK N   1      27.962  24.017  -3.234  0.00  0.00     0.026 A 
BRANCH  16  19
HETATM   19  N   UNK N   1      25.135  24.644  -5.572  0.00  0.00    -0.399 N 
HETATM   20  H   UNK N   1      24.977  25.575  -5.850  0.00  0.00     0.156 HD
HETATM   21  H   UNK N   1      24.408  23.983  -5.637  0.00  0.00     0.156 HD
ENDBRANCH  16  19
ENDBRANCH   1  13
TORSDOF 4
ENDMDL
MODEL 6
REMARK VINA RESULT:      -5.7      6.853     10.653
REMARK  4 active torsions:
REMARK  status: ('A' for Active; 'I' for Inactive)
REMARK    1  A    between atoms: S_1  and  C_6 
REMARK    2  A    between atoms: S_1  and  C_7 
REMARK    3  A    between atoms: N_4  and  C_16 
REMARK    4  A    between atoms: N_5  and  C_17 
ROOT
HETATM    1  S   UNK N   1      35.404  12.706  14.424  0.00  0.00     0.206 S 
HETATM    2  O   UNK N   1      36.214  11.399  14.413  0.00  0.00    -0.217 OA
HETATM    3  O   UNK N   1      34.113  11.989  14.000  0.00  0.00    -0.217 OA
ENDROOT
BRANCH   1   4
HETATM    4  C   UNK N   1      35.313  12.629  16.225  0.00  0.00     0.064 A 
HETATM    5  C   UNK N   1      35.415  11.410  16.908  0.00  0.00     0.026 A 
HETATM    6  C   UNK N   1      35.405  11.390  18.310  0.00  0.00     0.030 A 
HETATM    7  C   UNK N   1      35.304  12.587  19.035  0.00  0.00     0.025 A 
HETATM    8  C   UNK N   1      35.211  13.802  18.354  0.00  0.00     0.030 A 
HETATM    9  C   UNK N   1      35.222  13.824  16.962  0.00  0.00     0.026 A 
BRANCH   7  10
HETATM   10  N   UNK N   1      35.300  12.570  20.440  0.00  0.00    -0.399 N 
HETATM   11  H   UNK N   1      35.558  11.756  20.928  0.00  0.00     0.156 HD
HETATM   12  H   UNK N   1      35.039  13.378  20.938  0.00  0.00     0.156 HD
ENDBRANCH   7  10
ENDBRANCH   1   4
BRANCH   1  13
HETATM   13  C   UNK N   1      36.180  13.119  12.850  0.00  0.00     0.064 A 
HETATM   14  C   UNK N   1      37.212  12.300  12.371  0.00  0.00     0.026 A 
HETATM   15  C   UNK N   1      37.876  12.615  11.184  0.00  0.00     0.030 A 
HETATM   16  C   UNK N   1      37.514  13.755  10.472  0.00  0.00     0.025 A 
HETATM   17  C   UNK N   1      36.482  14.579  10.937  0.00  0.00     0.030 A 
HETATM   18  C   UNK N   1      35.813  14.262  12.131  0.00  0.00     0.026 A 
BRANCH  16  19
HETATM   19  N   UNK N   1      38.197  14.079   9.279  0.00  0.00    -0.399 N 
HETATM   20  H   UNK N   1      38.859  14.807   9.268  0.00  0.00     0.156 HD
HETATM   21  H   UNK N   1      38.009  13.575   8.454  0.00  0.00     0.156 HD
ENDBRANCH  16  19
ENDBRANCH   1  13
TORSDOF 4
ENDMDL
MODEL 7
REMARK VINA RESULT:      -5.7     13.061     15.679
REMARK  4 active torsions:
REMARK  status: ('A' for Active; 'I' for Inactive)
REMARK    1  A    between atoms: S_1  and  C_6 
REMARK    2  A    between atoms: S_1  and  C_7 
REMARK    3  A    between atoms: N_4  and  C_16 
REMARK    4  A    between atoms: N_5  and  C_17 
ROOT
HETATM    1  S   UNK N   1      28.002  24.718  -4.423  0.00  0.00     0.206 S 
HETATM    2  O   UNK N   1      27.417  24.285  -3.069  0.00  0.00    -0.217 OA
HETATM    3  O   UNK N   1      26.811  24.136  -5.200  0.00  0.00    -0.217 OA
ENDROOT
BRANCH   1   4
HETATM    4  C   UNK N   1      27.465  26.413  -4.108  0.00  0.00     0.064 A 
HETATM    5  C   UNK N   1      28.388  27.462  -4.004  0.00  0.00     0.026 A 
HETATM    6  C   UNK N   1      27.936  28.776  -3.823  0.00  0.00     0.030 A 
HETATM    7  C   UNK N   1      26.561  29.050  -3.757  0.00  0.00     0.025 A 
HETATM    8  C   UNK N   1      25.642  28.006  -3.871  0.00  0.00     0.030 A 
HETATM    9  C   UNK N   1      26.089  26.701  -4.051  0.00  0.00     0.026 A 
BRANCH   7  10
HETATM   10  N   UNK N   1      26.106  30.368  -3.583  0.00  0.00    -0.399 N 
HETATM   11  H   UNK N   1      25.208  30.539  -3.219  0.00  0.00     0.156 HD
HETATM   12  H   UNK N   1      26.689  31.124  -3.826  0.00  0.00     0.156 HD
ENDBRANCH   7  10
ENDBRANCH   1   4
BRANCH   1  13
HETATM   13  C   UNK N   1      29.135  23.321  -4.302  0.00  0.00     0.064 A 
HETATM   14  C   UNK N   1      29.360  22.535  -5.441  0.00  0.00     0.026 A 
HETATM   15  C   UNK N   1      30.187  21.412  -5.377  0.00  0.00     0.030 A 
HETATM   16  C   UNK N   1      30.790  21.067  -4.170  0.00  0.00     0.025 A 
HETATM   17  C   UNK N   1      30.577  21.846  -3.027  0.00  0.00     0.030 A 
HETATM   18  C   UNK N   1      29.745  22.976  -3.091  0.00  0.00     0.026 A 
BRANCH  16  19
HETATM   19  N   UNK N   1      31.615  19.922  -4.105  0.00  0.00    -0.399 N 
HETATM   20  H   UNK N   1      31.289  19.056  -4.441  0.00  0.00     0.156 HD
HETATM   21  H   UNK N   1      32.519  19.991  -3.721  0.00  0.00     0.156 HD
ENDBRANCH  16  19
ENDBRANCH   1  13
TORSDOF 4
ENDMDL
MODEL 8
REMARK VINA RESULT:      -5.6     13.408     16.404
REMARK  4 active torsions:
REMARK  status: ('A' for Active; 'I' for Inactive)
REMARK    1  A    between atoms: S_1  and  C_6 
REMARK    2  A    between atoms: S_1  and  C_7 
REMARK    3  A    between atoms: N_4  and  C_16 
REMARK    4  A    between atoms: N_5  and  C_17 
ROOT
HETATM    1  S   UNK N   1      27.873  24.762  -3.739  0.00  0.00     0.206 S 
HETATM    2  O   UNK N   1      27.009  24.470  -4.976  0.00  0.00    -0.217 OA
HETATM    3  O   UNK N   1      26.861  24.100  -2.792  0.00  0.00    -0.217 OA
ENDROOT
BRANCH   1   4
HETATM    4  C   UNK N   1      28.953  23.382  -4.173  0.00  0.00     0.064 A 
HETATM    5  C   UNK N   1      29.677  22.687  -3.195  0.00  0.00     0.026 A 
HETATM    6  C   UNK N   1      30.456  21.580  -3.556  0.00  0.00     0.030 A 
HETATM    7  C   UNK N   1      30.509  21.156  -4.892  0.00  0.00     0.025 A 
HETATM    8  C   UNK N   1      29.781  21.843  -5.865  0.00  0.00     0.030 A 
HETATM    9  C   UNK N   1      29.006  22.942  -5.508  0.00  0.00     0.026 A 
BRANCH   7  10
HETATM   10  N   UNK N   1      31.285  20.042  -5.255  0.00  0.00    -0.399 N 
HETATM   11  H   UNK N   1      31.510  19.355  -4.588  0.00  0.00     0.156 HD
HETATM   12  H   UNK N   1      31.604  19.949  -6.182  0.00  0.00     0.156 HD
ENDBRANCH   7  10
ENDBRANCH   1   4
BRANCH   1  13
HETATM   13  C   UNK N   1      27.298  26.468  -3.825  0.00  0.00     0.064 A 
HETATM   14  C   UNK N   1      28.221  27.502  -3.613  0.00  0.00     0.026 A 
HETATM   15  C   UNK N   1      27.808  28.836  -3.617  0.00  0.00     0.030 A 
HETATM   16  C   UNK N   1      26.466  29.141  -3.829  0.00  0.00     0.025 A 
HETATM   17  C   UNK N   1      25.535  28.119  -4.046  0.00  0.00     0.030 A 
HETATM   18  C   UNK N   1      25.951  26.777  -4.042  0.00  0.00     0.026 A 
BRANCH  16  19
HETATM   19  N   UNK N   1      26.047  30.490  -3.819  0.00  0.00    -0.399 N 
HETATM   20  H   UNK N   1      25.089  30.712  -3.777  0.00  0.00     0.156 HD
HETATM   21  H   UNK N   1      26.716  31.212  -3.854  0.00  0.00     0.156 HD
ENDBRANCH  16  19
ENDBRANCH   1  13
TORSDOF 4
ENDMDL
MODEL 9
REMARK VINA RESULT:      -5.6     11.974     13.658
REMARK  4 active torsions:
REMARK  status: ('A' for Active; 'I' for Inactive)
REMARK    1  A    between atoms: S_1  and  C_6 
REMARK    2  A    between atoms: S_1  and  C_7 
REMARK    3  A    between atoms: N_4  and  C_16 
REMARK    4  A    between atoms: N_5  and  C_17 
ROOT
HETATM    1  S   UNK N   1      30.263  22.899  -3.069  0.00  0.00     0.206 S 
HETATM    2  O   UNK N   1      31.312  23.983  -3.361  0.00  0.00    -0.217 OA
HETATM    3  O   UNK N   1      30.436  23.046  -1.549  0.00  0.00    -0.217 OA
ENDROOT
BRANCH   1   4
HETATM    4  C   UNK N   1      28.947  24.083  -3.423  0.00  0.00     0.064 A 
HETATM    5  C   UNK N   1      27.613  23.811  -3.091  0.00  0.00     0.026 A 
HETATM    6  C   UNK N   1      26.624  24.776  -3.320  0.00  0.00     0.030 A 
HETATM    7  C   UNK N   1      26.963  26.022  -3.871  0.00  0.00     0.025 A 
HETATM    8  C   UNK N   1      28.293  26.296  -4.193  0.00  0.00     0.030 A 
HETATM    9  C   UNK N   1      29.277  25.339  -3.965  0.00  0.00     0.026 A 
BRANCH   7  10
HETATM   10  N   UNK N   1      25.974  26.994  -4.096  0.00  0.00    -0.399 N 
HETATM   11  H   UNK N   1      26.082  27.904  -3.738  0.00  0.00     0.156 HD
HETATM   12  H   UNK N   1      25.169  26.763  -4.614  0.00  0.00     0.156 HD
ENDBRANCH   7  10
ENDBRANCH   1   4
BRANCH   1  13
HETATM   13  C   UNK N   1      31.509  21.672  -3.506  0.00  0.00     0.064 A 
HETATM   14  C   UNK N   1      31.206  20.726  -4.494  0.00  0.00     0.026 A 
HETATM   15  C   UNK N   1      32.121  19.724  -4.825  0.00  0.00     0.030 A 
HETATM   16  C   UNK N   1      33.345  19.664  -4.163  0.00  0.00     0.025 A 
HETATM   17  C   UNK N   1      33.663  20.606  -3.178  0.00  0.00     0.030 A 
HETATM   18  C   UNK N   1      32.741  21.613  -2.846  0.00  0.00     0.026 A 
BRANCH  16  19
HETATM   19  N   UNK N   1      34.264  18.642  -4.490  0.00  0.00    -0.399 N 
HETATM   20  H   UNK N   1      35.077  18.851  -5.005  0.00  0.00     0.156 HD
HETATM   21  H   UNK N   1      34.092  17.716  -4.202  0.00  0.00     0.156 HD
ENDBRANCH  16  19
ENDBRANCH   1  13
TORSDOF 4
ENDMDL
