MODEL 1
REMARK VINA RESULT:      -7.0      0.000      0.000
REMARK  28 active torsions:
REMARK  status: ('A' for Active; 'I' for Inactive)
REMARK    1  A    between atoms: O_15  and  C_81 
REMARK       I    between atoms: N_18  and  C_39 
REMARK       I    between atoms: N_19  and  C_38 
REMARK    2  A    between atoms: C_41  and  N_19 
REMARK       I    between atoms: N_21  and  C_45 
REMARK    3  A    between atoms: N_21  and  C_52 
REMARK    4  A    between atoms: N_23  and  C_50 
REMARK    5  A    between atoms: C_57  and  N_27 
REMARK       I    between atoms: N_27  and  C_70 
REMARK       I    between atoms: N_28  and  C_56 
REMARK       I    between atoms: N_29  and  C_61 
REMARK       I    between atoms: N_30  and  C_68 
REMARK    6  A    between atoms: N_31  and  C_73 
REMARK       I    between atoms: N_31  and  C_82 
REMARK    7  A    between atoms: N_32  and  C_83 
REMARK       I    between atoms: N_32  and  C_84 
REMARK    8  A    between atoms: N_33  and  C_85 
REMARK    9  A    between atoms: C_34  and  C_38 
REMARK   10  A    between atoms: C_40  and  C_39 
REMARK   11  A    between atoms: C_41  and  C_43 
REMARK   12  A    between atoms: C_41  and  C_45 
REMARK   13  A    between atoms: C_43  and  C_44 
REMARK   14  A    between atoms: C_44  and  C_48 
REMARK   15  A    between atoms: C_47  and  C_49 
REMARK   16  A    between atoms: C_48  and  C_50 
REMARK   17  A    between atoms: C_49  and  C_56 
REMARK   18  A    between atoms: C_51  and  C_55 
REMARK   19  A    between atoms: C_52  and  C_61 
REMARK   20  A    between atoms: C_55  and  C_62 
REMARK   21  A    between atoms: C_58  and  C_64 
REMARK   22  A    between atoms: C_60  and  C_66 
REMARK   23  A    between atoms: C_62  and  C_68 
REMARK   24  A    between atoms: C_64  and  C_67 
REMARK   25  A    between atoms: C_66  and  C_69 
REMARK   26  A    between atoms: C_70  and  C_73 
REMARK   27  A    between atoms: C_82  and  C_83 
REMARK   28  A    between atoms: C_84  and  C_85 
ROOT
HETATM    1  S   UNK N   1      27.227  14.445   2.133  0.00  0.00    -0.095 SA
HETATM    2  S   UNK N   1      29.147  14.824   2.935  0.00  0.00    -0.095 SA
HETATM    3  O   UNK N   1      23.573  18.523   4.875  0.00  0.00    -0.271 OA
HETATM    4  O   UNK N   1      28.102  18.600   4.191  0.00  0.00    -0.271 OA
HETATM    5  O   UNK N   1      31.757  17.077   4.982  0.00  0.00    -0.271 OA
HETATM    6  O   UNK N   1      32.214  11.469   1.931  0.00  0.00    -0.271 OA
HETATM    7  O   UNK N   1      34.893  14.549   4.185  0.00  0.00    -0.271 OA
HETATM    8  N   UNK N   1      24.925  16.924   4.172  0.00  0.00    -0.345 N 
HETATM    9  N   UNK N   1      26.987  18.109   6.077  0.00  0.00    -0.346 N 
HETATM   10  N   UNK N   1      29.874  16.502   6.031  0.00  0.00    -0.346 N 
HETATM   11  N   UNK N   1      33.134  15.001   5.453  0.00  0.00    -0.346 N 
HETATM   12  N   UNK N   1      31.887  13.188   3.327  0.00  0.00    -0.346 N 
HETATM   13  C   UNK N   1      26.190  16.263   4.074  0.00  0.00     0.186 C 
HETATM   14  C   UNK N   1      26.561  16.073   2.591  0.00  0.00     0.120 C 
HETATM   15  C   UNK N   1      24.700  18.056   4.883  0.00  0.00     0.241 C 
HETATM   16  C   UNK N   1      25.746  18.781   5.714  0.00  0.00     0.185 C 
HETATM   17  C   UNK N   1      29.438  17.873   5.966  0.00  0.00     0.177 C 
HETATM   18  C   UNK N   1      28.119  18.141   5.323  0.00  0.00     0.241 C 
HETATM   19  C   UNK N   1      29.873  14.123   1.426  0.00  0.00     0.120 C 
HETATM   20  C   UNK N   1      30.198  12.636   1.588  0.00  0.00     0.186 C 
HETATM   21  C   UNK N   1      31.736  14.860   5.773  0.00  0.00     0.180 C 
HETATM   22  C   UNK N   1      31.107  16.207   5.551  0.00  0.00     0.241 C 
HETATM   23  C   UNK N   1      33.152  12.983   3.981  0.00  0.00     0.180 C 
HETATM   24  C   UNK N   1      31.501  12.391   2.300  0.00  0.00     0.242 C 
HETATM   25  C   UNK N   1      33.761  14.248   4.527  0.00  0.00     0.241 C 
HETATM   26  H   UNK N   1      24.163  16.528   3.689  0.00  0.00     0.163 HD
HETATM   27  H   UNK N   1      27.008  17.603   6.921  0.00  0.00     0.163 HD
HETATM   28  H   UNK N   1      29.297  15.802   6.411  0.00  0.00     0.163 HD
HETATM   29  H   UNK N   1      33.658  15.682   5.934  0.00  0.00     0.163 HD
HETATM   30  H   UNK N   1      31.296  13.915   3.627  0.00  0.00     0.163 HD
ENDROOT
BRANCH  13  31
HETATM   31  C   UNK N   1      26.214  15.091   5.032  0.00  0.00     0.244 C 
HETATM   32  O   UNK N   1      27.173  14.978   5.773  0.00  0.00    -0.271 OA
HETATM   33  N   UNK N   1      25.184  14.202   5.104  0.00  0.00    -0.337 N 
HETATM   34  C   UNK N   1      24.210  14.108   4.075  0.00  0.00     0.179 C 
HETATM   35  C   UNK N   1      25.283  13.024   5.919  0.00  0.00     0.127 C 
HETATM   36  C   UNK N   1      24.186  12.615   3.781  0.00  0.00     0.037 C 
HETATM   37  C   UNK N   1      24.583  11.948   5.104  0.00  0.00     0.022 C 
BRANCH  34  38
HETATM   38  C   UNK N   1      22.837  14.579   4.443  0.00  0.00     0.241 C 
HETATM   39  O   UNK N   1      22.679  15.145   5.514  0.00  0.00    -0.271 OA
HETATM   40  N   UNK N   1      21.884  14.641   3.477  0.00  0.00    -0.346 N 
HETATM   41  H   UNK N   1      21.926  13.998   2.734  0.00  0.00     0.163 HD
BRANCH  40  42
HETATM   42  C   UNK N   1      20.809  15.611   3.494  0.00  0.00     0.176 C 
BRANCH  42  43
HETATM   43  C   UNK N   1      19.551  15.061   4.182  0.00  0.00     0.035 C 
BRANCH  43  44
HETATM   44  C   UNK N   1      19.053  15.937   5.336  0.00  0.00     0.004 C 
BRANCH  44  45
HETATM   45  C   UNK N   1      19.681  15.588   6.677  0.00  0.00     0.019 C 
BRANCH  45  46
HETATM   46  C   UNK N   1      20.170  16.836   7.390  0.00  0.00     0.111 C 
BRANCH  46  47
HETATM   47  N   UNK N   1      21.214  17.472   6.606  0.00  0.00    -0.430 N 
HETATM   48  H   UNK N   1      21.798  18.197   7.023  0.00  0.00     0.149 HD
HETATM   49  H   UNK N   1      21.363  17.193   5.637  0.00  0.00     0.149 HD
ENDBRANCH  46  47
ENDBRANCH  45  46
ENDBRANCH  44  45
ENDBRANCH  43  44
ENDBRANCH  42  43
BRANCH  42  50
HETATM   50  C   UNK N   1      20.494  16.273   2.185  0.00  0.00     0.240 C 
HETATM   51  O   UNK N   1      20.276  15.595   1.194  0.00  0.00    -0.271 OA
HETATM   52  N   UNK N   1      20.356  17.624   2.111  0.00  0.00    -0.351 N 
HETATM   53  H   UNK N   1      20.077  18.008   1.249  0.00  0.00     0.163 HD
BRANCH  52  54
HETATM   54  C   UNK N   1      20.593  18.543   3.214  0.00  0.00     0.225 C 
BRANCH  54  55
HETATM   55  C   UNK N   1      20.422  19.993   2.849  0.00  0.00     0.233 C 
HETATM   56  O   UNK N   1      20.326  20.826   3.735  0.00  0.00    -0.272 OA
HETATM   57  N   UNK N   1      20.359  20.378   1.559  0.00  0.00    -0.369 N 
HETATM   58  H   UNK N   1      20.321  21.121   0.914  0.00  0.00     0.159 HD
HETATM   59  H   UNK N   1      20.347  19.550   1.026  0.00  0.00     0.159 HD
ENDBRANCH  54  55
ENDBRANCH  52  54
ENDBRANCH  42  50
ENDBRANCH  40  42
ENDBRANCH  34  38
ENDBRANCH  13  31
BRANCH  16  60
HETATM   60  C   UNK N   1      25.962  20.227   5.259  0.00  0.00     0.137 C 
BRANCH  60  61
HETATM   61  C   UNK N   1      26.595  21.065   6.327  0.00  0.00     0.217 C 
HETATM   62  O   UNK N   1      26.132  21.089   7.455  0.00  0.00    -0.274 OA
HETATM   63  N   UNK N   1      27.699  21.780   6.045  0.00  0.00    -0.370 N 
HETATM   64  H   UNK N   1      27.806  22.262   5.193  0.00  0.00     0.159 HD
HETATM   65  H   UNK N   1      28.423  21.823   6.712  0.00  0.00     0.159 HD
ENDBRANCH  60  61
ENDBRANCH  16  60
BRANCH  20  66
HETATM   66  N   UNK N   1      29.050  11.834   2.014  0.00  0.00    -0.346 N 
HETATM   67  C   UNK N   1      28.332  10.969   1.245  0.00  0.00     0.236 C 
HETATM   68  O   UNK N   1      28.591  10.820   0.059  0.00  0.00    -0.272 OA
HETATM   69  H   UNK N   1      28.767  11.930   2.953  0.00  0.00     0.163 HD
BRANCH  67  70
HETATM   70  C   UNK N   1      27.211  10.173   1.858  0.00  0.00     0.225 C 
BRANCH  70  71
HETATM   71  N   UNK N   1      25.961  10.678   1.346  0.00  0.00    -0.351 N 
HETATM   72  C   UNK N   1      25.190  10.022   0.453  0.00  0.00     0.235 C 
HETATM   73  O   UNK N   1      25.586   9.007  -0.099  0.00  0.00    -0.272 OA
HETATM   74  H   UNK N   1      25.651  11.555   1.669  0.00  0.00     0.163 HD
BRANCH  72  75
HETATM   75  C   UNK N   1      23.794  10.500   0.233  0.00  0.00     0.225 C 
BRANCH  75  76
HETATM   76  N   UNK N   1      23.825  11.943   0.113  0.00  0.00    -0.351 N 
HETATM   77  C   UNK N   1      22.779  12.728   0.475  0.00  0.00     0.235 C 
HETATM   78  O   UNK N   1      22.896  13.942   0.432  0.00  0.00    -0.272 OA
HETATM   79  H   UNK N   1      24.637  12.370  -0.245  0.00  0.00     0.163 HD
BRANCH  77  80
HETATM   80  C   UNK N   1      21.482  12.132   0.931  0.00  0.00     0.214 C 
BRANCH  80  81
HETATM   81  N   UNK N   1      20.374  12.908   0.401  0.00  0.00    -0.422 N 
HETATM   82  H   UNK N   1      19.898  12.628  -0.456  0.00  0.00     0.150 HD
HETATM   83  H   UNK N   1      20.067  13.746   0.896  0.00  0.00     0.150 HD
ENDBRANCH  80  81
ENDBRANCH  77  80
ENDBRANCH  75  76
ENDBRANCH  72  75
ENDBRANCH  70  71
ENDBRANCH  67  70
ENDBRANCH  20  66
BRANCH  17  84
HETATM   84  C   UNK N   1      29.613  18.586   7.299  0.00  0.00     0.044 C 
BRANCH  84  85
HETATM   85  C   UNK N   1      29.636  17.577   8.440  0.00  0.00     0.105 C 
BRANCH  85  86
HETATM   86  C   UNK N   1      28.399  17.694   9.277  0.00  0.00     0.215 C 
HETATM   87  O   UNK N   1      28.151  16.856  10.128  0.00  0.00    -0.274 OA
HETATM   88  N   UNK N   1      27.551  18.724   9.084  0.00  0.00    -0.370 N 
HETATM   89  H   UNK N   1      26.888  19.211   9.623  0.00  0.00     0.159 HD
HETATM   90  H   UNK N   1      27.611  19.081   8.168  0.00  0.00     0.159 HD
ENDBRANCH  85  86
ENDBRANCH  84  85
ENDBRANCH  17  84
BRANCH  23  91
HETATM   91  C   UNK N   1      33.127  11.863   5.029  0.00  0.00     0.073 C 
BRANCH  91  92
HETATM   92  C   UNK N   1      34.517  11.336   5.015  0.00  0.00    -0.056 A 
HETATM   93  C   UNK N   1      35.097  11.014   3.784  0.00  0.00     0.010 A 
HETATM   94  C   UNK N   1      36.478  10.866   3.680  0.00  0.00     0.037 A 
HETATM   95  C   UNK N   1      37.287  11.071   4.800  0.00  0.00     0.065 A 
HETATM   96  C   UNK N   1      36.710  11.364   6.040  0.00  0.00     0.037 A 
HETATM   97  C   UNK N   1      35.325  11.506   6.147  0.00  0.00     0.010 A 
BRANCH  95  98
HETATM   98  O   UNK N   1      38.620  11.001   4.680  0.00  0.00    -0.361 OA
HETATM   99  H   UNK N   1      39.015  10.289   4.216  0.00  0.00     0.217 HD
ENDBRANCH  95  98
ENDBRANCH  91  92
ENDBRANCH  23  91
BRANCH  21 100
HETATM  100  C   UNK N   1      31.571  14.367   7.205  0.00  0.00     0.073 C 
BRANCH 100 101
HETATM  101  C   UNK N   1      32.768  14.771   8.004  0.00  0.00    -0.056 A 
HETATM  102  C   UNK N   1      33.718  13.817   8.382  0.00  0.00     0.007 A 
HETATM  103  C   UNK N   1      34.841  14.203   9.122  0.00  0.00     0.001 A 
HETATM  104  C   UNK N   1      35.013  15.543   9.485  0.00  0.00     0.000 A 
HETATM  105  C   UNK N   1      34.068  16.499   9.105  0.00  0.00     0.001 A 
HETATM  106  C   UNK N   1      32.946  16.113   8.369  0.00  0.00     0.007 A 
ENDBRANCH 100 101
ENDBRANCH  21 100
TORSDOF 28
ENDMDL
MODEL 2
REMARK VINA RESULT:      -6.9      2.853      9.597
REMARK  28 active torsions:
REMARK  status: ('A' for Active; 'I' for Inactive)
REMARK    1  A    between atoms: O_15  and  C_81 
REMARK       I    between atoms: N_18  and  C_39 
REMARK       I    between atoms: N_19  and  C_38 
REMARK    2  A    between atoms: C_41  and  N_19 
REMARK       I    between atoms: N_21  and  C_45 
REMARK    3  A    between atoms: N_21  and  C_52 
REMARK    4  A    between atoms: N_23  and  C_50 
REMARK    5  A    between atoms: C_57  and  N_27 
REMARK       I    between atoms: N_27  and  C_70 
REMARK       I    between atoms: N_28  and  C_56 
REMARK       I    between atoms: N_29  and  C_61 
REMARK       I    between atoms: N_30  and  C_68 
REMARK    6  A    between atoms: N_31  and  C_73 
REMARK       I    between atoms: N_31  and  C_82 
REMARK    7  A    between atoms: N_32  and  C_83 
REMARK       I    between atoms: N_32  and  C_84 
REMARK    8  A    between atoms: N_33  and  C_85 
REMARK    9  A    between atoms: C_34  and  C_38 
REMARK   10  A    between atoms: C_40  and  C_39 
REMARK   11  A    between atoms: C_41  and  C_43 
REMARK   12  A    between atoms: C_41  and  C_45 
REMARK   13  A    between atoms: C_43  and  C_44 
REMARK   14  A    between atoms: C_44  and  C_48 
REMARK   15  A    between atoms: C_47  and  C_49 
REMARK   16  A    between atoms: C_48  and  C_50 
REMARK   17  A    between atoms: C_49  and  C_56 
REMARK   18  A    between atoms: C_51  and  C_55 
REMARK   19  A    between atoms: C_52  and  C_61 
REMARK   20  A    between atoms: C_55  and  C_62 
REMARK   21  A    between atoms: C_58  and  C_64 
REMARK   22  A    between atoms: C_60  and  C_66 
REMARK   23  A    between atoms: C_62  and  C_68 
REMARK   24  A    between atoms: C_64  and  C_67 
REMARK   25  A    between atoms: C_66  and  C_69 
REMARK   26  A    between atoms: C_70  and  C_73 
REMARK   27  A    between atoms: C_82  and  C_83 
REMARK   28  A    between atoms: C_84  and  C_85 
ROOT
HETATM    1  S   UNK N   1      25.386  14.645   2.194  0.00  0.00    -0.095 SA
HETATM    2  S   UNK N   1      25.324  12.557   1.865  0.00  0.00    -0.095 SA
HETATM    3  O   UNK N   1      31.226  15.811   3.624  0.00  0.00    -0.271 OA
HETATM    4  O   UNK N   1      29.392  12.316   1.298  0.00  0.00    -0.271 OA
HETATM    5  O   UNK N   1      27.083   9.005   1.261  0.00  0.00    -0.271 OA
HETATM    6  O   UNK N   1      20.980  10.900   1.622  0.00  0.00    -0.271 OA
HETATM    7  O   UNK N   1      23.497   7.078   0.725  0.00  0.00    -0.271 OA
HETATM    8  N   UNK N   1      29.109  15.231   3.380  0.00  0.00    -0.345 N 
HETATM    9  N   UNK N   1      30.104  12.350   3.427  0.00  0.00    -0.346 N 
HETATM   10  N   UNK N   1      27.678  10.131   3.091  0.00  0.00    -0.346 N 
HETATM   11  N   UNK N   1      25.003   7.857   2.149  0.00  0.00    -0.346 N 
HETATM   12  N   UNK N   1      23.096  10.240   1.936  0.00  0.00    -0.346 N 
HETATM   13  C   UNK N   1      28.053  14.292   3.151  0.00  0.00     0.186 C 
HETATM   14  C   UNK N   1      27.187  14.768   1.969  0.00  0.00     0.120 C 
HETATM   15  C   UNK N   1      30.425  14.911   3.431  0.00  0.00     0.241 C 
HETATM   16  C   UNK N   1      30.983  13.505   3.288  0.00  0.00     0.185 C 
HETATM   17  C   UNK N   1      28.976  10.361   2.508  0.00  0.00     0.177 C 
HETATM   18  C   UNK N   1      29.432  11.776   2.393  0.00  0.00     0.241 C 
HETATM   19  C   UNK N   1      23.885  12.809   0.787  0.00  0.00     0.120 C 
HETATM   20  C   UNK N   1      22.568  12.637   1.547  0.00  0.00     0.186 C 
HETATM   21  C   UNK N   1      25.512   8.895   3.010  0.00  0.00     0.180 C 
HETATM   22  C   UNK N   1      26.798   9.372   2.395  0.00  0.00     0.241 C 
HETATM   23  C   UNK N   1      22.716   8.857   2.049  0.00  0.00     0.180 C 
HETATM   24  C   UNK N   1      22.163  11.198   1.710  0.00  0.00     0.242 C 
HETATM   25  C   UNK N   1      23.781   7.899   1.582  0.00  0.00     0.241 C 
HETATM   26  H   UNK N   1      28.862  16.175   3.509  0.00  0.00     0.163 HD
HETATM   27  H   UNK N   1      29.991  11.961   4.324  0.00  0.00     0.163 HD
HETATM   28  H   UNK N   1      27.439  10.513   3.966  0.00  0.00     0.163 HD
HETATM   29  H   UNK N   1      25.578   7.079   1.964  0.00  0.00     0.163 HD
HETATM   30  H   UNK N   1      24.043  10.494   2.024  0.00  0.00     0.163 HD
ENDROOT
BRANCH  13  31
HETATM   31  C   UNK N   1      27.418  13.926   4.475  0.00  0.00     0.244 C 
HETATM   32  O   UNK N   1      27.373  12.749   4.782  0.00  0.00    -0.271 OA
HETATM   33  N   UNK N   1      26.941  14.875   5.330  0.00  0.00    -0.337 N 
HETATM   34  C   UNK N   1      26.691  16.205   4.898  0.00  0.00     0.179 C 
HETATM   35  C   UNK N   1      26.222  14.504   6.516  0.00  0.00     0.127 C 
HETATM   36  C   UNK N   1      25.273  16.450   5.394  0.00  0.00     0.037 C 
HETATM   37  C   UNK N   1      25.131  15.557   6.634  0.00  0.00     0.022 C 
BRANCH  34  38
HETATM   38  C   UNK N   1      27.614  17.245   5.454  0.00  0.00     0.241 C 
HETATM   39  O   UNK N   1      28.635  17.512   4.839  0.00  0.00    -0.271 OA
HETATM   40  N   UNK N   1      27.161  18.065   6.437  0.00  0.00    -0.346 N 
HETATM   41  H   UNK N   1      26.486  17.719   7.064  0.00  0.00     0.163 HD
BRANCH  40  42
HETATM   42  C   UNK N   1      27.628  19.426   6.604  0.00  0.00     0.176 C 
BRANCH  42  43
HETATM   43  C   UNK N   1      28.517  19.579   7.846  0.00  0.00     0.035 C 
BRANCH  43  44
HETATM   44  C   UNK N   1      28.673  18.283   8.648  0.00  0.00     0.004 C 
BRANCH  44  45
HETATM   45  C   UNK N   1      30.122  17.918   8.936  0.00  0.00     0.019 C 
BRANCH  45  46
HETATM   46  C   UNK N   1      30.649  16.931   7.910  0.00  0.00     0.111 C 
BRANCH  46  47
HETATM   47  N   UNK N   1      31.628  16.056   8.529  0.00  0.00    -0.430 N 
HETATM   48  H   UNK N   1      32.063  15.310   7.985  0.00  0.00     0.149 HD
HETATM   49  H   UNK N   1      31.880  16.186   9.508  0.00  0.00     0.149 HD
ENDBRANCH  46  47
ENDBRANCH  45  46
ENDBRANCH  44  45
ENDBRANCH  43  44
ENDBRANCH  42  43
BRANCH  42  50
HETATM   50  C   UNK N   1      26.582  20.499   6.521  0.00  0.00     0.240 C 
HETATM   51  O   UNK N   1      26.141  21.003   7.542  0.00  0.00    -0.271 OA
HETATM   52  N   UNK N   1      26.188  20.987   5.314  0.00  0.00    -0.351 N 
HETATM   53  H   UNK N   1      25.555  21.741   5.311  0.00  0.00     0.163 HD
BRANCH  52  54
HETATM   54  C   UNK N   1      26.632  20.472   4.027  0.00  0.00     0.225 C 
BRANCH  54  55
HETATM   55  C   UNK N   1      25.514  20.202   3.058  0.00  0.00     0.233 C 
HETATM   56  O   UNK N   1      25.399  20.903   2.066  0.00  0.00    -0.272 OA
HETATM   57  N   UNK N   1      24.632  19.208   3.281  0.00  0.00    -0.369 N 
HETATM   58  H   UNK N   1      23.871  18.681   2.945  0.00  0.00     0.159 HD
HETATM   59  H   UNK N   1      24.841  18.850   4.174  0.00  0.00     0.159 HD
ENDBRANCH  54  55
ENDBRANCH  52  54
ENDBRANCH  42  50
ENDBRANCH  40  42
ENDBRANCH  34  38
ENDBRANCH  13  31
BRANCH  16  60
HETATM   60  C   UNK N   1      31.958  13.373   2.115  0.00  0.00     0.137 C 
BRANCH  60  61
HETATM   61  C   UNK N   1      33.361  13.726   2.505  0.00  0.00     0.217 C 
HETATM   62  O   UNK N   1      34.179  14.049   1.660  0.00  0.00    -0.274 OA
HETATM   63  N   UNK N   1      33.714  13.711   3.803  0.00  0.00    -0.370 N 
HETATM   64  H   UNK N   1      33.407  13.008   4.419  0.00  0.00     0.159 HD
HETATM   65  H   UNK N   1      34.299  14.426   4.147  0.00  0.00     0.159 HD
ENDBRANCH  60  61
ENDBRANCH  16  60
BRANCH  20  66
HETATM   66  N   UNK N   1      22.465  13.492   2.731  0.00  0.00    -0.346 N 
HETATM   67  C   UNK N   1      21.349  14.134   3.177  0.00  0.00     0.236 C 
HETATM   68  O   UNK N   1      20.296  14.065   2.559  0.00  0.00    -0.272 OA
HETATM   69  H   UNK N   1      23.287  13.616   3.259  0.00  0.00     0.163 HD
BRANCH  67  70
HETATM   70  C   UNK N   1      21.401  14.929   4.453  0.00  0.00     0.225 C 
BRANCH  70  71
HETATM   71  N   UNK N   1      20.701  16.172   4.243  0.00  0.00    -0.351 N 
HETATM   72  C   UNK N   1      21.286  17.302   3.791  0.00  0.00     0.235 C 
HETATM   73  O   UNK N   1      22.500  17.382   3.672  0.00  0.00    -0.272 OA
HETATM   74  H   UNK N   1      19.737  16.199   4.441  0.00  0.00     0.163 HD
BRANCH  72  75
HETATM   75  C   UNK N   1      20.412  18.421   3.333  0.00  0.00     0.225 C 
BRANCH  75  76
HETATM   76  N   UNK N   1      21.133  19.663   3.525  0.00  0.00    -0.351 N 
HETATM   77  C   UNK N   1      21.397  20.519   2.505  0.00  0.00     0.235 C 
HETATM   78  O   UNK N   1      21.932  21.590   2.741  0.00  0.00    -0.272 OA
HETATM   79  H   UNK N   1      21.444  19.895   4.430  0.00  0.00     0.163 HD
BRANCH  77  80
HETATM   80  C   UNK N   1      21.039  20.175   1.091  0.00  0.00     0.214 C 
BRANCH  80  81
HETATM   81  N   UNK N   1      20.281  21.262   0.499  0.00  0.00    -0.422 N 
HETATM   82  H   UNK N   1      19.324  21.122   0.176  0.00  0.00     0.150 HD
HETATM   83  H   UNK N   1      20.713  22.182   0.404  0.00  0.00     0.150 HD
ENDBRANCH  80  81
ENDBRANCH  77  80
ENDBRANCH  75  76
ENDBRANCH  72  75
ENDBRANCH  70  71
ENDBRANCH  67  70
ENDBRANCH  20  66
BRANCH  17  84
HETATM   84  C   UNK N   1      30.031   9.434   3.095  0.00  0.00     0.044 C 
BRANCH  84  85
HETATM   85  C   UNK N   1      29.578   8.908   4.451  0.00  0.00     0.105 C 
BRANCH  85  86
HETATM   86  C   UNK N   1      30.409   9.494   5.552  0.00  0.00     0.215 C 
HETATM   87  O   UNK N   1      31.076  10.495   5.352  0.00  0.00    -0.274 OA
HETATM   88  N   UNK N   1      30.426   8.908   6.765  0.00  0.00    -0.370 N 
HETATM   89  H   UNK N   1      30.597   9.194   7.691  0.00  0.00     0.159 HD
HETATM   90  H   UNK N   1      30.211   7.949   6.712  0.00  0.00     0.159 HD
ENDBRANCH  85  86
ENDBRANCH  84  85
ENDBRANCH  17  84
BRANCH  23  91
HETATM   91  C   UNK N   1      22.178   8.479   3.435  0.00  0.00     0.073 C 
BRANCH  91  92
HETATM   92  C   UNK N   1      21.200   7.396   3.151  0.00  0.00    -0.056 A 
HETATM   93  C   UNK N   1      20.245   7.604   2.149  0.00  0.00     0.010 A 
HETATM   94  C   UNK N   1      19.558   6.523   1.604  0.00  0.00     0.037 A 
HETATM   95  C   UNK N   1      19.844   5.226   2.036  0.00  0.00     0.065 A 
HETATM   96  C   UNK N   1      20.775   5.015   3.058  0.00  0.00     0.037 A 
HETATM   97  C   UNK N   1      21.461   6.099   3.610  0.00  0.00     0.010 A 
BRANCH  95  98
HETATM   98  O   UNK N   1      19.235   4.182   1.458  0.00  0.00    -0.361 OA
HETATM   99  H   UNK N   1      19.224   3.347   1.884  0.00  0.00     0.217 HD
ENDBRANCH  95  98
ENDBRANCH  91  92
ENDBRANCH  23  91
BRANCH  21 100
HETATM  100  C   UNK N   1      25.704   8.358   4.423  0.00  0.00     0.073 C 
BRANCH 100 101
HETATM  101  C   UNK N   1      24.954   9.224   5.384  0.00  0.00    -0.056 A 
HETATM  102  C   UNK N   1      24.777  10.585   5.116  0.00  0.00     0.007 A 
HETATM  103  C   UNK N   1      24.067  11.388   6.015  0.00  0.00     0.001 A 
HETATM  104  C   UNK N   1      23.533  10.830   7.181  0.00  0.00     0.000 A 
HETATM  105  C   UNK N   1      23.704   9.470   7.449  0.00  0.00     0.001 A 
HETATM  106  C   UNK N   1      24.415   8.669   6.554  0.00  0.00     0.007 A 
ENDBRANCH 100 101
ENDBRANCH  21 100
TORSDOF 28
ENDMDL
MODEL 3
REMARK VINA RESULT:      -6.9      3.979     10.831
REMARK  28 active torsions:
REMARK  status: ('A' for Active; 'I' for Inactive)
REMARK    1  A    between atoms: O_15  and  C_81 
REMARK       I    between atoms: N_18  and  C_39 
REMARK       I    between atoms: N_19  and  C_38 
REMARK    2  A    between atoms: C_41  and  N_19 
REMARK       I    between atoms: N_21  and  C_45 
REMARK    3  A    between atoms: N_21  and  C_52 
REMARK    4  A    between atoms: N_23  and  C_50 
REMARK    5  A    between atoms: C_57  and  N_27 
REMARK       I    between atoms: N_27  and  C_70 
REMARK       I    between atoms: N_28  and  C_56 
REMARK       I    between atoms: N_29  and  C_61 
REMARK       I    between atoms: N_30  and  C_68 
REMARK    6  A    between atoms: N_31  and  C_73 
REMARK       I    between atoms: N_31  and  C_82 
REMARK    7  A    between atoms: N_32  and  C_83 
REMARK       I    between atoms: N_32  and  C_84 
REMARK    8  A    between atoms: N_33  and  C_85 
REMARK    9  A    between atoms: C_34  and  C_38 
REMARK   10  A    between atoms: C_40  and  C_39 
REMARK   11  A    between atoms: C_41  and  C_43 
REMARK   12  A    between atoms: C_41  and  C_45 
REMARK   13  A    between atoms: C_43  and  C_44 
REMARK   14  A    between atoms: C_44  and  C_48 
REMARK   15  A    between atoms: C_47  and  C_49 
REMARK   16  A    between atoms: C_48  and  C_50 
REMARK   17  A    between atoms: C_49  and  C_56 
REMARK   18  A    between atoms: C_51  and  C_55 
REMARK   19  A    between atoms: C_52  and  C_61 
REMARK   20  A    between atoms: C_55  and  C_62 
REMARK   21  A    between atoms: C_58  and  C_64 
REMARK   22  A    between atoms: C_60  and  C_66 
REMARK   23  A    between atoms: C_62  and  C_68 
REMARK   24  A    between atoms: C_64  and  C_67 
REMARK   25  A    between atoms: C_66  and  C_69 
REMARK   26  A    between atoms: C_70  and  C_73 
REMARK   27  A    between atoms: C_82  and  C_83 
REMARK   28  A    between atoms: C_84  and  C_85 
ROOT
HETATM    1  S   UNK N   1      25.115  12.930   6.505  0.00  0.00    -0.095 SA
HETATM    2  S   UNK N   1      23.151  13.315   5.822  0.00  0.00    -0.095 SA
HETATM    3  O   UNK N   1      28.259  17.997   5.110  0.00  0.00    -0.271 OA
HETATM    4  O   UNK N   1      23.762  17.383   5.726  0.00  0.00    -0.271 OA
HETATM    5  O   UNK N   1      20.277  15.768   4.480  0.00  0.00    -0.271 OA
HETATM    6  O   UNK N   1      20.481   9.502   5.770  0.00  0.00    -0.271 OA
HETATM    7  O   UNK N   1      17.446  12.795   4.469  0.00  0.00    -0.271 OA
HETATM    8  N   UNK N   1      27.100  16.126   5.302  0.00  0.00    -0.345 N 
HETATM    9  N   UNK N   1      24.887  17.582   3.794  0.00  0.00    -0.346 N 
HETATM   10  N   UNK N   1      22.191  15.728   3.335  0.00  0.00    -0.346 N 
HETATM   11  N   UNK N   1      19.122  13.781   3.410  0.00  0.00    -0.346 N 
HETATM   12  N   UNK N   1      20.595  11.577   4.937  0.00  0.00    -0.346 N 
HETATM   13  C   UNK N   1      25.915  15.333   5.187  0.00  0.00     0.186 C 
HETATM   14  C   UNK N   1      25.594  14.683   6.547  0.00  0.00     0.120 C 
HETATM   15  C   UNK N   1      27.189  17.433   4.952  0.00  0.00     0.241 C 
HETATM   16  C   UNK N   1      26.056  18.250   4.353  0.00  0.00     0.185 C 
HETATM   17  C   UNK N   1      22.479  17.061   3.800  0.00  0.00     0.177 C 
HETATM   18  C   UNK N   1      23.773  17.272   4.510  0.00  0.00     0.241 C 
HETATM   19  C   UNK N   1      22.533  12.133   7.053  0.00  0.00     0.120 C 
HETATM   20  C   UNK N   1      22.366  10.731   6.463  0.00  0.00     0.186 C 
HETATM   21  C   UNK N   1      20.521  13.890   3.082  0.00  0.00     0.180 C 
HETATM   22  C   UNK N   1      21.006  15.175   3.692  0.00  0.00     0.241 C 
HETATM   23  C   UNK N   1      19.348  11.434   4.235  0.00  0.00     0.180 C 
HETATM   24  C   UNK N   1      21.084  10.563   5.693  0.00  0.00     0.242 C 
HETATM   25  C   UNK N   1      18.597  12.729   4.070  0.00  0.00     0.241 C 
HETATM   26  H   UNK N   1      27.908  15.693   5.660  0.00  0.00     0.163 HD
HETATM   27  H   UNK N   1      24.905  17.342   2.840  0.00  0.00     0.163 HD
HETATM   28  H   UNK N   1      22.832  15.234   2.776  0.00  0.00     0.163 HD
HETATM   29  H   UNK N   1      18.519  14.511   3.140  0.00  0.00     0.163 HD
HETATM   30  H   UNK N   1      21.100  12.419   4.868  0.00  0.00     0.163 HD
ENDROOT
BRANCH  13  31
HETATM   31  C   UNK N   1      25.999  14.493   3.931  0.00  0.00     0.244 C 
HETATM   32  O   UNK N   1      25.062  14.530   3.155  0.00  0.00    -0.271 OA
HETATM   33  N   UNK N   1      27.099  13.742   3.642  0.00  0.00    -0.337 N 
HETATM   34  C   UNK N   1      28.064  13.425   4.635  0.00  0.00     0.179 C 
HETATM   35  C   UNK N   1      27.107  12.849   2.518  0.00  0.00     0.127 C 
HETATM   36  C   UNK N   1      28.206  11.917   4.484  0.00  0.00     0.037 C 
HETATM   37  C   UNK N   1      27.882  11.636   3.011  0.00  0.00     0.022 C 
BRANCH  34  38
HETATM   38  C   UNK N   1      29.398  14.083   4.468  0.00  0.00     0.241 C 
HETATM   39  O   UNK N   1      29.472  15.094   3.787  0.00  0.00    -0.271 OA
HETATM   40  N   UNK N   1      30.411  13.731   5.301  0.00  0.00    -0.346 N 
HETATM   41  H   UNK N   1      30.433  12.812   5.653  0.00  0.00     0.163 HD
BRANCH  40  42
HETATM   42  C   UNK N   1      31.461  14.648   5.695  0.00  0.00     0.176 C 
BRANCH  42  43
HETATM   43  C   UNK N   1      32.759  14.404   4.911  0.00  0.00     0.035 C 
BRANCH  43  44
HETATM   44  C   UNK N   1      33.058  15.489   3.871  0.00  0.00     0.004 C 
BRANCH  44  45
HETATM   45  C   UNK N   1      33.166  16.885   4.465  0.00  0.00     0.019 C 
BRANCH  45  46
HETATM   46  C   UNK N   1      32.086  17.797   3.912  0.00  0.00     0.111 C 
BRANCH  46  47
HETATM   47  N   UNK N   1      31.443  17.163   2.775  0.00  0.00    -0.430 N 
HETATM   48  H   UNK N   1      30.440  16.981   2.789  0.00  0.00     0.149 HD
HETATM   49  H   UNK N   1      31.997  16.899   1.960  0.00  0.00     0.149 HD
ENDBRANCH  46  47
ENDBRANCH  45  46
ENDBRANCH  44  45
ENDBRANCH  43  44
ENDBRANCH  42  43
BRANCH  42  50
HETATM   50  C   UNK N   1      31.707  14.780   7.169  0.00  0.00     0.240 C 
HETATM   51  O   UNK N   1      32.282  13.889   7.775  0.00  0.00    -0.271 OA
HETATM   52  N   UNK N   1      31.380  15.927   7.823  0.00  0.00    -0.351 N 
HETATM   53  H   UNK N   1      31.626  15.996   8.773  0.00  0.00     0.163 HD
BRANCH  52  54
HETATM   54  C   UNK N   1      30.690  17.056   7.220  0.00  0.00     0.225 C 
BRANCH  54  55
HETATM   55  C   UNK N   1      30.004  17.955   8.213  0.00  0.00     0.233 C 
HETATM   56  O   UNK N   1      30.521  18.149   9.301  0.00  0.00    -0.272 OA
HETATM   57  N   UNK N   1      28.823  18.534   7.921  0.00  0.00    -0.369 N 
HETATM   58  H   UNK N   1      28.117  19.166   8.191  0.00  0.00     0.159 HD
HETATM   59  H   UNK N   1      28.541  18.162   7.054  0.00  0.00     0.159 HD
ENDBRANCH  54  55
ENDBRANCH  52  54
ENDBRANCH  42  50
ENDBRANCH  40  42
ENDBRANCH  34  38
ENDBRANCH  13  31
BRANCH  16  60
HETATM   60  C   UNK N   1      25.695  19.471   5.204  0.00  0.00     0.137 C 
BRANCH  60  61
HETATM   61  C   UNK N   1      26.615  20.626   4.952  0.00  0.00     0.217 C 
HETATM   62  O   UNK N   1      26.731  21.095   3.832  0.00  0.00    -0.274 OA
HETATM   63  N   UNK N   1      27.301  21.166   5.975  0.00  0.00    -0.370 N 
HETATM   64  H   UNK N   1      27.712  20.613   6.678  0.00  0.00     0.159 HD
HETATM   65  H   UNK N   1      27.395  22.145   6.022  0.00  0.00     0.159 HD
ENDBRANCH  60  61
ENDBRANCH  16  60
BRANCH  20  66
HETATM   66  N   UNK N   1      23.585  10.216   5.838  0.00  0.00    -0.346 N 
HETATM   67  C   UNK N   1      24.260   9.083   6.183  0.00  0.00     0.236 C 
HETATM   68  O   UNK N   1      23.889   8.394   7.123  0.00  0.00    -0.272 OA
HETATM   69  H   UNK N   1      23.957  10.741   5.093  0.00  0.00     0.163 HD
BRANCH  67  70
HETATM   70  C   UNK N   1      25.470   8.661   5.395  0.00  0.00     0.225 C 
BRANCH  70  71
HETATM   71  N   UNK N   1      26.105   7.567   6.086  0.00  0.00    -0.351 N 
HETATM   72  C   UNK N   1      26.167   6.306   5.609  0.00  0.00     0.235 C 
HETATM   73  O   UNK N   1      25.545   5.977   4.610  0.00  0.00    -0.272 OA
HETATM   74  H   UNK N   1      26.521   7.751   6.960  0.00  0.00     0.163 HD
BRANCH  72  75
HETATM   75  C   UNK N   1      27.100   5.342   6.263  0.00  0.00     0.225 C 
BRANCH  75  76
HETATM   76  N   UNK N   1      27.716   6.009   7.392  0.00  0.00    -0.351 N 
HETATM   77  C   UNK N   1      27.580   5.562   8.666  0.00  0.00     0.235 C 
HETATM   78  O   UNK N   1      28.193   6.114   9.566  0.00  0.00    -0.272 OA
HETATM   79  H   UNK N   1      28.254   6.817   7.228  0.00  0.00     0.163 HD
BRANCH  77  80
HETATM   80  C   UNK N   1      26.693   4.398   8.990  0.00  0.00     0.214 C 
BRANCH  80  81
HETATM   81  N   UNK N   1      25.403   4.880   9.450  0.00  0.00    -0.422 N 
HETATM   82  H   UNK N   1      25.335   5.591  10.178  0.00  0.00     0.150 HD
HETATM   83  H   UNK N   1      24.550   4.501   9.038  0.00  0.00     0.150 HD
ENDBRANCH  80  81
ENDBRANCH  77  80
ENDBRANCH  75  76
ENDBRANCH  72  75
ENDBRANCH  70  71
ENDBRANCH  67  70
ENDBRANCH  20  66
BRANCH  17  84
HETATM   84  C   UNK N   1      22.203  18.105   2.728  0.00  0.00     0.044 C 
BRANCH  84  85
HETATM   85  C   UNK N   1      21.338  19.226   3.291  0.00  0.00     0.105 C 
BRANCH  85  86
HETATM   86  C   UNK N   1      21.350  20.415   2.379  0.00  0.00     0.215 C 
HETATM   87  O   UNK N   1      22.059  21.375   2.630  0.00  0.00    -0.274 OA
HETATM   88  N   UNK N   1      20.568  20.428   1.281  0.00  0.00    -0.370 N 
HETATM   89  H   UNK N   1      20.581  20.872   0.403  0.00  0.00     0.159 HD
HETATM   90  H   UNK N   1      19.784  19.842   1.383  0.00  0.00     0.159 HD
ENDBRANCH  85  86
ENDBRANCH  84  85
ENDBRANCH  17  84
BRANCH  23  91
HETATM   91  C   UNK N   1      19.473  10.675   2.907  0.00  0.00     0.073 C 
BRANCH  91  92
HETATM   92  C   UNK N   1      18.682   9.437   3.133  0.00  0.00    -0.056 A 
HETATM   93  C   UNK N   1      19.258   8.205   2.804  0.00  0.00     0.010 A 
HETATM   94  C   UNK N   1      18.725   7.025   3.317  0.00  0.00     0.037 A 
HETATM   95  C   UNK N   1      17.632   7.075   4.184  0.00  0.00     0.065 A 
HETATM   96  C   UNK N   1      17.032   8.300   4.493  0.00  0.00     0.037 A 
HETATM   97  C   UNK N   1      17.563   9.484   3.975  0.00  0.00     0.010 A 
BRANCH  95  98
HETATM   98  O   UNK N   1      17.167   5.944   4.734  0.00  0.00    -0.361 OA
HETATM   99  H   UNK N   1      16.301   5.915   5.090  0.00  0.00     0.217 HD
ENDBRANCH  95  98
ENDBRANCH  91  92
ENDBRANCH  23  91
BRANCH  21 100
HETATM  100  C   UNK N   1      20.711  13.853   1.571  0.00  0.00     0.073 C 
BRANCH 100 101
HETATM  101  C   UNK N   1      21.947  13.076   1.250  0.00  0.00    -0.056 A 
HETATM  102  C   UNK N   1      22.444  12.135   2.157  0.00  0.00     0.007 A 
HETATM  103  C   UNK N   1      23.596  11.405   1.847  0.00  0.00     0.001 A 
HETATM  104  C   UNK N   1      24.251  11.615   0.629  0.00  0.00     0.000 A 
HETATM  105  C   UNK N   1      23.755  12.551  -0.281  0.00  0.00     0.001 A 
HETATM  106  C   UNK N   1      22.607  13.282   0.029  0.00  0.00     0.007 A 
ENDBRANCH 100 101
ENDBRANCH  21 100
TORSDOF 28
ENDMDL
MODEL 4
REMARK VINA RESULT:      -6.7      4.017     11.106
REMARK  28 active torsions:
REMARK  status: ('A' for Active; 'I' for Inactive)
REMARK    1  A    between atoms: O_15  and  C_81 
REMARK       I    between atoms: N_18  and  C_39 
REMARK       I    between atoms: N_19  and  C_38 
REMARK    2  A    between atoms: C_41  and  N_19 
REMARK       I    between atoms: N_21  and  C_45 
REMARK    3  A    between atoms: N_21  and  C_52 
REMARK    4  A    between atoms: N_23  and  C_50 
REMARK    5  A    between atoms: C_57  and  N_27 
REMARK       I    between atoms: N_27  and  C_70 
REMARK       I    between atoms: N_28  and  C_56 
REMARK       I    between atoms: N_29  and  C_61 
REMARK       I    between atoms: N_30  and  C_68 
REMARK    6  A    between atoms: N_31  and  C_73 
REMARK       I    between atoms: N_31  and  C_82 
REMARK    7  A    between atoms: N_32  and  C_83 
REMARK       I    between atoms: N_32  and  C_84 
REMARK    8  A    between atoms: N_33  and  C_85 
REMARK    9  A    between atoms: C_34  and  C_38 
REMARK   10  A    between atoms: C_40  and  C_39 
REMARK   11  A    between atoms: C_41  and  C_43 
REMARK   12  A    between atoms: C_41  and  C_45 
REMARK   13  A    between atoms: C_43  and  C_44 
REMARK   14  A    between atoms: C_44  and  C_48 
REMARK   15  A    between atoms: C_47  and  C_49 
REMARK   16  A    between atoms: C_48  and  C_50 
REMARK   17  A    between atoms: C_49  and  C_56 
REMARK   18  A    between atoms: C_51  and  C_55 
REMARK   19  A    between atoms: C_52  and  C_61 
REMARK   20  A    between atoms: C_55  and  C_62 
REMARK   21  A    between atoms: C_58  and  C_64 
REMARK   22  A    between atoms: C_60  and  C_66 
REMARK   23  A    between atoms: C_62  and  C_68 
REMARK   24  A    between atoms: C_64  and  C_67 
REMARK   25  A    between atoms: C_66  and  C_69 
REMARK   26  A    between atoms: C_70  and  C_73 
REMARK   27  A    between atoms: C_82  and  C_83 
REMARK   28  A    between atoms: C_84  and  C_85 
ROOT
HETATM    1  S   UNK N   1      25.127  12.457   6.120  0.00  0.00    -0.095 SA
HETATM    2  S   UNK N   1      23.093  12.094   5.673  0.00  0.00    -0.095 SA
HETATM    3  O   UNK N   1      26.098  18.233   4.330  0.00  0.00    -0.271 OA
HETATM    4  O   UNK N   1      22.206  16.107   5.481  0.00  0.00    -0.271 OA
HETATM    5  O   UNK N   1      19.407  13.313   4.669  0.00  0.00    -0.271 OA
HETATM    6  O   UNK N   1      21.960   7.588   5.963  0.00  0.00    -0.271 OA
HETATM    7  O   UNK N   1      17.831   9.537   5.013  0.00  0.00    -0.271 OA
HETATM    8  N   UNK N   1      25.706  16.085   4.670  0.00  0.00    -0.345 N 
HETATM    9  N   UNK N   1      22.970  16.597   3.427  0.00  0.00    -0.346 N 
HETATM   10  N   UNK N   1      21.073  13.893   3.304  0.00  0.00    -0.346 N 
HETATM   11  N   UNK N   1      18.922  10.997   3.756  0.00  0.00    -0.346 N 
HETATM   12  N   UNK N   1      21.239   9.528   5.110  0.00  0.00    -0.346 N 
HETATM   13  C   UNK N   1      24.874  14.921   4.702  0.00  0.00     0.186 C 
HETATM   14  C   UNK N   1      24.955  14.267   6.094  0.00  0.00     0.120 C 
HETATM   15  C   UNK N   1      25.287  17.322   4.304  0.00  0.00     0.241 C 
HETATM   16  C   UNK N   1      23.879  17.658   3.839  0.00  0.00     0.185 C 
HETATM   17  C   UNK N   1      20.919  15.262   3.723  0.00  0.00     0.177 C 
HETATM   18  C   UNK N   1      22.123  15.949   4.272  0.00  0.00     0.241 C 
HETATM   19  C   UNK N   1      23.072  10.831   6.977  0.00  0.00     0.120 C 
HETATM   20  C   UNK N   1      23.350   9.433   6.419  0.00  0.00     0.186 C 
HETATM   21  C   UNK N   1      20.147  11.576   3.263  0.00  0.00     0.180 C 
HETATM   22  C   UNK N   1      20.208  12.977   3.803  0.00  0.00     0.241 C 
HETATM   23  C   UNK N   1      20.054   8.922   4.562  0.00  0.00     0.180 C 
HETATM   24  C   UNK N   1      22.135   8.788   5.809  0.00  0.00     0.242 C 
HETATM   25  C   UNK N   1      18.880   9.861   4.480  0.00  0.00     0.241 C 
HETATM   26  H   UNK N   1      26.649  15.981   4.931  0.00  0.00     0.163 HD
HETATM   27  H   UNK N   1      22.967  16.333   2.479  0.00  0.00     0.163 HD
HETATM   28  H   UNK N   1      21.783  13.630   2.675  0.00  0.00     0.163 HD
HETATM   29  H   UNK N   1      18.074  11.456   3.555  0.00  0.00     0.163 HD
HETATM   30  H   UNK N   1      21.401  10.489   4.976  0.00  0.00     0.163 HD
ENDROOT
BRANCH  13  31
HETATM   31  C   UNK N   1      25.113  14.105   3.449  0.00  0.00     0.244 C 
HETATM   32  O   UNK N   1      24.170  13.913   2.704  0.00  0.00    -0.271 OA
HETATM   33  N   UNK N   1      26.348  13.626   3.130  0.00  0.00    -0.337 N 
HETATM   34  C   UNK N   1      27.390  13.555   4.093  0.00  0.00     0.179 C 
HETATM   35  C   UNK N   1      26.529  12.742   2.013  0.00  0.00     0.127 C 
HETATM   36  C   UNK N   1      27.872  12.119   3.949  0.00  0.00     0.037 C 
HETATM   37  C   UNK N   1      27.578  11.749   2.490  0.00  0.00     0.022 C 
BRANCH  34  38
HETATM   38  C   UNK N   1      28.529  14.502   3.878  0.00  0.00     0.241 C 
HETATM   39  O   UNK N   1      28.282  15.650   3.541  0.00  0.00    -0.271 OA
HETATM   40  N   UNK N   1      29.759  14.164   4.346  0.00  0.00    -0.346 N 
HETATM   41  H   UNK N   1      30.001  13.211   4.385  0.00  0.00     0.163 HD
BRANCH  40  42
HETATM   42  C   UNK N   1      30.729  15.145   4.788  0.00  0.00     0.176 C 
BRANCH  42  43
HETATM   43  C   UNK N   1      32.058  15.018   4.029  0.00  0.00     0.035 C 
BRANCH  43  44
HETATM   44  C   UNK N   1      33.096  16.068   4.439  0.00  0.00     0.004 C 
BRANCH  44  45
HETATM   45  C   UNK N   1      34.442  15.472   4.824  0.00  0.00     0.019 C 
BRANCH  45  46
HETATM   46  C   UNK N   1      34.684  15.595   6.318  0.00  0.00     0.111 C 
BRANCH  46  47
HETATM   47  N   UNK N   1      34.050  16.801   6.820  0.00  0.00    -0.430 N 
HETATM   48  H   UNK N   1      34.040  16.994   7.821  0.00  0.00     0.149 HD
HETATM   49  H   UNK N   1      33.614  17.454   6.170  0.00  0.00     0.149 HD
ENDBRANCH  46  47
ENDBRANCH  45  46
ENDBRANCH  44  45
ENDBRANCH  43  44
ENDBRANCH  42  43
BRANCH  42  50
HETATM   50  C   UNK N   1      30.932  15.253   6.270  0.00  0.00     0.240 C 
HETATM   51  O   UNK N   1      31.574  14.400   6.864  0.00  0.00    -0.271 OA
HETATM   52  N   UNK N   1      30.488  16.345   6.950  0.00  0.00    -0.351 N 
HETATM   53  H   UNK N   1      30.708  16.407   7.907  0.00  0.00     0.163 HD
BRANCH  52  54
HETATM   54  C   UNK N   1      29.709  17.425   6.363  0.00  0.00     0.225 C 
BRANCH  54  55
HETATM   55  C   UNK N   1      28.264  17.435   6.786  0.00  0.00     0.233 C 
HETATM   56  O   UNK N   1      27.664  16.378   6.892  0.00  0.00    -0.272 OA
HETATM   57  N   UNK N   1      27.626  18.595   7.033  0.00  0.00    -0.369 N 
HETATM   58  H   UNK N   1      26.809  19.043   7.354  0.00  0.00     0.159 HD
HETATM   59  H   UNK N   1      28.252  19.313   6.785  0.00  0.00     0.159 HD
ENDBRANCH  54  55
ENDBRANCH  52  54
ENDBRANCH  42  50
ENDBRANCH  40  42
ENDBRANCH  34  38
ENDBRANCH  13  31
BRANCH  16  60
HETATM   60  C   UNK N   1      23.204  18.714   4.719  0.00  0.00     0.137 C 
BRANCH  60  61
HETATM   61  C   UNK N   1      22.237  19.558   3.946  0.00  0.00     0.217 C 
HETATM   62  O   UNK N   1      22.637  20.377   3.137  0.00  0.00    -0.274 OA
HETATM   63  N   UNK N   1      20.915  19.394   4.130  0.00  0.00    -0.370 N 
HETATM   64  H   UNK N   1      20.526  19.247   5.023  0.00  0.00     0.159 HD
HETATM   65  H   UNK N   1      20.317  19.422   3.348  0.00  0.00     0.159 HD
ENDBRANCH  60  61
ENDBRANCH  16  60
BRANCH  20  66
HETATM   66  N   UNK N   1      24.597   9.349   5.657  0.00  0.00    -0.346 N 
HETATM   67  C   UNK N   1      25.483   8.314   5.657  0.00  0.00     0.236 C 
HETATM   68  O   UNK N   1      25.304   7.335   6.368  0.00  0.00    -0.272 OA
HETATM   69  H   UNK N   1      24.819  10.120   5.087  0.00  0.00     0.163 HD
BRANCH  67  70
HETATM   70  C   UNK N   1      26.693   8.363   4.765  0.00  0.00     0.225 C 
BRANCH  70  71
HETATM   71  N   UNK N   1      27.800   7.761   5.466  0.00  0.00    -0.351 N 
HETATM   72  C   UNK N   1      29.097   7.991   5.169  0.00  0.00     0.235 C 
HETATM   73  O   UNK N   1      29.416   8.621   4.172  0.00  0.00    -0.272 OA
HETATM   74  H   UNK N   1      27.597   7.144   6.207  0.00  0.00     0.163 HD
BRANCH  72  75
HETATM   75  C   UNK N   1      30.138   7.553   6.145  0.00  0.00     0.225 C 
BRANCH  75  76
HETATM   76  N   UNK N   1      30.562   8.714   6.901  0.00  0.00    -0.351 N 
HETATM   77  C   UNK N   1      30.990   8.632   8.186  0.00  0.00     0.235 C 
HETATM   78  O   UNK N   1      31.416   9.630   8.744  0.00  0.00    -0.272 OA
HETATM   79  H   UNK N   1      30.538   9.597   6.466  0.00  0.00     0.163 HD
BRANCH  77  80
HETATM   80  C   UNK N   1      30.952   7.334   8.935  0.00  0.00     0.214 C 
BRANCH  80  81
HETATM   81  N   UNK N   1      29.769   7.287   9.775  0.00  0.00    -0.422 N 
HETATM   82  H   UNK N   1      28.936   7.827   9.540  0.00  0.00     0.150 HD
HETATM   83  H   UNK N   1      29.770   6.704  10.612  0.00  0.00     0.150 HD
ENDBRANCH  80  81
ENDBRANCH  77  80
ENDBRANCH  75  76
ENDBRANCH  72  75
ENDBRANCH  70  71
ENDBRANCH  67  70
ENDBRANCH  20  66
BRANCH  17  84
HETATM   84  C   UNK N   1      20.175  16.091   2.685  0.00  0.00     0.044 C 
BRANCH  84  85
HETATM   85  C   UNK N   1      20.303  15.453   1.308  0.00  0.00     0.105 C 
BRANCH  85  86
HETATM   86  C   UNK N   1      19.694  16.331   0.257  0.00  0.00     0.215 C 
HETATM   87  O   UNK N   1      20.330  17.262  -0.209  0.00  0.00    -0.274 OA
HETATM   88  N   UNK N   1      18.437  16.098  -0.168  0.00  0.00    -0.370 N 
HETATM   89  H   UNK N   1      17.918  16.274  -0.985  0.00  0.00     0.159 HD
HETATM   90  H   UNK N   1      17.901  15.631   0.512  0.00  0.00     0.159 HD
ENDBRANCH  85  86
ENDBRANCH  84  85
ENDBRANCH  17  84
BRANCH  23  91
HETATM   91  C   UNK N   1      20.295   8.193   3.234  0.00  0.00     0.073 C 
BRANCH  91  92
HETATM   92  C   UNK N   1      19.276   7.111   3.236  0.00  0.00    -0.056 A 
HETATM   93  C   UNK N   1      18.519   6.904   2.078  0.00  0.00     0.010 A 
HETATM   94  C   UNK N   1      17.827   5.708   1.900  0.00  0.00     0.037 A 
HETATM   95  C   UNK N   1      17.915   4.703   2.865  0.00  0.00     0.065 A 
HETATM   96  C   UNK N   1      18.646   4.915   4.038  0.00  0.00     0.037 A 
HETATM   97  C   UNK N   1      19.336   6.116   4.220  0.00  0.00     0.010 A 
BRANCH  95  98
HETATM   98  O   UNK N   1      17.309   3.525   2.656  0.00  0.00    -0.361 OA
HETATM   99  H   UNK N   1      17.291   2.879   3.334  0.00  0.00     0.217 HD
ENDBRANCH  95  98
ENDBRANCH  91  92
ENDBRANCH  23  91
BRANCH  21 100
HETATM  100  C   UNK N   1      20.171  11.535   1.740  0.00  0.00     0.073 C 
BRANCH 100 101
HETATM  101  C   UNK N   1      21.584  11.390   1.275  0.00  0.00    -0.056 A 
HETATM  102  C   UNK N   1      22.417  10.419   1.841  0.00  0.00     0.007 A 
HETATM  103  C   UNK N   1      23.735  10.282   1.395  0.00  0.00     0.001 A 
HETATM  104  C   UNK N   1      24.223  11.116   0.383  0.00  0.00     0.000 A 
HETATM  105  C   UNK N   1      23.393  12.083  -0.188  0.00  0.00     0.001 A 
HETATM  106  C   UNK N   1      22.078  12.222   0.259  0.00  0.00     0.007 A 
ENDBRANCH 100 101
ENDBRANCH  21 100
TORSDOF 28
ENDMDL
MODEL 5
REMARK VINA RESULT:      -6.7      2.699     10.470
REMARK  28 active torsions:
REMARK  status: ('A' for Active; 'I' for Inactive)
REMARK    1  A    between atoms: O_15  and  C_81 
REMARK       I    between atoms: N_18  and  C_39 
REMARK       I    between atoms: N_19  and  C_38 
REMARK    2  A    between atoms: C_41  and  N_19 
REMARK       I    between atoms: N_21  and  C_45 
REMARK    3  A    between atoms: N_21  and  C_52 
REMARK    4  A    between atoms: N_23  and  C_50 
REMARK    5  A    between atoms: C_57  and  N_27 
REMARK       I    between atoms: N_27  and  C_70 
REMARK       I    between atoms: N_28  and  C_56 
REMARK       I    between atoms: N_29  and  C_61 
REMARK       I    between atoms: N_30  and  C_68 
REMARK    6  A    between atoms: N_31  and  C_73 
REMARK       I    between atoms: N_31  and  C_82 
REMARK    7  A    between atoms: N_32  and  C_83 
REMARK       I    between atoms: N_32  and  C_84 
REMARK    8  A    between atoms: N_33  and  C_85 
REMARK    9  A    between atoms: C_34  and  C_38 
REMARK   10  A    between atoms: C_40  and  C_39 
REMARK   11  A    between atoms: C_41  and  C_43 
REMARK   12  A    between atoms: C_41  and  C_45 
REMARK   13  A    between atoms: C_43  and  C_44 
REMARK   14  A    between atoms: C_44  and  C_48 
REMARK   15  A    between atoms: C_47  and  C_49 
REMARK   16  A    between atoms: C_48  and  C_50 
REMARK   17  A    between atoms: C_49  and  C_56 
REMARK   18  A    between atoms: C_51  and  C_55 
REMARK   19  A    between atoms: C_52  and  C_61 
REMARK   20  A    between atoms: C_55  and  C_62 
REMARK   21  A    between atoms: C_58  and  C_64 
REMARK   22  A    between atoms: C_60  and  C_66 
REMARK   23  A    between atoms: C_62  and  C_68 
REMARK   24  A    between atoms: C_64  and  C_67 
REMARK   25  A    between atoms: C_66  and  C_69 
REMARK   26  A    between atoms: C_70  and  C_73 
REMARK   27  A    between atoms: C_82  and  C_83 
REMARK   28  A    between atoms: C_84  and  C_85 
ROOT
HETATM    1  S   UNK N   1      26.055  15.307   2.169  0.00  0.00    -0.095 SA
HETATM    2  S   UNK N   1      25.508  13.285   1.876  0.00  0.00    -0.095 SA
HETATM    3  O   UNK N   1      32.082  15.138   3.248  0.00  0.00    -0.271 OA
HETATM    4  O   UNK N   1      29.380  12.138   1.083  0.00  0.00    -0.271 OA
HETATM    5  O   UNK N   1      26.390   9.428   1.227  0.00  0.00    -0.271 OA
HETATM    6  O   UNK N   1      20.898  12.644   1.905  0.00  0.00    -0.271 OA
HETATM    7  O   UNK N   1      22.438   8.353   0.925  0.00  0.00    -0.271 OA
HETATM    8  N   UNK N   1      29.877  15.046   3.133  0.00  0.00    -0.345 N 
HETATM    9  N   UNK N   1      30.204  12.016   3.167  0.00  0.00    -0.346 N 
HETATM   10  N   UNK N   1      27.328  10.397   3.003  0.00  0.00    -0.346 N 
HETATM   11  N   UNK N   1      24.162   8.778   2.249  0.00  0.00    -0.346 N 
HETATM   12  N   UNK N   1      22.827  11.527   2.109  0.00  0.00    -0.346 N 
HETATM   13  C   UNK N   1      28.627  14.368   2.978  0.00  0.00     0.186 C 
HETATM   14  C   UNK N   1      27.821  15.023   1.840  0.00  0.00     0.120 C 
HETATM   15  C   UNK N   1      31.090  14.440   3.114  0.00  0.00     0.241 C 
HETATM   16  C   UNK N   1      31.309  12.944   2.961  0.00  0.00     0.185 C 
HETATM   17  C   UNK N   1      28.608  10.328   2.345  0.00  0.00     0.177 C 
HETATM   18  C   UNK N   1      29.361  11.605   2.182  0.00  0.00     0.241 C 
HETATM   19  C   UNK N   1      24.102  13.851   0.877  0.00  0.00     0.120 C 
HETATM   20  C   UNK N   1      22.826  13.981   1.713  0.00  0.00     0.186 C 
HETATM   21  C   UNK N   1      24.939   9.677   3.064  0.00  0.00     0.180 C 
HETATM   22  C   UNK N   1      26.261   9.852   2.370  0.00  0.00     0.241 C 
HETATM   23  C   UNK N   1      22.155  10.264   2.264  0.00  0.00     0.180 C 
HETATM   24  C   UNK N   1      22.120  12.669   1.921  0.00  0.00     0.242 C 
HETATM   25  C   UNK N   1      22.949   9.091   1.752  0.00  0.00     0.241 C 
HETATM   26  H   UNK N   1      29.856  16.022   3.262  0.00  0.00     0.163 HD
HETATM   27  H   UNK N   1      30.060  11.664   4.075  0.00  0.00     0.163 HD
HETATM   28  H   UNK N   1      27.232  10.824   3.884  0.00  0.00     0.163 HD
HETATM   29  H   UNK N   1      24.536   7.890   2.044  0.00  0.00     0.163 HD
HETATM   30  H   UNK N   1      23.810  11.563   2.138  0.00  0.00     0.163 HD
ENDROOT
BRANCH  13  31
HETATM   31  C   UNK N   1      28.005  14.156   4.342  0.00  0.00     0.244 C 
HETATM   32  O   UNK N   1      27.682  13.025   4.654  0.00  0.00    -0.271 OA
HETATM   33  N   UNK N   1      27.840  15.183   5.223  0.00  0.00    -0.337 N 
HETATM   34  C   UNK N   1      27.908  16.539   4.805  0.00  0.00     0.179 C 
HETATM   35  C   UNK N   1      27.126  14.990   6.454  0.00  0.00     0.127 C 
HETATM   36  C   UNK N   1      26.633  17.127   5.391  0.00  0.00     0.037 C 
HETATM   37  C   UNK N   1      26.347  16.283   6.639  0.00  0.00     0.022 C 
BRANCH  34  38
HETATM   38  C   UNK N   1      29.097  17.304   5.297  0.00  0.00     0.241 C 
HETATM   39  O   UNK N   1      28.962  18.486   5.571  0.00  0.00    -0.271 OA
HETATM   40  N   UNK N   1      30.194  16.616   5.709  0.00  0.00    -0.346 N 
HETATM   41  H   UNK N   1      30.392  15.750   5.286  0.00  0.00     0.163 HD
BRANCH  40  42
HETATM   42  C   UNK N   1      31.084  17.102   6.743  0.00  0.00     0.176 C 
BRANCH  42  43
HETATM   43  C   UNK N   1      32.519  17.283   6.226  0.00  0.00     0.035 C 
BRANCH  43  44
HETATM   44  C   UNK N   1      33.443  17.985   7.226  0.00  0.00     0.004 C 
BRANCH  44  45
HETATM   45  C   UNK N   1      34.547  17.088   7.766  0.00  0.00     0.019 C 
BRANCH  45  46
HETATM   46  C   UNK N   1      34.728  15.862   6.891  0.00  0.00     0.111 C 
BRANCH  46  47
HETATM   47  N   UNK N   1      34.532  14.660   7.682  0.00  0.00    -0.430 N 
HETATM   48  H   UNK N   1      35.194  13.887   7.610  0.00  0.00     0.149 HD
HETATM   49  H   UNK N   1      33.732  14.590   8.310  0.00  0.00     0.149 HD
ENDBRANCH  46  47
ENDBRANCH  45  46
ENDBRANCH  44  45
ENDBRANCH  43  44
ENDBRANCH  42  43
BRANCH  42  50
HETATM   50  C   UNK N   1      31.043  16.367   8.051  0.00  0.00     0.240 C 
HETATM   51  O   UNK N   1      31.556  15.263   8.149  0.00  0.00    -0.271 OA
HETATM   52  N   UNK N   1      30.521  16.959   9.159  0.00  0.00    -0.351 N 
HETATM   53  H   UNK N   1      30.582  16.469  10.010  0.00  0.00     0.163 HD
BRANCH  52  54
HETATM   54  C   UNK N   1      29.877  18.264   9.175  0.00  0.00     0.225 C 
BRANCH  54  55
HETATM   55  C   UNK N   1      28.376  18.205   9.087  0.00  0.00     0.233 C 
HETATM   56  O   UNK N   1      27.778  17.300   9.645  0.00  0.00    -0.272 OA
HETATM   57  N   UNK N   1      27.689  19.130   8.387  0.00  0.00    -0.369 N 
HETATM   58  H   UNK N   1      26.811  19.493   8.128  0.00  0.00     0.159 HD
HETATM   59  H   UNK N   1      28.362  19.690   7.937  0.00  0.00     0.159 HD
ENDBRANCH  54  55
ENDBRANCH  52  54
ENDBRANCH  42  50
ENDBRANCH  40  42
ENDBRANCH  34  38
ENDBRANCH  13  31
BRANCH  16  60
HETATM   60  C   UNK N   1      32.160  12.594   1.736  0.00  0.00     0.137 C 
BRANCH  60  61
HETATM   61  C   UNK N   1      32.535  11.144   1.706  0.00  0.00     0.217 C 
HETATM   62  O   UNK N   1      33.011  10.604   2.690  0.00  0.00    -0.274 OA
HETATM   63  N   UNK N   1      32.323  10.426   0.588  0.00  0.00    -0.370 N 
HETATM   64  H   UNK N   1      32.496  10.792  -0.309  0.00  0.00     0.159 HD
HETATM   65  H   UNK N   1      31.984   9.504   0.671  0.00  0.00     0.159 HD
ENDBRANCH  60  61
ENDBRANCH  16  60
BRANCH  20  66
HETATM   66  N   UNK N   1      22.987  14.839   2.888  0.00  0.00    -0.346 N 
HETATM   67  C   UNK N   1      22.114  15.789   3.327  0.00  0.00     0.236 C 
HETATM   68  O   UNK N   1      21.087  16.031   2.710  0.00  0.00    -0.272 OA
HETATM   69  H   UNK N   1      23.810  14.718   3.414  0.00  0.00     0.163 HD
BRANCH  67  70
HETATM   70  C   UNK N   1      22.406  16.546   4.595  0.00  0.00     0.225 C 
BRANCH  70  71
HETATM   71  N   UNK N   1      22.054  17.929   4.390  0.00  0.00    -0.351 N 
HETATM   72  C   UNK N   1      22.885  18.849   3.855  0.00  0.00     0.235 C 
HETATM   73  O   UNK N   1      24.062  18.593   3.646  0.00  0.00    -0.272 OA
HETATM   74  H   UNK N   1      21.151  18.221   4.655  0.00  0.00     0.163 HD
BRANCH  72  75
HETATM   75  C   UNK N   1      22.314  20.157   3.420  0.00  0.00     0.225 C 
BRANCH  75  76
HETATM   76  N   UNK N   1      22.093  20.097   1.989  0.00  0.00    -0.351 N 
HETATM   77  C   UNK N   1      20.869  19.871   1.448  0.00  0.00     0.235 C 
HETATM   78  O   UNK N   1      20.729  19.918   0.237  0.00  0.00    -0.272 OA
HETATM   79  H   UNK N   1      22.861  20.227   1.386  0.00  0.00     0.163 HD
BRANCH  77  80
HETATM   80  C   UNK N   1      19.683  19.567   2.312  0.00  0.00     0.214 C 
BRANCH  80  81
HETATM   81  N   UNK N   1      19.185  18.237   2.010  0.00  0.00    -0.422 N 
HETATM   82  H   UNK N   1      19.805  17.512   1.650  0.00  0.00     0.150 HD
HETATM   83  H   UNK N   1      18.198  18.024   2.160  0.00  0.00     0.150 HD
ENDBRANCH  80  81
ENDBRANCH  77  80
ENDBRANCH  75  76
ENDBRANCH  72  75
ENDBRANCH  70  71
ENDBRANCH  67  70
ENDBRANCH  20  66
BRANCH  17  84
HETATM   84  C   UNK N   1      29.462   9.190   2.885  0.00  0.00     0.044 C 
BRANCH  84  85
HETATM   85  C   UNK N   1      29.193   8.985   4.370  0.00  0.00     0.105 C 
BRANCH  85  86
HETATM   86  C   UNK N   1      30.458   9.122   5.162  0.00  0.00     0.215 C 
HETATM   87  O   UNK N   1      30.437   9.635   6.268  0.00  0.00    -0.274 OA
HETATM   88  N   UNK N   1      31.624   8.684   4.647  0.00  0.00    -0.370 N 
HETATM   89  H   UNK N   1      32.486   8.370   5.003  0.00  0.00     0.159 HD
HETATM   90  H   UNK N   1      31.610   8.675   3.663  0.00  0.00     0.159 HD
ENDBRANCH  85  86
ENDBRANCH  84  85
ENDBRANCH  17  84
BRANCH  23  91
HETATM   91  C   UNK N   1      21.628  10.019   3.684  0.00  0.00     0.073 C 
BRANCH  91  92
HETATM   92  C   UNK N   1      20.410   9.194   3.471  0.00  0.00    -0.056 A 
HETATM   93  C   UNK N   1      19.486   9.602   2.503  0.00  0.00     0.010 A 
HETATM   94  C   UNK N   1      18.539   8.704   2.018  0.00  0.00     0.037 A 
HETATM   95  C   UNK N   1      18.532   7.385   2.476  0.00  0.00     0.065 A 
HETATM   96  C   UNK N   1      19.434   6.978   3.466  0.00  0.00     0.037 A 
HETATM   97  C   UNK N   1      20.380   7.880   3.957  0.00  0.00     0.010 A 
BRANCH  95  98
HETATM   98  O   UNK N   1      17.668   6.503   1.954  0.00  0.00    -0.361 OA
HETATM   99  H   UNK N   1      16.909   6.804   1.493  0.00  0.00     0.217 HD
ENDBRANCH  95  98
ENDBRANCH  91  92
ENDBRANCH  23  91
BRANCH  21 100
HETATM  100  C   UNK N   1      25.089   9.114   4.472  0.00  0.00     0.073 C 
BRANCH 100 101
HETATM  101  C   UNK N   1      24.578  10.114   5.458  0.00  0.00    -0.056 A 
HETATM  102  C   UNK N   1      24.017   9.689   6.667  0.00  0.00     0.007 A 
HETATM  103  C   UNK N   1      23.549  10.630   7.590  0.00  0.00     0.001 A 
HETATM  104  C   UNK N   1      23.641  11.996   7.304  0.00  0.00     0.000 A 
HETATM  105  C   UNK N   1      24.204  12.424   6.101  0.00  0.00     0.001 A 
HETATM  106  C   UNK N   1      24.669  11.485   5.178  0.00  0.00     0.007 A 
ENDBRANCH 100 101
ENDBRANCH  21 100
TORSDOF 28
ENDMDL
MODEL 6
REMARK VINA RESULT:      -6.6      3.300     10.475
REMARK  28 active torsions:
REMARK  status: ('A' for Active; 'I' for Inactive)
REMARK    1  A    between atoms: O_15  and  C_81 
REMARK       I    between atoms: N_18  and  C_39 
REMARK       I    between atoms: N_19  and  C_38 
REMARK    2  A    between atoms: C_41  and  N_19 
REMARK       I    between atoms: N_21  and  C_45 
REMARK    3  A    between atoms: N_21  and  C_52 
REMARK    4  A    between atoms: N_23  and  C_50 
REMARK    5  A    between atoms: C_57  and  N_27 
REMARK       I    between atoms: N_27  and  C_70 
REMARK       I    between atoms: N_28  and  C_56 
REMARK       I    between atoms: N_29  and  C_61 
REMARK       I    between atoms: N_30  and  C_68 
REMARK    6  A    between atoms: N_31  and  C_73 
REMARK       I    between atoms: N_31  and  C_82 
REMARK    7  A    between atoms: N_32  and  C_83 
REMARK       I    between atoms: N_32  and  C_84 
REMARK    8  A    between atoms: N_33  and  C_85 
REMARK    9  A    between atoms: C_34  and  C_38 
REMARK   10  A    between atoms: C_40  and  C_39 
REMARK   11  A    between atoms: C_41  and  C_43 
REMARK   12  A    between atoms: C_41  and  C_45 
REMARK   13  A    between atoms: C_43  and  C_44 
REMARK   14  A    between atoms: C_44  and  C_48 
REMARK   15  A    between atoms: C_47  and  C_49 
REMARK   16  A    between atoms: C_48  and  C_50 
REMARK   17  A    between atoms: C_49  and  C_56 
REMARK   18  A    between atoms: C_51  and  C_55 
REMARK   19  A    between atoms: C_52  and  C_61 
REMARK   20  A    between atoms: C_55  and  C_62 
REMARK   21  A    between atoms: C_58  and  C_64 
REMARK   22  A    between atoms: C_60  and  C_66 
REMARK   23  A    between atoms: C_62  and  C_68 
REMARK   24  A    between atoms: C_64  and  C_67 
REMARK   25  A    between atoms: C_66  and  C_69 
REMARK   26  A    between atoms: C_70  and  C_73 
REMARK   27  A    between atoms: C_82  and  C_83 
REMARK   28  A    between atoms: C_84  and  C_85 
ROOT
HETATM    1  S   UNK N   1      25.041  12.839   6.430  0.00  0.00    -0.095 SA
HETATM    2  S   UNK N   1      23.069  13.219   5.769  0.00  0.00    -0.095 SA
HETATM    3  O   UNK N   1      28.134  17.951   5.084  0.00  0.00    -0.271 OA
HETATM    4  O   UNK N   1      23.646  17.293   5.729  0.00  0.00    -0.271 OA
HETATM    5  O   UNK N   1      20.164  15.668   4.489  0.00  0.00    -0.271 OA
HETATM    6  O   UNK N   1      20.428   9.386   5.684  0.00  0.00    -0.271 OA
HETATM    7  O   UNK N   1      17.356  12.673   4.458  0.00  0.00    -0.271 OA
HETATM    8  N   UNK N   1      26.991  16.069   5.258  0.00  0.00    -0.345 N 
HETATM    9  N   UNK N   1      24.753  17.529   3.791  0.00  0.00    -0.346 N 
HETATM   10  N   UNK N   1      22.068  15.660   3.327  0.00  0.00    -0.346 N 
HETATM   11  N   UNK N   1      19.015  13.688   3.399  0.00  0.00    -0.346 N 
HETATM   12  N   UNK N   1      20.519  11.473   4.881  0.00  0.00    -0.346 N 
HETATM   13  C   UNK N   1      25.811  15.268   5.142  0.00  0.00     0.186 C 
HETATM   14  C   UNK N   1      25.507  14.596   6.495  0.00  0.00     0.120 C 
HETATM   15  C   UNK N   1      27.066  17.381   4.927  0.00  0.00     0.241 C 
HETATM   16  C   UNK N   1      25.922  18.198   4.350  0.00  0.00     0.185 C 
HETATM   17  C   UNK N   1      22.349  16.988   3.809  0.00  0.00     0.177 C 
HETATM   18  C   UNK N   1      23.648  17.199   4.511  0.00  0.00     0.241 C 
HETATM   19  C   UNK N   1      22.470  12.014   6.989  0.00  0.00     0.120 C 
HETATM   20  C   UNK N   1      22.309  10.620   6.379  0.00  0.00     0.186 C 
HETATM   21  C   UNK N   1      20.410  13.813   3.061  0.00  0.00     0.180 C 
HETATM   22  C   UNK N   1      20.891  15.093   3.686  0.00  0.00     0.241 C 
HETATM   23  C   UNK N   1      19.266  11.331   4.187  0.00  0.00     0.180 C 
HETATM   24  C   UNK N   1      21.022  10.453   5.618  0.00  0.00     0.242 C 
HETATM   25  C   UNK N   1      18.504  12.623   4.048  0.00  0.00     0.241 C 
HETATM   26  H   UNK N   1      27.806  15.636   5.602  0.00  0.00     0.163 HD
HETATM   27  H   UNK N   1      24.765  17.304   2.833  0.00  0.00     0.163 HD
HETATM   28  H   UNK N   1      22.708  15.180   2.755  0.00  0.00     0.163 HD
HETATM   29  H   UNK N   1      18.405  14.418   3.145  0.00  0.00     0.163 HD
HETATM   30  H   UNK N   1      21.016  12.321   4.820  0.00  0.00     0.163 HD
ENDROOT
BRANCH  13  31
HETATM   31  C   UNK N   1      25.891  14.447   3.872  0.00  0.00     0.244 C 
HETATM   32  O   UNK N   1      24.941  14.477   3.112  0.00  0.00    -0.271 OA
HETATM   33  N   UNK N   1      27.000  13.722   3.555  0.00  0.00    -0.337 N 
HETATM   34  C   UNK N   1      27.987  13.410   4.527  0.00  0.00     0.179 C 
HETATM   35  C   UNK N   1      27.007  12.845   2.418  0.00  0.00     0.127 C 
HETATM   36  C   UNK N   1      28.156  11.907   4.353  0.00  0.00     0.037 C 
HETATM   37  C   UNK N   1      27.813  11.641   2.882  0.00  0.00     0.022 C 
BRANCH  34  38
HETATM   38  C   UNK N   1      29.306  14.097   4.348  0.00  0.00     0.241 C 
HETATM   39  O   UNK N   1      29.331  15.178   3.782  0.00  0.00    -0.271 OA
HETATM   40  N   UNK N   1      30.373  13.664   5.069  0.00  0.00    -0.346 N 
HETATM   41  H   UNK N   1      30.420  12.712   5.313  0.00  0.00     0.163 HD
BRANCH  40  42
HETATM   42  C   UNK N   1      31.444  14.542   5.493  0.00  0.00     0.176 C 
BRANCH  42  43
HETATM   43  C   UNK N   1      32.742  14.281   4.715  0.00  0.00     0.035 C 
BRANCH  43  44
HETATM   44  C   UNK N   1      32.670  14.710   3.247  0.00  0.00     0.004 C 
BRANCH  44  45
HETATM   45  C   UNK N   1      33.370  16.032   2.966  0.00  0.00     0.019 C 
BRANCH  45  46
HETATM   46  C   UNK N   1      32.515  17.205   3.410  0.00  0.00     0.111 C 
BRANCH  46  47
HETATM   47  N   UNK N   1      31.231  17.161   2.733  0.00  0.00    -0.430 N 
HETATM   48  H   UNK N   1      31.167  17.400   1.743  0.00  0.00     0.149 HD
HETATM   49  H   UNK N   1      30.394  16.893   3.247  0.00  0.00     0.149 HD
ENDBRANCH  46  47
ENDBRANCH  45  46
ENDBRANCH  44  45
ENDBRANCH  43  44
ENDBRANCH  42  43
BRANCH  42  50
HETATM   50  C   UNK N   1      31.679  14.633   6.972  0.00  0.00     0.240 C 
HETATM   51  O   UNK N   1      32.226  13.714   7.562  0.00  0.00    -0.271 OA
HETATM   52  N   UNK N   1      31.375  15.771   7.651  0.00  0.00    -0.351 N 
HETATM   53  H   UNK N   1      31.614  15.812   8.605  0.00  0.00     0.163 HD
BRANCH  52  54
HETATM   54  C   UNK N   1      30.718  16.932   7.069  0.00  0.00     0.225 C 
BRANCH  54  55
HETATM   55  C   UNK N   1      30.118  17.868   8.084  0.00  0.00     0.233 C 
HETATM   56  O   UNK N   1      30.824  18.326   8.967  0.00  0.00    -0.272 OA
HETATM   57  N   UNK N   1      28.811  18.191   8.037  0.00  0.00    -0.369 N 
HETATM   58  H   UNK N   1      28.077  18.739   8.398  0.00  0.00     0.159 HD
HETATM   59  H   UNK N   1      28.415  17.635   7.327  0.00  0.00     0.159 HD
ENDBRANCH  54  55
ENDBRANCH  52  54
ENDBRANCH  42  50
ENDBRANCH  40  42
ENDBRANCH  34  38
ENDBRANCH  13  31
BRANCH  16  60
HETATM   60  C   UNK N   1      25.558  19.403   5.222  0.00  0.00     0.137 C 
BRANCH  60  61
HETATM   61  C   UNK N   1      26.435  20.585   4.943  0.00  0.00     0.217 C 
HETATM   62  O   UNK N   1      26.642  21.422   5.805  0.00  0.00    -0.274 OA
HETATM   63  N   UNK N   1      27.019  20.712   3.738  0.00  0.00    -0.370 N 
HETATM   64  H   UNK N   1      26.544  20.497   2.903  0.00  0.00     0.159 HD
HETATM   65  H   UNK N   1      27.950  21.030   3.690  0.00  0.00     0.159 HD
ENDBRANCH  60  61
ENDBRANCH  16  60
BRANCH  20  66
HETATM   66  N   UNK N   1      23.527  10.123   5.737  0.00  0.00    -0.346 N 
HETATM   67  C   UNK N   1      24.272   9.049   6.124  0.00  0.00     0.236 C 
HETATM   68  O   UNK N   1      23.975   8.407   7.121  0.00  0.00    -0.272 OA
HETATM   69  H   UNK N   1      23.841  10.615   4.944  0.00  0.00     0.163 HD
BRANCH  67  70
HETATM   70  C   UNK N   1      25.469   8.635   5.312  0.00  0.00     0.225 C 
BRANCH  70  71
HETATM   71  N   UNK N   1      25.073   8.546   3.929  0.00  0.00    -0.351 N 
HETATM   72  C   UNK N   1      24.658   7.408   3.334  0.00  0.00     0.235 C 
HETATM   73  O   UNK N   1      24.736   6.331   3.905  0.00  0.00    -0.272 OA
HETATM   74  H   UNK N   1      25.107   9.367   3.385  0.00  0.00     0.163 HD
BRANCH  72  75
HETATM   75  C   UNK N   1      23.996   7.504   2.000  0.00  0.00     0.225 C 
BRANCH  75  76
HETATM   76  N   UNK N   1      25.003   7.862   1.022  0.00  0.00    -0.351 N 
HETATM   77  C   UNK N   1      24.705   8.089  -0.283  0.00  0.00     0.235 C 
HETATM   78  O   UNK N   1      25.581   8.472  -1.041  0.00  0.00    -0.272 OA
HETATM   79  H   UNK N   1      25.939   7.946   1.316  0.00  0.00     0.163 HD
BRANCH  77  80
HETATM   80  C   UNK N   1      23.318   7.879  -0.810  0.00  0.00     0.214 C 
BRANCH  80  81
HETATM   81  N   UNK N   1      22.877   9.070  -1.513  0.00  0.00    -0.422 N 
HETATM   82  H   UNK N   1      22.514   9.877  -1.006  0.00  0.00     0.150 HD
HETATM   83  H   UNK N   1      22.930   9.101  -2.532  0.00  0.00     0.150 HD
ENDBRANCH  80  81
ENDBRANCH  77  80
ENDBRANCH  75  76
ENDBRANCH  72  75
ENDBRANCH  70  71
ENDBRANCH  67  70
ENDBRANCH  20  66
BRANCH  17  84
HETATM   84  C   UNK N   1      22.056  18.047   2.755  0.00  0.00     0.044 C 
BRANCH  84  85
HETATM   85  C   UNK N   1      21.336  19.233   3.382  0.00  0.00     0.105 C 
BRANCH  85  86
HETATM   86  C   UNK N   1      21.327  20.403   2.447  0.00  0.00     0.215 C 
HETATM   87  O   UNK N   1      22.048  21.364   2.658  0.00  0.00    -0.274 OA
HETATM   88  N   UNK N   1      20.513  20.400   1.373  0.00  0.00    -0.370 N 
HETATM   89  H   UNK N   1      20.502  20.827   0.486  0.00  0.00     0.159 HD
HETATM   90  H   UNK N   1      19.729  19.821   1.509  0.00  0.00     0.159 HD
ENDBRANCH  85  86
ENDBRANCH  84  85
ENDBRANCH  17  84
BRANCH  23  91
HETATM   91  C   UNK N   1      19.386  10.593   2.848  0.00  0.00     0.073 C 
BRANCH  91  92
HETATM   92  C   UNK N   1      18.612   9.342   3.064  0.00  0.00    -0.056 A 
HETATM   93  C   UNK N   1      19.198   8.123   2.706  0.00  0.00     0.010 A 
HETATM   94  C   UNK N   1      18.686   6.928   3.206  0.00  0.00     0.037 A 
HETATM   95  C   UNK N   1      17.606   6.950   4.090  0.00  0.00     0.065 A 
HETATM   96  C   UNK N   1      16.997   8.163   4.429  0.00  0.00     0.037 A 
HETATM   97  C   UNK N   1      17.506   9.362   3.924  0.00  0.00     0.010 A 
BRANCH  95  98
HETATM   98  O   UNK N   1      17.162   5.805   4.628  0.00  0.00    -0.361 OA
HETATM   99  H   UNK N   1      16.247   5.684   4.791  0.00  0.00     0.217 HD
ENDBRANCH  95  98
ENDBRANCH  91  92
ENDBRANCH  23  91
BRANCH  21 100
HETATM  100  C   UNK N   1      20.587  13.800   1.548  0.00  0.00     0.073 C 
BRANCH 100 101
HETATM  101  C   UNK N   1      21.849  13.074   1.207  0.00  0.00    -0.056 A 
HETATM  102  C   UNK N   1      22.766  13.636   0.314  0.00  0.00     0.007 A 
HETATM  103  C   UNK N   1      23.949  12.956   0.005  0.00  0.00     0.001 A 
HETATM  104  C   UNK N   1      24.215  11.714   0.591  0.00  0.00     0.000 A 
HETATM  105  C   UNK N   1      23.304  11.152   1.487  0.00  0.00     0.001 A 
HETATM  106  C   UNK N   1      22.121  11.829   1.792  0.00  0.00     0.007 A 
ENDBRANCH 100 101
ENDBRANCH  21 100
TORSDOF 28
ENDMDL
MODEL 7
REMARK VINA RESULT:      -6.6      3.274     10.476
REMARK  28 active torsions:
REMARK  status: ('A' for Active; 'I' for Inactive)
REMARK    1  A    between atoms: O_15  and  C_81 
REMARK       I    between atoms: N_18  and  C_39 
REMARK       I    between atoms: N_19  and  C_38 
REMARK    2  A    between atoms: C_41  and  N_19 
REMARK       I    between atoms: N_21  and  C_45 
REMARK    3  A    between atoms: N_21  and  C_52 
REMARK    4  A    between atoms: N_23  and  C_50 
REMARK    5  A    between atoms: C_57  and  N_27 
REMARK       I    between atoms: N_27  and  C_70 
REMARK       I    between atoms: N_28  and  C_56 
REMARK       I    between atoms: N_29  and  C_61 
REMARK       I    between atoms: N_30  and  C_68 
REMARK    6  A    between atoms: N_31  and  C_73 
REMARK       I    between atoms: N_31  and  C_82 
REMARK    7  A    between atoms: N_32  and  C_83 
REMARK       I    between atoms: N_32  and  C_84 
REMARK    8  A    between atoms: N_33  and  C_85 
REMARK    9  A    between atoms: C_34  and  C_38 
REMARK   10  A    between atoms: C_40  and  C_39 
REMARK   11  A    between atoms: C_41  and  C_43 
REMARK   12  A    between atoms: C_41  and  C_45 
REMARK   13  A    between atoms: C_43  and  C_44 
REMARK   14  A    between atoms: C_44  and  C_48 
REMARK   15  A    between atoms: C_47  and  C_49 
REMARK   16  A    between atoms: C_48  and  C_50 
REMARK   17  A    between atoms: C_49  and  C_56 
REMARK   18  A    between atoms: C_51  and  C_55 
REMARK   19  A    between atoms: C_52  and  C_61 
REMARK   20  A    between atoms: C_55  and  C_62 
REMARK   21  A    between atoms: C_58  and  C_64 
REMARK   22  A    between atoms: C_60  and  C_66 
REMARK   23  A    between atoms: C_62  and  C_68 
REMARK   24  A    between atoms: C_64  and  C_67 
REMARK   25  A    between atoms: C_66  and  C_69 
REMARK   26  A    between atoms: C_70  and  C_73 
REMARK   27  A    between atoms: C_82  and  C_83 
REMARK   28  A    between atoms: C_84  and  C_85 
ROOT
HETATM    1  S   UNK N   1      24.900  12.856   6.573  0.00  0.00    -0.095 SA
HETATM    2  S   UNK N   1      22.945  13.150   5.823  0.00  0.00    -0.095 SA
HETATM    3  O   UNK N   1      27.826  18.097   5.360  0.00  0.00    -0.271 OA
HETATM    4  O   UNK N   1      23.347  17.245   5.801  0.00  0.00    -0.271 OA
HETATM    5  O   UNK N   1      19.999  15.471   4.406  0.00  0.00    -0.271 OA
HETATM    6  O   UNK N   1      20.480   9.206   5.625  0.00  0.00    -0.271 OA
HETATM    7  O   UNK N   1      17.327  12.356   4.253  0.00  0.00    -0.271 OA
HETATM    8  N   UNK N   1      26.759  16.167   5.485  0.00  0.00    -0.345 N 
HETATM    9  N   UNK N   1      24.530  17.529   3.914  0.00  0.00    -0.346 N 
HETATM   10  N   UNK N   1      21.952  15.545   3.332  0.00  0.00    -0.346 N 
HETATM   11  N   UNK N   1      18.987  13.442   3.269  0.00  0.00    -0.346 N 
HETATM   12  N   UNK N   1      20.517  11.295   4.822  0.00  0.00    -0.346 N 
HETATM   13  C   UNK N   1      25.622  15.316   5.317  0.00  0.00     0.186 C 
HETATM   14  C   UNK N   1      25.286  14.631   6.656  0.00  0.00     0.120 C 
HETATM   15  C   UNK N   1      26.793  17.481   5.155  0.00  0.00     0.241 C 
HETATM   16  C   UNK N   1      25.642  18.247   4.524  0.00  0.00     0.185 C 
HETATM   17  C   UNK N   1      22.153  16.884   3.824  0.00  0.00     0.177 C 
HETATM   18  C   UNK N   1      23.408  17.151   4.584  0.00  0.00     0.241 C 
HETATM   19  C   UNK N   1      22.344  11.920   7.016  0.00  0.00     0.120 C 
HETATM   20  C   UNK N   1      22.272  10.520   6.403  0.00  0.00     0.186 C 
HETATM   21  C   UNK N   1      20.390  13.628   2.995  0.00  0.00     0.180 C 
HETATM   22  C   UNK N   1      20.785  14.927   3.638  0.00  0.00     0.241 C 
HETATM   23  C   UNK N   1      19.304  11.099   4.073  0.00  0.00     0.180 C 
HETATM   24  C   UNK N   1      21.030  10.297   5.584  0.00  0.00     0.242 C 
HETATM   25  C   UNK N   1      18.494  12.356   3.896  0.00  0.00     0.241 C 
HETATM   26  H   UNK N   1      27.575  15.770   5.867  0.00  0.00     0.163 HD
HETATM   27  H   UNK N   1      24.595  17.304   2.958  0.00  0.00     0.163 HD
HETATM   28  H   UNK N   1      22.638  15.093   2.791  0.00  0.00     0.163 HD
HETATM   29  H   UNK N   1      18.358  14.145   2.986  0.00  0.00     0.163 HD
HETATM   30  H   UNK N   1      20.979  12.163   4.782  0.00  0.00     0.163 HD
ENDROOT
BRANCH  13  31
HETATM   31  C   UNK N   1      25.795  14.499   4.054  0.00  0.00     0.244 C 
HETATM   32  O   UNK N   1      24.871  14.466   3.263  0.00  0.00    -0.271 OA
HETATM   33  N   UNK N   1      26.958  13.846   3.775  0.00  0.00    -0.337 N 
HETATM   34  C   UNK N   1      27.931  13.599   4.781  0.00  0.00     0.179 C 
HETATM   35  C   UNK N   1      27.058  12.968   2.643  0.00  0.00     0.127 C 
HETATM   36  C   UNK N   1      28.200  12.110   4.618  0.00  0.00     0.037 C 
HETATM   37  C   UNK N   1      27.924  11.819   3.138  0.00  0.00     0.022 C 
BRANCH  34  38
HETATM   38  C   UNK N   1      29.208  14.368   4.642  0.00  0.00     0.241 C 
HETATM   39  O   UNK N   1      29.207  15.391   3.975  0.00  0.00    -0.271 OA
HETATM   40  N   UNK N   1      30.236  14.090   5.485  0.00  0.00    -0.346 N 
HETATM   41  H   UNK N   1      30.329  13.171   5.825  0.00  0.00     0.163 HD
BRANCH  40  42
HETATM   42  C   UNK N   1      31.200  15.085   5.905  0.00  0.00     0.176 C 
BRANCH  42  43
HETATM   43  C   UNK N   1      30.525  16.407   6.302  0.00  0.00     0.035 C 
BRANCH  43  44
HETATM   44  C   UNK N   1      30.634  16.723   7.797  0.00  0.00     0.004 C 
BRANCH  44  45
HETATM   45  C   UNK N   1      29.883  17.980   8.208  0.00  0.00     0.019 C 
BRANCH  45  46
HETATM   46  C   UNK N   1      28.500  17.641   8.733  0.00  0.00     0.111 C 
BRANCH  46  47
HETATM   47  N   UNK N   1      27.604  18.764   8.519  0.00  0.00    -0.430 N 
HETATM   48  H   UNK N   1      26.967  18.765   7.723  0.00  0.00     0.149 HD
HETATM   49  H   UNK N   1      27.613  19.551   9.167  0.00  0.00     0.149 HD
ENDBRANCH  46  47
ENDBRANCH  45  46
ENDBRANCH  44  45
ENDBRANCH  43  44
ENDBRANCH  42  43
BRANCH  42  50
HETATM   50  C   UNK N   1      32.371  15.300   4.991  0.00  0.00     0.240 C 
HETATM   51  O   UNK N   1      32.208  15.304   3.781  0.00  0.00    -0.271 OA
HETATM   52  N   UNK N   1      33.599  15.587   5.499  0.00  0.00    -0.351 N 
HETATM   53  H   UNK N   1      34.320  15.793   4.861  0.00  0.00     0.163 HD
BRANCH  52  54
HETATM   54  C   UNK N   1      33.925  15.609   6.917  0.00  0.00     0.225 C 
BRANCH  54  55
HETATM   55  C   UNK N   1      34.319  16.967   7.433  0.00  0.00     0.233 C 
HETATM   56  O   UNK N   1      34.464  17.887   6.646  0.00  0.00    -0.272 OA
HETATM   57  N   UNK N   1      34.527  17.172   8.749  0.00  0.00    -0.369 N 
HETATM   58  H   UNK N   1      34.713  17.816   9.470  0.00  0.00     0.159 HD
HETATM   59  H   UNK N   1      34.464  16.288   9.178  0.00  0.00     0.159 HD
ENDBRANCH  54  55
ENDBRANCH  52  54
ENDBRANCH  42  50
ENDBRANCH  40  42
ENDBRANCH  34  38
ENDBRANCH  13  31
BRANCH  16  60
HETATM   60  C   UNK N   1      25.187  19.436   5.377  0.00  0.00     0.137 C 
BRANCH  60  61
HETATM   61  C   UNK N   1      26.103  20.613   5.236  0.00  0.00     0.217 C 
HETATM   62  O   UNK N   1      26.560  20.919   4.148  0.00  0.00    -0.274 OA
HETATM   63  N   UNK N   1      26.404  21.355   6.317  0.00  0.00    -0.370 N 
HETATM   64  H   UNK N   1      26.582  20.949   7.196  0.00  0.00     0.159 HD
HETATM   65  H   UNK N   1      26.447  22.335   6.226  0.00  0.00     0.159 HD
ENDBRANCH  60  61
ENDBRANCH  16  60
BRANCH  20  66
HETATM   66  N   UNK N   1      23.538  10.077   5.817  0.00  0.00    -0.346 N 
HETATM   67  C   UNK N   1      24.230   8.946   6.135  0.00  0.00     0.236 C 
HETATM   68  O   UNK N   1      23.833   8.194   7.014  0.00  0.00    -0.272 OA
HETATM   69  H   UNK N   1      23.931  10.654   5.124  0.00  0.00     0.163 HD
BRANCH  67  70
HETATM   70  C   UNK N   1      25.493   8.606   5.391  0.00  0.00     0.225 C 
BRANCH  70  71
HETATM   71  N   UNK N   1      25.181   8.502   3.988  0.00  0.00    -0.351 N 
HETATM   72  C   UNK N   1      24.702   7.384   3.401  0.00  0.00     0.235 C 
HETATM   73  O   UNK N   1      24.644   6.325   4.009  0.00  0.00    -0.272 OA
HETATM   74  H   UNK N   1      25.324   9.295   3.422  0.00  0.00     0.163 HD
BRANCH  72  75
HETATM   75  C   UNK N   1      24.139   7.489   2.023  0.00  0.00     0.225 C 
BRANCH  75  76
HETATM   76  N   UNK N   1      25.229   7.777   1.113  0.00  0.00    -0.351 N 
HETATM   77  C   UNK N   1      25.023   8.196  -0.162  0.00  0.00     0.235 C 
HETATM   78  O   UNK N   1      25.979   8.507  -0.854  0.00  0.00    -0.272 OA
HETATM   79  H   UNK N   1      26.153   7.664   1.431  0.00  0.00     0.163 HD
BRANCH  77  80
HETATM   80  C   UNK N   1      23.641   8.290  -0.735  0.00  0.00     0.214 C 
BRANCH  80  81
HETATM   81  N   UNK N   1      23.645   9.184  -1.878  0.00  0.00    -0.422 N 
HETATM   82  H   UNK N   1      23.956  10.151  -1.789  0.00  0.00     0.150 HD
HETATM   83  H   UNK N   1      23.332   8.839  -2.786  0.00  0.00     0.150 HD
ENDBRANCH  80  81
ENDBRANCH  77  80
ENDBRANCH  75  76
ENDBRANCH  72  75
ENDBRANCH  70  71
ENDBRANCH  67  70
ENDBRANCH  20  66
BRANCH  17  84
HETATM   84  C   UNK N   1      21.863  17.929   2.755  0.00  0.00     0.044 C 
BRANCH  84  85
HETATM   85  C   UNK N   1      21.304  19.195   3.391  0.00  0.00     0.105 C 
BRANCH  85  86
HETATM   86  C   UNK N   1      21.355  20.340   2.426  0.00  0.00     0.215 C 
HETATM   87  O   UNK N   1      22.047  21.316   2.668  0.00  0.00    -0.274 OA
HETATM   88  N   UNK N   1      20.630  20.297   1.292  0.00  0.00    -0.370 N 
HETATM   89  H   UNK N   1      20.684  20.701   0.396  0.00  0.00     0.159 HD
HETATM   90  H   UNK N   1      19.844  19.711   1.382  0.00  0.00     0.159 HD
ENDBRANCH  85  86
ENDBRANCH  84  85
ENDBRANCH  17  84
BRANCH  23  91
HETATM   91  C   UNK N   1      19.518  10.366   2.742  0.00  0.00     0.073 C 
BRANCH  91  92
HETATM   92  C   UNK N   1      18.784   9.086   2.922  0.00  0.00    -0.056 A 
HETATM   93  C   UNK N   1      19.437   7.890   2.604  0.00  0.00     0.010 A 
HETATM   94  C   UNK N   1      18.947   6.677   3.082  0.00  0.00     0.037 A 
HETATM   95  C   UNK N   1      17.820   6.658   3.906  0.00  0.00     0.065 A 
HETATM   96  C   UNK N   1      17.146   7.847   4.204  0.00  0.00     0.037 A 
HETATM   97  C   UNK N   1      17.633   9.063   3.720  0.00  0.00     0.010 A 
BRANCH  95  98
HETATM   98  O   UNK N   1      17.395   5.498   4.426  0.00  0.00    -0.361 OA
HETATM   99  H   UNK N   1      17.953   4.745   4.417  0.00  0.00     0.217 HD
ENDBRANCH  95  98
ENDBRANCH  91  92
ENDBRANCH  23  91
BRANCH  21 100
HETATM  100  C   UNK N   1      20.637  13.622   1.491  0.00  0.00     0.073 C 
BRANCH 100 101
HETATM  101  C   UNK N   1      21.943  12.954   1.210  0.00  0.00    -0.056 A 
HETATM  102  C   UNK N   1      22.412  11.939   2.051  0.00  0.00     0.007 A 
HETATM  103  C   UNK N   1      23.631  11.311   1.778  0.00  0.00     0.001 A 
HETATM  104  C   UNK N   1      24.383  11.697   0.663  0.00  0.00     0.000 A 
HETATM  105  C   UNK N   1      23.916  12.706  -0.182  0.00  0.00     0.001 A 
HETATM  106  C   UNK N   1      22.700  13.336   0.092  0.00  0.00     0.007 A 
ENDBRANCH 100 101
ENDBRANCH  21 100
TORSDOF 28
ENDMDL
MODEL 8
REMARK VINA RESULT:      -6.5      6.672     12.496
REMARK  28 active torsions:
REMARK  status: ('A' for Active; 'I' for Inactive)
REMARK    1  A    between atoms: O_15  and  C_81 
REMARK       I    between atoms: N_18  and  C_39 
REMARK       I    between atoms: N_19  and  C_38 
REMARK    2  A    between atoms: C_41  and  N_19 
REMARK       I    between atoms: N_21  and  C_45 
REMARK    3  A    between atoms: N_21  and  C_52 
REMARK    4  A    between atoms: N_23  and  C_50 
REMARK    5  A    between atoms: C_57  and  N_27 
REMARK       I    between atoms: N_27  and  C_70 
REMARK       I    between atoms: N_28  and  C_56 
REMARK       I    between atoms: N_29  and  C_61 
REMARK       I    between atoms: N_30  and  C_68 
REMARK    6  A    between atoms: N_31  and  C_73 
REMARK       I    between atoms: N_31  and  C_82 
REMARK    7  A    between atoms: N_32  and  C_83 
REMARK       I    between atoms: N_32  and  C_84 
REMARK    8  A    between atoms: N_33  and  C_85 
REMARK    9  A    between atoms: C_34  and  C_38 
REMARK   10  A    between atoms: C_40  and  C_39 
REMARK   11  A    between atoms: C_41  and  C_43 
REMARK   12  A    between atoms: C_41  and  C_45 
REMARK   13  A    between atoms: C_43  and  C_44 
REMARK   14  A    between atoms: C_44  and  C_48 
REMARK   15  A    between atoms: C_47  and  C_49 
REMARK   16  A    between atoms: C_48  and  C_50 
REMARK   17  A    between atoms: C_49  and  C_56 
REMARK   18  A    between atoms: C_51  and  C_55 
REMARK   19  A    between atoms: C_52  and  C_61 
REMARK   20  A    between atoms: C_55  and  C_62 
REMARK   21  A    between atoms: C_58  and  C_64 
REMARK   22  A    between atoms: C_60  and  C_66 
REMARK   23  A    between atoms: C_62  and  C_68 
REMARK   24  A    between atoms: C_64  and  C_67 
REMARK   25  A    between atoms: C_66  and  C_69 
REMARK   26  A    between atoms: C_70  and  C_73 
REMARK   27  A    between atoms: C_82  and  C_83 
REMARK   28  A    between atoms: C_84  and  C_85 
ROOT
HETATM    1  S   UNK N   1      34.778  10.411   9.543  0.00  0.00    -0.095 SA
HETATM    2  S   UNK N   1      36.343   9.449   8.496  0.00  0.00    -0.095 SA
HETATM    3  O   UNK N   1      31.150  12.678   5.160  0.00  0.00    -0.271 OA
HETATM    4  O   UNK N   1      34.155   9.224   5.018  0.00  0.00    -0.271 OA
HETATM    5  O   UNK N   1      37.983   7.946   5.161  0.00  0.00    -0.271 OA
HETATM    6  O   UNK N   1      39.912   8.296  11.253  0.00  0.00    -0.271 OA
HETATM    7  O   UNK N   1      41.263   6.504   7.165  0.00  0.00    -0.271 OA
HETATM    8  N   UNK N   1      32.674  12.067   6.639  0.00  0.00    -0.345 N 
HETATM    9  N   UNK N   1      34.403  11.316   4.244  0.00  0.00    -0.346 N 
HETATM   10  N   UNK N   1      37.346  10.083   5.102  0.00  0.00    -0.346 N 
HETATM   11  N   UNK N   1      40.280   8.235   6.195  0.00  0.00    -0.346 N 
HETATM   12  N   UNK N   1      39.382   8.589   9.098  0.00  0.00    -0.346 N 
HETATM   13  C   UNK N   1      33.908  11.460   7.035  0.00  0.00     0.186 C 
HETATM   14  C   UNK N   1      33.638  10.406   8.126  0.00  0.00     0.120 C 
HETATM   15  C   UNK N   1      32.227  12.142   5.360  0.00  0.00     0.241 C 
HETATM   16  C   UNK N   1      32.982  11.624   4.147  0.00  0.00     0.185 C 
HETATM   17  C   UNK N   1      36.285   9.725   4.196  0.00  0.00     0.177 C 
HETATM   18  C   UNK N   1      34.896  10.096   4.591  0.00  0.00     0.241 C 
HETATM   19  C   UNK N   1      36.590   8.370   9.935  0.00  0.00     0.120 C 
HETATM   20  C   UNK N   1      37.671   8.911  10.873  0.00  0.00     0.186 C 
HETATM   21  C   UNK N   1      39.460   9.419   6.251  0.00  0.00     0.180 C 
HETATM   22  C   UNK N   1      38.201   9.106   5.492  0.00  0.00     0.241 C 
HETATM   23  C   UNK N   1      40.704   8.233   8.657  0.00  0.00     0.180 C 
HETATM   24  C   UNK N   1      39.067   8.583  10.417  0.00  0.00     0.242 C 
HETATM   25  C   UNK N   1      40.733   7.596   7.292  0.00  0.00     0.241 C 
HETATM   26  H   UNK N   1      32.109  12.458   7.344  0.00  0.00     0.163 HD
HETATM   27  H   UNK N   1      35.046  12.034   4.044  0.00  0.00     0.163 HD
HETATM   28  H   UNK N   1      37.448  11.006   5.427  0.00  0.00     0.163 HD
HETATM   29  H   UNK N   1      40.520   7.874   5.311  0.00  0.00     0.163 HD
HETATM   30  H   UNK N   1      38.698   8.840   8.436  0.00  0.00     0.163 HD
ENDROOT
BRANCH  13  31
HETATM   31  C   UNK N   1      34.947  12.541   7.244  0.00  0.00     0.244 C 
HETATM   32  O   UNK N   1      36.013  12.428   6.667  0.00  0.00    -0.271 OA
HETATM   33  N   UNK N   1      34.701  13.633   8.021  0.00  0.00    -0.337 N 
HETATM   34  C   UNK N   1      33.620  13.661   8.942  0.00  0.00     0.179 C 
HETATM   35  C   UNK N   1      35.742  14.576   8.317  0.00  0.00     0.127 C 
HETATM   36  C   UNK N   1      34.297  14.120  10.226  0.00  0.00     0.037 C 
HETATM   37  C   UNK N   1      35.484  14.974   9.762  0.00  0.00     0.022 C 
BRANCH  34  38
HETATM   38  C   UNK N   1      32.501  14.592   8.593  0.00  0.00     0.241 C 
HETATM   39  O   UNK N   1      31.677  14.867   9.451  0.00  0.00    -0.271 OA
HETATM   40  N   UNK N   1      32.595  15.332   7.458  0.00  0.00    -0.346 N 
HETATM   41  H   UNK N   1      33.092  14.961   6.694  0.00  0.00     0.163 HD
BRANCH  40  42
HETATM   42  C   UNK N   1      31.997  16.645   7.323  0.00  0.00     0.176 C 
BRANCH  42  43
HETATM   43  C   UNK N   1      32.265  17.257   5.940  0.00  0.00     0.035 C 
BRANCH  43  44
HETATM   44  C   UNK N   1      33.495  16.670   5.241  0.00  0.00     0.004 C 
BRANCH  44  45
HETATM   45  C   UNK N   1      33.226  16.227   3.810  0.00  0.00     0.019 C 
BRANCH  45  46
HETATM   46  C   UNK N   1      33.993  14.961   3.479  0.00  0.00     0.111 C 
BRANCH  46  47
HETATM   47  N   UNK N   1      33.607  14.481   2.165  0.00  0.00    -0.430 N 
HETATM   48  H   UNK N   1      33.659  13.486   1.947  0.00  0.00     0.149 HD
HETATM   49  H   UNK N   1      33.282  15.140   1.458  0.00  0.00     0.149 HD
ENDBRANCH  46  47
ENDBRANCH  45  46
ENDBRANCH  44  45
ENDBRANCH  43  44
ENDBRANCH  42  43
BRANCH  42  50
HETATM   50  C   UNK N   1      32.270  17.615   8.434  0.00  0.00     0.240 C 
HETATM   51  O   UNK N   1      33.419  17.832   8.788  0.00  0.00    -0.271 OA
HETATM   52  N   UNK N   1      31.256  18.330   8.991  0.00  0.00    -0.351 N 
HETATM   53  H   UNK N   1      31.491  19.007   9.665  0.00  0.00     0.163 HD
BRANCH  52  54
HETATM   54  C   UNK N   1      29.848  18.163   8.663  0.00  0.00     0.225 C 
BRANCH  54  55
HETATM   55  C   UNK N   1      29.075  17.364   9.677  0.00  0.00     0.233 C 
HETATM   56  O   UNK N   1      27.865  17.257   9.560  0.00  0.00    -0.272 OA
HETATM   57  N   UNK N   1      29.701  16.780  10.718  0.00  0.00    -0.369 N 
HETATM   58  H   UNK N   1      29.635  16.184  11.500  0.00  0.00     0.159 HD
HETATM   59  H   UNK N   1      30.638  17.080  10.680  0.00  0.00     0.159 HD
ENDBRANCH  54  55
ENDBRANCH  52  54
ENDBRANCH  42  50
ENDBRANCH  40  42
ENDBRANCH  34  38
ENDBRANCH  13  31
BRANCH  16  60
HETATM   60  C   UNK N   1      32.194  10.566   3.369  0.00  0.00     0.137 C 
BRANCH  60  61
HETATM   61  C   UNK N   1      32.292  10.765   1.888  0.00  0.00     0.217 C 
HETATM   62  O   UNK N   1      33.160  11.477   1.412  0.00  0.00    -0.274 OA
HETATM   63  N   UNK N   1      31.427  10.134   1.073  0.00  0.00    -0.370 N 
HETATM   64  H   UNK N   1      30.473  10.044   1.293  0.00  0.00     0.159 HD
HETATM   65  H   UNK N   1      31.761   9.750   0.229  0.00  0.00     0.159 HD
ENDBRANCH  60  61
ENDBRANCH  16  60
BRANCH  20  66
HETATM   66  N   UNK N   1      37.425  10.286  11.311  0.00  0.00    -0.346 N 
HETATM   67  C   UNK N   1      37.259  10.714  12.594  0.00  0.00     0.236 C 
HETATM   68  O   UNK N   1      37.269   9.922  13.526  0.00  0.00    -0.272 OA
HETATM   69  H   UNK N   1      37.373  10.972  10.607  0.00  0.00     0.163 HD
BRANCH  67  70
HETATM   70  C   UNK N   1      37.072  12.180  12.877  0.00  0.00     0.225 C 
BRANCH  70  71
HETATM   71  N   UNK N   1      36.615  12.327  14.237  0.00  0.00    -0.351 N 
HETATM   72  C   UNK N   1      35.358  12.685  14.576  0.00  0.00     0.235 C 
HETATM   73  O   UNK N   1      34.557  13.059  13.732  0.00  0.00    -0.272 OA
HETATM   74  H   UNK N   1      37.258  12.154  14.962  0.00  0.00     0.163 HD
BRANCH  72  75
HETATM   75  C   UNK N   1      34.927  12.510  15.994  0.00  0.00     0.225 C 
BRANCH  75  76
HETATM   76  N   UNK N   1      35.069  13.785  16.668  0.00  0.00    -0.351 N 
HETATM   77  C   UNK N   1      35.258  13.884  18.008  0.00  0.00     0.235 C 
HETATM   78  O   UNK N   1      35.458  14.980  18.508  0.00  0.00    -0.272 OA
HETATM   79  H   UNK N   1      35.028  14.610  16.133  0.00  0.00     0.163 HD
BRANCH  77  80
HETATM   80  C   UNK N   1      35.228  12.672  18.889  0.00  0.00     0.214 C 
BRANCH  80  81
HETATM   81  N   UNK N   1      34.985  13.070  20.264  0.00  0.00    -0.422 N 
HETATM   82  H   UNK N   1      34.645  14.005  20.488  0.00  0.00     0.150 HD
HETATM   83  H   UNK N   1      35.157  12.404  21.017  0.00  0.00     0.150 HD
ENDBRANCH  80  81
ENDBRANCH  77  80
ENDBRANCH  75  76
ENDBRANCH  72  75
ENDBRANCH  70  71
ENDBRANCH  67  70
ENDBRANCH  20  66
BRANCH  17  84
HETATM   84  C   UNK N   1      36.621  10.094   2.758  0.00  0.00     0.044 C 
BRANCH  84  85
HETATM   85  C   UNK N   1      37.665  11.202   2.726  0.00  0.00     0.105 C 
BRANCH  85  86
HETATM   86  C   UNK N   1      37.013  12.549   2.808  0.00  0.00     0.215 C 
HETATM   87  O   UNK N   1      36.214  12.897   1.954  0.00  0.00    -0.274 OA
HETATM   88  N   UNK N   1      37.316  13.382   3.823  0.00  0.00    -0.370 N 
HETATM   89  H   UNK N   1      36.873  14.125   4.290  0.00  0.00     0.159 HD
HETATM   90  H   UNK N   1      38.210  13.199   4.192  0.00  0.00     0.159 HD
ENDBRANCH  85  86
ENDBRANCH  84  85
ENDBRANCH  17  84
BRANCH  23  91
HETATM   91  C   UNK N   1      41.719   9.377   8.773  0.00  0.00     0.073 C 
BRANCH  91  92
HETATM   92  C   UNK N   1      43.003   8.682   9.056  0.00  0.00    -0.056 A 
HETATM   93  C   UNK N   1      44.182   9.209   8.519  0.00  0.00     0.010 A 
HETATM   94  C   UNK N   1      45.418   8.825   9.033  0.00  0.00     0.037 A 
HETATM   95  C   UNK N   1      45.478   7.936  10.108  0.00  0.00     0.065 A 
HETATM   96  C   UNK N   1      44.304   7.382  10.631  0.00  0.00     0.037 A 
HETATM   97  C   UNK N   1      43.065   7.762  10.112  0.00  0.00     0.010 A 
BRANCH  95  98
HETATM   98  O   UNK N   1      46.664   7.625  10.650  0.00  0.00    -0.361 OA
HETATM   99  H   UNK N   1      47.257   8.304  10.906  0.00  0.00     0.217 HD
ENDBRANCH  95  98
ENDBRANCH  91  92
ENDBRANCH  23  91
BRANCH  21 100
HETATM  100  C   UNK N   1      40.213  10.608   5.669  0.00  0.00     0.073 C 
BRANCH 100 101
HETATM  101  C   UNK N   1      39.909  11.827   6.479  0.00  0.00    -0.056 A 
HETATM  102  C   UNK N   1      39.297  11.707   7.731  0.00  0.00     0.007 A 
HETATM  103  C   UNK N   1      39.022  12.851   8.488  0.00  0.00     0.001 A 
HETATM  104  C   UNK N   1      39.360  14.115   7.993  0.00  0.00     0.000 A 
HETATM  105  C   UNK N   1      39.975  14.238   6.746  0.00  0.00     0.001 A 
HETATM  106  C   UNK N   1      40.246  13.097   5.988  0.00  0.00     0.007 A 
ENDBRANCH 100 101
ENDBRANCH  21 100
TORSDOF 28
ENDMDL
MODEL 9
REMARK VINA RESULT:      -6.4      2.000      3.620
REMARK  28 active torsions:
REMARK  status: ('A' for Active; 'I' for Inactive)
REMARK    1  A    between atoms: O_15  and  C_81 
REMARK       I    between atoms: N_18  and  C_39 
REMARK       I    between atoms: N_19  and  C_38 
REMARK    2  A    between atoms: C_41  and  N_19 
REMARK       I    between atoms: N_21  and  C_45 
REMARK    3  A    between atoms: N_21  and  C_52 
REMARK    4  A    between atoms: N_23  and  C_50 
REMARK    5  A    between atoms: C_57  and  N_27 
REMARK       I    between atoms: N_27  and  C_70 
REMARK       I    between atoms: N_28  and  C_56 
REMARK       I    between atoms: N_29  and  C_61 
REMARK       I    between atoms: N_30  and  C_68 
REMARK    6  A    between atoms: N_31  and  C_73 
REMARK       I    between atoms: N_31  and  C_82 
REMARK    7  A    between atoms: N_32  and  C_83 
REMARK       I    between atoms: N_32  and  C_84 
REMARK    8  A    between atoms: N_33  and  C_85 
REMARK    9  A    between atoms: C_34  and  C_38 
REMARK   10  A    between atoms: C_40  and  C_39 
REMARK   11  A    between atoms: C_41  and  C_43 
REMARK   12  A    between atoms: C_41  and  C_45 
REMARK   13  A    between atoms: C_43  and  C_44 
REMARK   14  A    between atoms: C_44  and  C_48 
REMARK   15  A    between atoms: C_47  and  C_49 
REMARK   16  A    between atoms: C_48  and  C_50 
REMARK   17  A    between atoms: C_49  and  C_56 
REMARK   18  A    between atoms: C_51  and  C_55 
REMARK   19  A    between atoms: C_52  and  C_61 
REMARK   20  A    between atoms: C_55  and  C_62 
REMARK   21  A    between atoms: C_58  and  C_64 
REMARK   22  A    between atoms: C_60  and  C_66 
REMARK   23  A    between atoms: C_62  and  C_68 
REMARK   24  A    between atoms: C_64  and  C_67 
REMARK   25  A    between atoms: C_66  and  C_69 
REMARK   26  A    between atoms: C_70  and  C_73 
REMARK   27  A    between atoms: C_82  and  C_83 
REMARK   28  A    between atoms: C_84  and  C_85 
ROOT
HETATM    1  S   UNK N   1      28.106  14.443   2.611  0.00  0.00    -0.095 SA
HETATM    2  S   UNK N   1      29.901  14.982   3.590  0.00  0.00    -0.095 SA
HETATM    3  O   UNK N   1      23.911  18.311   4.837  0.00  0.00    -0.271 OA
HETATM    4  O   UNK N   1      28.469  18.702   4.611  0.00  0.00    -0.271 OA
HETATM    5  O   UNK N   1      32.122  17.471   5.815  0.00  0.00    -0.271 OA
HETATM    6  O   UNK N   1      33.284  11.837   3.009  0.00  0.00    -0.271 OA
HETATM    7  O   UNK N   1      35.493  15.161   5.420  0.00  0.00    -0.271 OA
HETATM    8  N   UNK N   1      25.437  16.797   4.326  0.00  0.00    -0.345 N 
HETATM    9  N   UNK N   1      27.204  18.178   6.390  0.00  0.00    -0.346 N 
HETATM   10  N   UNK N   1      30.186  16.786   6.687  0.00  0.00    -0.346 N 
HETATM   11  N   UNK N   1      33.586  15.514   6.489  0.00  0.00    -0.346 N 
HETATM   12  N   UNK N   1      32.695  13.562   4.308  0.00  0.00    -0.346 N 
HETATM   13  C   UNK N   1      26.749  16.229   4.378  0.00  0.00     0.186 C 
HETATM   14  C   UNK N   1      27.283  16.030   2.946  0.00  0.00     0.120 C 
HETATM   15  C   UNK N   1      25.061  17.927   4.974  0.00  0.00     0.241 C 
HETATM   16  C   UNK N   1      25.963  18.747   5.882  0.00  0.00     0.185 C 
HETATM   17  C   UNK N   1      29.664  18.120   6.534  0.00  0.00     0.177 C 
HETATM   18  C   UNK N   1      28.402  18.274   5.753  0.00  0.00     0.241 C 
HETATM   19  C   UNK N   1      30.826  14.298   2.185  0.00  0.00     0.120 C 
HETATM   20  C   UNK N   1      31.237  12.844   2.427  0.00  0.00     0.186 C 
HETATM   21  C   UNK N   1      32.175  15.279   6.671  0.00  0.00     0.180 C 
HETATM   22  C   UNK N   1      31.479  16.570   6.343  0.00  0.00     0.241 C 
HETATM   23  C   UNK N   1      33.897  13.467   5.092  0.00  0.00     0.180 C 
HETATM   24  C   UNK N   1      32.473  12.713   3.274  0.00  0.00     0.242 C 
HETATM   25  C   UNK N   1      34.356  14.786   5.656  0.00  0.00     0.241 C 
HETATM   26  H   UNK N   1      24.759  16.335   3.782  0.00  0.00     0.163 HD
HETATM   27  H   UNK N   1      27.174  17.696   7.248  0.00  0.00     0.163 HD
HETATM   28  H   UNK N   1      29.624  16.055   7.030  0.00  0.00     0.163 HD
HETATM   29  H   UNK N   1      34.008  16.243   6.998  0.00  0.00     0.163 HD
HETATM   30  H   UNK N   1      32.026  14.251   4.523  0.00  0.00     0.163 HD
ENDROOT
BRANCH  13  31
HETATM   31  C   UNK N   1      26.757  15.086   5.371  0.00  0.00     0.244 C 
HETATM   32  O   UNK N   1      27.674  15.029   6.169  0.00  0.00    -0.271 OA
HETATM   33  N   UNK N   1      25.754  14.163   5.411  0.00  0.00    -0.337 N 
HETATM   34  C   UNK N   1      24.846  14.006   4.330  0.00  0.00     0.179 C 
HETATM   35  C   UNK N   1      25.846  13.013   6.265  0.00  0.00     0.127 C 
HETATM   36  C   UNK N   1      24.890  12.505   4.081  0.00  0.00     0.037 C 
HETATM   37  C   UNK N   1      25.231  11.890   5.444  0.00  0.00     0.022 C 
BRANCH  34  38
HETATM   38  C   UNK N   1      23.439  14.438   4.605  0.00  0.00     0.241 C 
HETATM   39  O   UNK N   1      23.227  15.172   5.558  0.00  0.00    -0.271 OA
HETATM   40  N   UNK N   1      22.499  14.261   3.641  0.00  0.00    -0.346 N 
HETATM   41  H   UNK N   1      22.596  13.501   3.023  0.00  0.00     0.163 HD
BRANCH  40  42
HETATM   42  C   UNK N   1      21.360  15.142   3.482  0.00  0.00     0.176 C 
BRANCH  42  43
HETATM   43  C   UNK N   1      20.030  14.400   3.678  0.00  0.00     0.035 C 
BRANCH  43  44
HETATM   44  C   UNK N   1      19.190  14.950   4.835  0.00  0.00     0.004 C 
BRANCH  44  45
HETATM   45  C   UNK N   1      19.934  14.990   6.161  0.00  0.00     0.019 C 
BRANCH  45  46
HETATM   46  C   UNK N   1      19.901  16.383   6.762  0.00  0.00     0.111 C 
BRANCH  46  47
HETATM   47  N   UNK N   1      21.254  16.833   7.035  0.00  0.00    -0.430 N 
HETATM   48  H   UNK N   1      21.655  17.604   6.501  0.00  0.00     0.149 HD
HETATM   49  H   UNK N   1      21.804  16.377   7.762  0.00  0.00     0.149 HD
ENDBRANCH  46  47
ENDBRANCH  45  46
ENDBRANCH  44  45
ENDBRANCH  43  44
ENDBRANCH  42  43
BRANCH  42  50
HETATM   50  C   UNK N   1      21.353  15.999   2.250  0.00  0.00     0.240 C 
HETATM   51  O   UNK N   1      21.557  15.498   1.155  0.00  0.00    -0.271 OA
HETATM   52  N   UNK N   1      21.028  17.317   2.329  0.00  0.00    -0.351 N 
HETATM   53  H   UNK N   1      20.965  17.823   1.487  0.00  0.00     0.163 HD
BRANCH  52  54
HETATM   54  C   UNK N   1      20.770  18.034   3.569  0.00  0.00     0.225 C 
BRANCH  54  55
HETATM   55  C   UNK N   1      21.093  19.502   3.504  0.00  0.00     0.233 C 
HETATM   56  O   UNK N   1      20.295  20.311   3.947  0.00  0.00    -0.272 OA
HETATM   57  N   UNK N   1      22.245  19.932   2.951  0.00  0.00    -0.369 N 
HETATM   58  H   UNK N   1      22.844  20.691   2.762  0.00  0.00     0.159 HD
HETATM   59  H   UNK N   1      22.680  19.136   2.568  0.00  0.00     0.159 HD
ENDBRANCH  54  55
ENDBRANCH  52  54
ENDBRANCH  42  50
ENDBRANCH  40  42
ENDBRANCH  34  38
ENDBRANCH  13  31
BRANCH  16  60
HETATM   60  C   UNK N   1      26.122  20.194   5.404  0.00  0.00     0.137 C 
BRANCH  60  61
HETATM   61  C   UNK N   1      26.612  21.097   6.495  0.00  0.00     0.217 C 
HETATM   62  O   UNK N   1      27.505  21.900   6.283  0.00  0.00    -0.274 OA
HETATM   63  N   UNK N   1      26.046  21.037   7.714  0.00  0.00    -0.370 N 
HETATM   64  H   UNK N   1      25.796  20.182   8.132  0.00  0.00     0.159 HD
HETATM   65  H   UNK N   1      25.876  21.876   8.202  0.00  0.00     0.159 HD
ENDBRANCH  60  61
ENDBRANCH  16  60
BRANCH  20  66
HETATM   66  N   UNK N   1      30.110  11.971   2.761  0.00  0.00    -0.346 N 
HETATM   67  C   UNK N   1      29.814  11.459   3.988  0.00  0.00     0.236 C 
HETATM   68  O   UNK N   1      30.536  11.677   4.951  0.00  0.00    -0.272 OA
HETATM   69  H   UNK N   1      29.504  11.729   2.023  0.00  0.00     0.163 HD
BRANCH  67  70
HETATM   70  C   UNK N   1      28.577  10.622   4.173  0.00  0.00     0.225 C 
BRANCH  70  71
HETATM   71  N   UNK N   1      28.885   9.548   5.084  0.00  0.00    -0.351 N 
HETATM   72  C   UNK N   1      29.100   8.271   4.703  0.00  0.00     0.235 C 
HETATM   73  O   UNK N   1      28.895   7.911   3.553  0.00  0.00    -0.272 OA
HETATM   74  H   UNK N   1      28.944   9.760   6.045  0.00  0.00     0.163 HD
BRANCH  72  75
HETATM   75  C   UNK N   1      29.701   7.326   5.689  0.00  0.00     0.225 C 
BRANCH  75  76
HETATM   76  N   UNK N   1      31.143   7.431   5.593  0.00  0.00    -0.351 N 
HETATM   77  C   UNK N   1      31.901   7.987   6.572  0.00  0.00     0.235 C 
HETATM   78  O   UNK N   1      33.117   7.970   6.474  0.00  0.00    -0.272 OA
HETATM   79  H   UNK N   1      31.589   7.086   4.786  0.00  0.00     0.163 HD
BRANCH  77  80
HETATM   80  C   UNK N   1      31.271   8.620   7.776  0.00  0.00     0.214 C 
BRANCH  80  81
HETATM   81  N   UNK N   1      31.990   9.833   8.123  0.00  0.00    -0.422 N 
HETATM   82  H   UNK N   1      32.089  10.125   9.095  0.00  0.00     0.150 HD
HETATM   83  H   UNK N   1      32.402  10.401   7.383  0.00  0.00     0.150 HD
ENDBRANCH  80  81
ENDBRANCH  77  80
ENDBRANCH  75  76
ENDBRANCH  72  75
ENDBRANCH  70  71
ENDBRANCH  67  70
ENDBRANCH  20  66
BRANCH  17  84
HETATM   84  C   UNK N   1      29.651  18.877   7.854  0.00  0.00     0.044 C 
BRANCH  84  85
HETATM   85  C   UNK N   1      30.211  18.004   8.970  0.00  0.00     0.105 C 
BRANCH  85  86
HETATM   86  C   UNK N   1      29.104  17.421   9.794  0.00  0.00     0.215 C 
HETATM   87  O   UNK N   1      27.942  17.696   9.545  0.00  0.00    -0.274 OA
HETATM   88  N   UNK N   1      29.392  16.595  10.819  0.00  0.00    -0.370 N 
HETATM   89  H   UNK N   1      28.932  15.870  11.301  0.00  0.00     0.159 HD
HETATM   90  H   UNK N   1      30.294  16.756  11.177  0.00  0.00     0.159 HD
ENDBRANCH  85  86
ENDBRANCH  84  85
ENDBRANCH  17  84
BRANCH  23  91
HETATM   91  C   UNK N   1      33.843  12.375   6.169  0.00  0.00     0.073 C 
BRANCH  91  92
HETATM   92  C   UNK N   1      35.251  11.909   6.269  0.00  0.00    -0.056 A 
HETATM   93  C   UNK N   1      35.932  11.577   5.093  0.00  0.00     0.010 A 
HETATM   94  C   UNK N   1      37.322  11.488   5.090  0.00  0.00     0.037 A 
HETATM   95  C   UNK N   1      38.038  11.760   6.258  0.00  0.00     0.065 A 
HETATM   96  C   UNK N   1      37.362  12.063   7.444  0.00  0.00     0.037 A 
HETATM   97  C   UNK N   1      35.968  12.147   7.449  0.00  0.00     0.010 A 
BRANCH  95  98
HETATM   98  O   UNK N   1      39.379  11.746   6.234  0.00  0.00    -0.361 OA
HETATM   99  H   UNK N   1      39.865  11.884   7.023  0.00  0.00     0.217 HD
ENDBRANCH  95  98
ENDBRANCH  91  92
ENDBRANCH  23  91
BRANCH  21 100
HETATM  100  C   UNK N   1      31.900  14.811   8.094  0.00  0.00     0.073 C 
BRANCH 100 101
HETATM  101  C   UNK N   1      33.104  15.073   8.939  0.00  0.00    -0.056 A 
HETATM  102  C   UNK N   1      33.555  16.382   9.138  0.00  0.00     0.007 A 
HETATM  103  C   UNK N   1      34.678  16.622   9.938  0.00  0.00     0.001 A 
HETATM  104  C   UNK N   1      35.350  15.552  10.539  0.00  0.00     0.000 A 
HETATM  105  C   UNK N   1      34.899  14.245  10.347  0.00  0.00     0.001 A 
HETATM  106  C   UNK N   1      33.781  14.005   9.546  0.00  0.00     0.007 A 
ENDBRANCH 100 101
ENDBRANCH  21 100
TORSDOF 28
ENDMDL
