MODEL 1
REMARK VINA RESULT:      -5.5      0.000      0.000
REMARK  10 active torsions:
REMARK  status: ('A' for Active; 'I' for Inactive)
REMARK    1  A    between atoms: O_1  and  C_8 
REMARK    2  A    between atoms: O_1  and  C_11 
REMARK    3  A    between atoms: O_2  and  C_5 
REMARK    4  A    between atoms: O_3  and  C_18 
REMARK    5  A    between atoms: N_4  and  C_6 
REMARK    6  A    between atoms: N_4  and  C_7 
REMARK    7  A    between atoms: C_5  and  C_6 
REMARK    8  A    between atoms: C_5  and  C_8 
REMARK    9  A    between atoms: C_12  and  C_13 
REMARK   10  A    between atoms: C_13  and  C_18 
ROOT
HETATM    1  O   UNK N   1      35.585  13.490  11.750  0.00  0.00    -0.349 OA
ENDROOT
BRANCH   1   2
HETATM    2  C   UNK N   1      36.754  13.792  11.086  0.00  0.00     0.209 C 
BRANCH   2   3
HETATM    3  C   UNK N   1      36.580  15.001  10.187  0.00  0.00     0.159 C 
BRANCH   3   4
HETATM    4  O   UNK N   1      36.915  16.160  10.891  0.00  0.00    -0.392 OA
HETATM    5  H   UNK N   1      36.334  16.937  10.853  0.00  0.00     0.210 HD
ENDBRANCH   3   4
BRANCH   3   6
HETATM    6  C   UNK N   1      35.122  15.062   9.771  0.00  0.00     0.147 C 
BRANCH   6   7
HETATM    7  N   UNK N   1      34.525  16.324  10.179  0.00  0.00    -0.415 N 
HETATM    8  H   UNK N   1      34.615  16.768  11.093  0.00  0.00     0.153 HD
BRANCH   7   9
HETATM    9  C   UNK N   1      33.775  16.833   9.041  0.00  0.00     0.068 C 
HETATM   10  C   UNK N   1      33.592  15.739   8.002  0.00  0.00     0.031 C 
HETATM   11  C   UNK N   1      34.531  17.985   8.413  0.00  0.00     0.031 C 
ENDBRANCH   7   9
ENDBRANCH   6   7
ENDBRANCH   3   6
ENDBRANCH   2   3
ENDBRANCH   1   2
BRANCH   1  12
HETATM   12  C   UNK N   1      35.542  13.230  13.079  0.00  0.00     0.068 A 
HETATM   13  C   UNK N   1      36.362  13.964  13.942  0.00  0.00     0.037 A 
HETATM   14  C   UNK N   1      36.296  13.758  15.324  0.00  0.00     0.010 A 
HETATM   15  C   UNK N   1      35.412  12.806  15.858  0.00  0.00    -0.056 A 
HETATM   16  C   UNK N   1      34.610  12.055  14.994  0.00  0.00     0.010 A 
HETATM   17  C   UNK N   1      34.669  12.266  13.613  0.00  0.00     0.037 A 
BRANCH  15  18
HETATM   18  C   UNK N   1      35.280  12.582  17.338  0.00  0.00     0.064 C 
BRANCH  18  19
HETATM   19  C   UNK N   1      35.185  13.866  18.153  0.00  0.00     0.171 C 
BRANCH  19  20
HETATM   20  O   UNK N   1      35.118  13.555  19.510  0.00  0.00    -0.396 OA
HETATM   21  C   UNK N   1      35.376  12.186  19.571  0.00  0.00     0.201 C 
ENDBRANCH  19  20
ENDBRANCH  18  19
ENDBRANCH  15  18
ENDBRANCH   1  12
TORSDOF 10
ENDMDL
MODEL 2
REMARK VINA RESULT:      -5.4      2.748      7.750
REMARK  10 active torsions:
REMARK  status: ('A' for Active; 'I' for Inactive)
REMARK    1  A    between atoms: O_1  and  C_8 
REMARK    2  A    between atoms: O_1  and  C_11 
REMARK    3  A    between atoms: O_2  and  C_5 
REMARK    4  A    between atoms: O_3  and  C_18 
REMARK    5  A    between atoms: N_4  and  C_6 
REMARK    6  A    between atoms: N_4  and  C_7 
REMARK    7  A    between atoms: C_5  and  C_6 
REMARK    8  A    between atoms: C_5  and  C_8 
REMARK    9  A    between atoms: C_12  and  C_13 
REMARK   10  A    between atoms: C_13  and  C_18 
ROOT
HETATM    1  O   UNK N   1      34.640  13.910  12.117  0.00  0.00    -0.349 OA
ENDROOT
BRANCH   1   2
HETATM    2  C   UNK N   1      34.981  12.626  11.751  0.00  0.00     0.209 C 
BRANCH   2   3
HETATM    3  C   UNK N   1      36.482  12.420  11.801  0.00  0.00     0.159 C 
BRANCH   3   4
HETATM    4  O   UNK N   1      36.805  11.187  11.229  0.00  0.00    -0.392 OA
HETATM    5  H   UNK N   1      37.637  11.081  10.740  0.00  0.00     0.210 HD
ENDBRANCH   3   4
BRANCH   3   6
HETATM    6  C   UNK N   1      36.902  12.429  13.259  0.00  0.00     0.147 C 
BRANCH   6   7
HETATM    7  N   UNK N   1      37.039  13.794  13.744  0.00  0.00    -0.415 N 
HETATM    8  H   UNK N   1      37.185  14.627  13.173  0.00  0.00     0.153 HD
BRANCH   7   9
HETATM    9  C   UNK N   1      36.929  13.749  15.194  0.00  0.00     0.068 C 
HETATM   10  C   UNK N   1      35.526  13.331  15.600  0.00  0.00     0.031 C 
HETATM   11  C   UNK N   1      37.219  15.120  15.766  0.00  0.00     0.031 C 
ENDBRANCH   7   9
ENDBRANCH   6   7
ENDBRANCH   3   6
ENDBRANCH   2   3
ENDBRANCH   1   2
BRANCH   1  12
HETATM   12  C   UNK N   1      34.557  14.929  11.227  0.00  0.00     0.068 A 
HETATM   13  C   UNK N   1      35.397  16.037  11.382  0.00  0.00     0.037 A 
HETATM   14  C   UNK N   1      35.374  17.076  10.446  0.00  0.00     0.010 A 
HETATM   15  C   UNK N   1      34.503  17.022   9.346  0.00  0.00    -0.056 A 
HETATM   16  C   UNK N   1      33.647  15.925   9.203  0.00  0.00     0.010 A 
HETATM   17  C   UNK N   1      33.674  14.883  10.134  0.00  0.00     0.037 A 
BRANCH  15  18
HETATM   18  C   UNK N   1      34.477  18.096   8.296  0.00  0.00     0.064 C 
BRANCH  18  19
HETATM   19  C   UNK N   1      33.510  17.820   7.151  0.00  0.00     0.171 C 
BRANCH  19  20
HETATM   20  O   UNK N   1      34.222  17.687   5.959  0.00  0.00    -0.396 OA
HETATM   21  C   UNK N   1      33.819  16.456   5.444  0.00  0.00     0.201 C 
ENDBRANCH  19  20
ENDBRANCH  18  19
ENDBRANCH  15  18
ENDBRANCH   1  12
TORSDOF 10
ENDMDL
MODEL 3
REMARK VINA RESULT:      -5.3     13.261     17.065
REMARK  10 active torsions:
REMARK  status: ('A' for Active; 'I' for Inactive)
REMARK    1  A    between atoms: O_1  and  C_8 
REMARK    2  A    between atoms: O_1  and  C_11 
REMARK    3  A    between atoms: O_2  and  C_5 
REMARK    4  A    between atoms: O_3  and  C_18 
REMARK    5  A    between atoms: N_4  and  C_6 
REMARK    6  A    between atoms: N_4  and  C_7 
REMARK    7  A    between atoms: C_5  and  C_6 
REMARK    8  A    between atoms: C_5  and  C_8 
REMARK    9  A    between atoms: C_12  and  C_13 
REMARK   10  A    between atoms: C_13  and  C_18 
ROOT
HETATM    1  O   UNK N   1      22.599  20.963   2.581  0.00  0.00    -0.349 OA
ENDROOT
BRANCH   1   2
HETATM    2  C   UNK N   1      21.319  20.685   3.007  0.00  0.00     0.209 C 
BRANCH   2   3
HETATM    3  C   UNK N   1      20.562  19.867   1.978  0.00  0.00     0.159 C 
BRANCH   3   4
HETATM    4  O   UNK N   1      20.153  20.695   0.930  0.00  0.00    -0.392 OA
HETATM    5  H   UNK N   1      19.892  20.309   0.079  0.00  0.00     0.210 HD
ENDBRANCH   3   4
BRANCH   3   6
HETATM    6  C   UNK N   1      19.345  19.274   2.663  0.00  0.00     0.147 C 
BRANCH   6   7
HETATM    7  N   UNK N   1      18.888  18.087   1.958  0.00  0.00    -0.415 N 
HETATM    8  H   UNK N   1      17.919  17.827   1.775  0.00  0.00     0.153 HD
BRANCH   7   9
HETATM    9  C   UNK N   1      20.072  17.338   1.562  0.00  0.00     0.068 C 
HETATM   10  C   UNK N   1      19.852  16.691   0.204  0.00  0.00     0.031 C 
HETATM   11  C   UNK N   1      20.350  16.256   2.583  0.00  0.00     0.031 C 
ENDBRANCH   7   9
ENDBRANCH   6   7
ENDBRANCH   3   6
ENDBRANCH   2   3
ENDBRANCH   1   2
BRANCH   1  12
HETATM   12  C   UNK N   1      23.685  20.288   3.030  0.00  0.00     0.068 A 
HETATM   13  C   UNK N   1      24.960  20.721   2.651  0.00  0.00     0.037 A 
HETATM   14  C   UNK N   1      26.100  20.080   3.147  0.00  0.00     0.010 A 
HETATM   15  C   UNK N   1      25.976  18.989   4.023  0.00  0.00    -0.056 A 
HETATM   16  C   UNK N   1      24.701  18.541   4.383  0.00  0.00     0.010 A 
HETATM   17  C   UNK N   1      23.561  19.186   3.895  0.00  0.00     0.037 A 
BRANCH  15  18
HETATM   18  C   UNK N   1      27.174  18.299   4.611  0.00  0.00     0.064 C 
BRANCH  18  19
HETATM   19  C   UNK N   1      28.090  19.218   5.409  0.00  0.00     0.171 C 
BRANCH  19  20
HETATM   20  O   UNK N   1      27.374  19.796   6.457  0.00  0.00    -0.396 OA
HETATM   21  C   UNK N   1      27.609  21.165   6.331  0.00  0.00     0.201 C 
ENDBRANCH  19  20
ENDBRANCH  18  19
ENDBRANCH  15  18
ENDBRANCH   1  12
TORSDOF 10
ENDMDL
MODEL 4
REMARK VINA RESULT:      -5.2      6.340      9.903
REMARK  10 active torsions:
REMARK  status: ('A' for Active; 'I' for Inactive)
REMARK    1  A    between atoms: O_1  and  C_8 
REMARK    2  A    between atoms: O_1  and  C_11 
REMARK    3  A    between atoms: O_2  and  C_5 
REMARK    4  A    between atoms: O_3  and  C_18 
REMARK    5  A    between atoms: N_4  and  C_6 
REMARK    6  A    between atoms: N_4  and  C_7 
REMARK    7  A    between atoms: C_5  and  C_6 
REMARK    8  A    between atoms: C_5  and  C_8 
REMARK    9  A    between atoms: C_12  and  C_13 
REMARK   10  A    between atoms: C_13  and  C_18 
ROOT
HETATM    1  O   UNK N   1      28.423  16.914   6.955  0.00  0.00    -0.349 OA
ENDROOT
BRANCH   1   2
HETATM    2  C   UNK N   1      28.026  16.332   5.771  0.00  0.00     0.209 C 
BRANCH   2   3
HETATM    3  C   UNK N   1      26.548  16.555   5.516  0.00  0.00     0.159 C 
BRANCH   3   4
HETATM    4  O   UNK N   1      26.081  15.604   4.606  0.00  0.00    -0.392 OA
HETATM    5  H   UNK N   1      25.784  14.735   4.921  0.00  0.00     0.210 HD
ENDBRANCH   3   4
BRANCH   3   6
HETATM    6  C   UNK N   1      26.385  17.944   4.929  0.00  0.00     0.147 C 
BRANCH   6   7
HETATM    7  N   UNK N   1      26.438  18.953   5.976  0.00  0.00    -0.415 N 
HETATM    8  H   UNK N   1      25.919  18.941   6.855  0.00  0.00     0.153 HD
BRANCH   7   9
HETATM    9  C   UNK N   1      27.368  19.982   5.536  0.00  0.00     0.068 C 
HETATM   10  C   UNK N   1      26.931  21.340   6.058  0.00  0.00     0.031 C 
HETATM   11  C   UNK N   1      27.397  20.023   4.023  0.00  0.00     0.031 C 
ENDBRANCH   7   9
ENDBRANCH   6   7
ENDBRANCH   3   6
ENDBRANCH   2   3
ENDBRANCH   1   2
BRANCH   1  12
HETATM   12  C   UNK N   1      29.722  17.158   7.254  0.00  0.00     0.068 A 
HETATM   13  C   UNK N   1      30.704  16.874   6.300  0.00  0.00     0.037 A 
HETATM   14  C   UNK N   1      32.046  17.169   6.558  0.00  0.00     0.010 A 
HETATM   15  C   UNK N   1      32.423  17.746   7.782  0.00  0.00    -0.056 A 
HETATM   16  C   UNK N   1      31.445  18.009   8.746  0.00  0.00     0.010 A 
HETATM   17  C   UNK N   1      30.102  17.721   8.485  0.00  0.00     0.037 A 
BRANCH  15  18
HETATM   18  C   UNK N   1      33.847  18.118   8.083  0.00  0.00     0.064 C 
BRANCH  18  19
HETATM   19  C   UNK N   1      34.625  17.039   8.827  0.00  0.00     0.171 C 
BRANCH  19  20
HETATM   20  O   UNK N   1      35.324  17.613   9.887  0.00  0.00    -0.396 OA
HETATM   21  C   UNK N   1      35.433  16.593  10.832  0.00  0.00     0.201 C 
ENDBRANCH  19  20
ENDBRANCH  18  19
ENDBRANCH  15  18
ENDBRANCH   1  12
TORSDOF 10
ENDMDL
MODEL 5
REMARK VINA RESULT:      -5.2      3.094      7.446
REMARK  10 active torsions:
REMARK  status: ('A' for Active; 'I' for Inactive)
REMARK    1  A    between atoms: O_1  and  C_8 
REMARK    2  A    between atoms: O_1  and  C_11 
REMARK    3  A    between atoms: O_2  and  C_5 
REMARK    4  A    between atoms: O_3  and  C_18 
REMARK    5  A    between atoms: N_4  and  C_6 
REMARK    6  A    between atoms: N_4  and  C_7 
REMARK    7  A    between atoms: C_5  and  C_6 
REMARK    8  A    between atoms: C_5  and  C_8 
REMARK    9  A    between atoms: C_12  and  C_13 
REMARK   10  A    between atoms: C_13  and  C_18 
ROOT
HETATM    1  O   UNK N   1      34.884  13.393  11.777  0.00  0.00    -0.349 OA
ENDROOT
BRANCH   1   2
HETATM    2  C   UNK N   1      35.141  13.436  13.130  0.00  0.00     0.209 C 
BRANCH   2   3
HETATM    3  C   UNK N   1      36.355  12.600  13.486  0.00  0.00     0.159 C 
BRANCH   3   4
HETATM    4  O   UNK N   1      37.265  13.377  14.207  0.00  0.00    -0.392 OA
HETATM    5  H   UNK N   1      37.458  13.164  15.134  0.00  0.00     0.210 HD
ENDBRANCH   3   4
BRANCH   3   6
HETATM    6  C   UNK N   1      36.995  12.139  12.190  0.00  0.00     0.147 C 
BRANCH   6   7
HETATM    7  N   UNK N   1      38.028  13.073  11.768  0.00  0.00    -0.415 N 
HETATM    8  H   UNK N   1      38.472  13.786  12.347  0.00  0.00     0.153 HD
BRANCH   7   9
HETATM    9  C   UNK N   1      38.309  12.800  10.366  0.00  0.00     0.068 C 
HETATM   10  C   UNK N   1      38.269  14.090   9.564  0.00  0.00     0.031 C 
HETATM   11  C   UNK N   1      37.267  11.848   9.819  0.00  0.00     0.031 C 
ENDBRANCH   7   9
ENDBRANCH   6   7
ENDBRANCH   3   6
ENDBRANCH   2   3
ENDBRANCH   1   2
BRANCH   1  12
HETATM   12  C   UNK N   1      34.754  14.509  11.019  0.00  0.00     0.068 A 
HETATM   13  C   UNK N   1      35.440  15.668  11.393  0.00  0.00     0.037 A 
HETATM   14  C   UNK N   1      35.372  16.817  10.597  0.00  0.00     0.010 A 
HETATM   15  C   UNK N   1      34.607  16.820   9.420  0.00  0.00    -0.056 A 
HETATM   16  C   UNK N   1      33.901  15.668   9.058  0.00  0.00     0.010 A 
HETATM   17  C   UNK N   1      33.975  14.517   9.848  0.00  0.00     0.037 A 
BRANCH  15  18
HETATM   18  C   UNK N   1      34.540  18.018   8.516  0.00  0.00     0.064 C 
BRANCH  18  19
HETATM   19  C   UNK N   1      33.563  17.866   7.356  0.00  0.00     0.171 C 
BRANCH  19  20
HETATM   20  O   UNK N   1      34.270  17.788   6.157  0.00  0.00    -0.396 OA
HETATM   21  C   UNK N   1      33.309  17.457   5.202  0.00  0.00     0.201 C 
ENDBRANCH  19  20
ENDBRANCH  18  19
ENDBRANCH  15  18
ENDBRANCH   1  12
TORSDOF 10
ENDMDL
MODEL 6
REMARK VINA RESULT:      -5.2     22.953     24.508
REMARK  10 active torsions:
REMARK  status: ('A' for Active; 'I' for Inactive)
REMARK    1  A    between atoms: O_1  and  C_8 
REMARK    2  A    between atoms: O_1  and  C_11 
REMARK    3  A    between atoms: O_2  and  C_5 
REMARK    4  A    between atoms: O_3  and  C_18 
REMARK    5  A    between atoms: N_4  and  C_6 
REMARK    6  A    between atoms: N_4  and  C_7 
REMARK    7  A    between atoms: C_5  and  C_6 
REMARK    8  A    between atoms: C_5  and  C_8 
REMARK    9  A    between atoms: C_12  and  C_13 
REMARK   10  A    between atoms: C_13  and  C_18 
ROOT
HETATM    1  O   UNK N   1      26.021  28.397  -2.962  0.00  0.00    -0.349 OA
ENDROOT
BRANCH   1   2
HETATM    2  C   UNK N   1      27.204  29.009  -2.606  0.00  0.00     0.209 C 
BRANCH   2   3
HETATM    3  C   UNK N   1      27.303  30.401  -3.202  0.00  0.00     0.159 C 
BRANCH   3   4
HETATM    4  O   UNK N   1      26.028  30.854  -3.547  0.00  0.00    -0.392 OA
HETATM    5  H   UNK N   1      25.641  30.611  -4.403  0.00  0.00     0.210 HD
ENDBRANCH   3   4
BRANCH   3   6
HETATM    6  C   UNK N   1      28.165  30.310  -4.447  0.00  0.00     0.147 C 
BRANCH   6   7
HETATM    7  N   UNK N   1      28.980  29.106  -4.420  0.00  0.00    -0.415 N 
HETATM    8  H   UNK N   1      29.330  28.631  -3.587  0.00  0.00     0.153 HD
BRANCH   7   9
HETATM    9  C   UNK N   1      29.204  28.706  -5.801  0.00  0.00     0.068 C 
HETATM   10  C   UNK N   1      27.997  29.066  -6.652  0.00  0.00     0.031 C 
HETATM   11  C   UNK N   1      29.421  27.209  -5.864  0.00  0.00     0.031 C 
ENDBRANCH   7   9
ENDBRANCH   6   7
ENDBRANCH   3   6
ENDBRANCH   2   3
ENDBRANCH   1   2
BRANCH   1  12
HETATM   12  C   UNK N   1      25.963  27.372  -3.847  0.00  0.00     0.068 A 
HETATM   13  C   UNK N   1      25.270  27.550  -5.048  0.00  0.00     0.037 A 
HETATM   14  C   UNK N   1      25.242  26.530  -6.005  0.00  0.00     0.010 A 
HETATM   15  C   UNK N   1      25.902  25.314  -5.765  0.00  0.00    -0.056 A 
HETATM   16  C   UNK N   1      26.575  25.127  -4.554  0.00  0.00     0.010 A 
HETATM   17  C   UNK N   1      26.610  26.149  -3.600  0.00  0.00     0.037 A 
BRANCH  15  18
HETATM   18  C   UNK N   1      25.932  24.209  -6.782  0.00  0.00     0.064 C 
BRANCH  18  19
HETATM   19  C   UNK N   1      25.677  22.824  -6.201  0.00  0.00     0.171 C 
BRANCH  19  20
HETATM   20  O   UNK N   1      24.785  22.130  -7.018  0.00  0.00    -0.396 OA
HETATM   21  C   UNK N   1      25.103  22.539  -8.313  0.00  0.00     0.201 C 
ENDBRANCH  19  20
ENDBRANCH  18  19
ENDBRANCH  15  18
ENDBRANCH   1  12
TORSDOF 10
ENDMDL
MODEL 7
REMARK VINA RESULT:      -5.2      8.179     11.081
REMARK  10 active torsions:
REMARK  status: ('A' for Active; 'I' for Inactive)
REMARK    1  A    between atoms: O_1  and  C_8 
REMARK    2  A    between atoms: O_1  and  C_11 
REMARK    3  A    between atoms: O_2  and  C_5 
REMARK    4  A    between atoms: O_3  and  C_18 
REMARK    5  A    between atoms: N_4  and  C_6 
REMARK    6  A    between atoms: N_4  and  C_7 
REMARK    7  A    between atoms: C_5  and  C_6 
REMARK    8  A    between atoms: C_5  and  C_8 
REMARK    9  A    between atoms: C_12  and  C_13 
REMARK   10  A    between atoms: C_13  and  C_18 
ROOT
HETATM    1  O   UNK N   1      26.912  16.669   6.635  0.00  0.00    -0.349 OA
ENDROOT
BRANCH   1   2
HETATM    2  C   UNK N   1      26.468  16.181   5.425  0.00  0.00     0.209 C 
BRANCH   2   3
HETATM    3  C   UNK N   1      25.235  16.926   4.951  0.00  0.00     0.159 C 
BRANCH   3   4
HETATM    4  O   UNK N   1      24.644  16.229   3.895  0.00  0.00    -0.392 OA
HETATM    5  H   UNK N   1      25.068  16.219   3.022  0.00  0.00     0.210 HD
ENDBRANCH   3   4
BRANCH   3   6
HETATM    6  C   UNK N   1      25.678  18.296   4.472  0.00  0.00     0.147 C 
BRANCH   6   7
HETATM    7  N   UNK N   1      25.641  19.257   5.563  0.00  0.00    -0.415 N 
HETATM    8  H   UNK N   1      25.024  19.227   6.375  0.00  0.00     0.153 HD
BRANCH   7   9
HETATM    9  C   UNK N   1      26.647  20.269   5.280  0.00  0.00     0.068 C 
HETATM   10  C   UNK N   1      27.589  19.781   4.192  0.00  0.00     0.031 C 
HETATM   11  C   UNK N   1      27.448  20.551   6.533  0.00  0.00     0.031 C 
ENDBRANCH   7   9
ENDBRANCH   6   7
ENDBRANCH   3   6
ENDBRANCH   2   3
ENDBRANCH   1   2
BRANCH   1  12
HETATM   12  C   UNK N   1      28.216  16.939   6.884  0.00  0.00     0.068 A 
HETATM   13  C   UNK N   1      28.599  17.311   8.177  0.00  0.00     0.037 A 
HETATM   14  C   UNK N   1      29.946  17.539   8.476  0.00  0.00     0.010 A 
HETATM   15  C   UNK N   1      30.927  17.405   7.480  0.00  0.00    -0.056 A 
HETATM   16  C   UNK N   1      30.542  17.057   6.182  0.00  0.00     0.010 A 
HETATM   17  C   UNK N   1      29.197  16.821   5.883  0.00  0.00     0.037 A 
BRANCH  15  18
HETATM   18  C   UNK N   1      32.388  17.600   7.769  0.00  0.00     0.064 C 
BRANCH  18  19
HETATM   19  C   UNK N   1      33.276  17.555   6.531  0.00  0.00     0.171 C 
BRANCH  19  20
HETATM   20  O   UNK N   1      34.590  17.857   6.887  0.00  0.00    -0.396 OA
HETATM   21  C   UNK N   1      34.493  18.396   8.169  0.00  0.00     0.201 C 
ENDBRANCH  19  20
ENDBRANCH  18  19
ENDBRANCH  15  18
ENDBRANCH   1  12
TORSDOF 10
ENDMDL
MODEL 8
REMARK VINA RESULT:      -5.2      3.299      5.009
REMARK  10 active torsions:
REMARK  status: ('A' for Active; 'I' for Inactive)
REMARK    1  A    between atoms: O_1  and  C_8 
REMARK    2  A    between atoms: O_1  and  C_11 
REMARK    3  A    between atoms: O_2  and  C_5 
REMARK    4  A    between atoms: O_3  and  C_18 
REMARK    5  A    between atoms: N_4  and  C_6 
REMARK    6  A    between atoms: N_4  and  C_7 
REMARK    7  A    between atoms: C_5  and  C_6 
REMARK    8  A    between atoms: C_5  and  C_8 
REMARK    9  A    between atoms: C_12  and  C_13 
REMARK   10  A    between atoms: C_13  and  C_18 
ROOT
HETATM    1  O   UNK N   1      34.898  13.296  14.964  0.00  0.00    -0.349 OA
ENDROOT
BRANCH   1   2
HETATM    2  C   UNK N   1      35.879  13.980  14.280  0.00  0.00     0.209 C 
BRANCH   2   3
HETATM    3  C   UNK N   1      35.745  13.781  12.783  0.00  0.00     0.159 C 
BRANCH   3   4
HETATM    4  O   UNK N   1      34.480  13.267  12.490  0.00  0.00    -0.392 OA
HETATM    5  H   UNK N   1      34.209  12.408  12.851  0.00  0.00     0.210 HD
ENDBRANCH   3   4
BRANCH   3   6
HETATM    6  C   UNK N   1      36.810  12.790  12.351  0.00  0.00     0.147 C 
BRANCH   6   7
HETATM    7  N   UNK N   1      37.527  12.272  13.506  0.00  0.00    -0.415 N 
HETATM    8  H   UNK N   1      37.844  12.811  14.312  0.00  0.00     0.153 HD
BRANCH   7   9
HETATM    9  C   UNK N   1      37.707  10.844  13.296  0.00  0.00     0.068 C 
HETATM   10  C   UNK N   1      36.361  10.172  13.081  0.00  0.00     0.031 C 
HETATM   11  C   UNK N   1      38.371  10.234  14.513  0.00  0.00     0.031 C 
ENDBRANCH   7   9
ENDBRANCH   6   7
ENDBRANCH   3   6
ENDBRANCH   2   3
ENDBRANCH   1   2
BRANCH   1  12
HETATM   12  C   UNK N   1      35.097  12.762  16.194  0.00  0.00     0.068 A 
HETATM   13  C   UNK N   1      35.041  13.596  17.315  0.00  0.00     0.037 A 
HETATM   14  C   UNK N   1      35.184  13.063  18.600  0.00  0.00     0.010 A 
HETATM   15  C   UNK N   1      35.394  11.686  18.777  0.00  0.00    -0.056 A 
HETATM   16  C   UNK N   1      35.474  10.855  17.655  0.00  0.00     0.010 A 
HETATM   17  C   UNK N   1      35.323  11.386  16.371  0.00  0.00     0.037 A 
BRANCH  15  18
HETATM   18  C   UNK N   1      35.512  11.067  20.141  0.00  0.00     0.064 C 
BRANCH  18  19
HETATM   19  C   UNK N   1      35.696   9.554  20.121  0.00  0.00     0.171 C 
BRANCH  19  20
HETATM   20  O   UNK N   1      35.174   9.004  21.291  0.00  0.00    -0.396 OA
HETATM   21  C   UNK N   1      34.055   9.784  21.579  0.00  0.00     0.201 C 
ENDBRANCH  19  20
ENDBRANCH  18  19
ENDBRANCH  15  18
ENDBRANCH   1  12
TORSDOF 10
ENDMDL
MODEL 9
REMARK VINA RESULT:      -5.1      6.597     10.054
REMARK  10 active torsions:
REMARK  status: ('A' for Active; 'I' for Inactive)
REMARK    1  A    between atoms: O_1  and  C_8 
REMARK    2  A    between atoms: O_1  and  C_11 
REMARK    3  A    between atoms: O_2  and  C_5 
REMARK    4  A    between atoms: O_3  and  C_18 
REMARK    5  A    between atoms: N_4  and  C_6 
REMARK    6  A    between atoms: N_4  and  C_7 
REMARK    7  A    between atoms: C_5  and  C_6 
REMARK    8  A    between atoms: C_5  and  C_8 
REMARK    9  A    between atoms: C_12  and  C_13 
REMARK   10  A    between atoms: C_13  and  C_18 
ROOT
HETATM    1  O   UNK N   1      29.971  16.750   4.992  0.00  0.00    -0.349 OA
ENDROOT
BRANCH   1   2
HETATM    2  C   UNK N   1      28.668  16.816   5.437  0.00  0.00     0.209 C 
BRANCH   2   3
HETATM    3  C   UNK N   1      27.776  17.508   4.424  0.00  0.00     0.159 C 
BRANCH   3   4
HETATM    4  O   UNK N   1      28.546  18.359   3.627  0.00  0.00    -0.392 OA
HETATM    5  H   UNK N   1      28.952  19.151   4.013  0.00  0.00     0.210 HD
ENDBRANCH   3   4
BRANCH   3   6
HETATM    6  C   UNK N   1      26.749  18.319   5.190  0.00  0.00     0.147 C 
BRANCH   6   7
HETATM    7  N   UNK N   1      25.555  18.526   4.386  0.00  0.00    -0.415 N 
HETATM    8  H   UNK N   1      24.977  17.799   3.964  0.00  0.00     0.153 HD
BRANCH   7   9
HETATM    9  C   UNK N   1      25.339  19.962   4.296  0.00  0.00     0.068 C 
HETATM   10  C   UNK N   1      25.691  20.458   2.903  0.00  0.00     0.031 C 
HETATM   11  C   UNK N   1      26.218  20.669   5.306  0.00  0.00     0.031 C 
ENDBRANCH   7   9
ENDBRANCH   6   7
ENDBRANCH   3   6
ENDBRANCH   2   3
ENDBRANCH   1   2
BRANCH   1  12
HETATM   12  C   UNK N   1      31.029  17.087   5.769  0.00  0.00     0.068 A 
HETATM   13  C   UNK N   1      30.834  17.269   7.141  0.00  0.00     0.037 A 
HETATM   14  C   UNK N   1      31.918  17.559   7.976  0.00  0.00     0.010 A 
HETATM   15  C   UNK N   1      33.212  17.680   7.443  0.00  0.00    -0.056 A 
HETATM   16  C   UNK N   1      33.403  17.522   6.067  0.00  0.00     0.010 A 
HETATM   17  C   UNK N   1      32.322  17.224   5.233  0.00  0.00     0.037 A 
BRANCH  15  18
HETATM   18  C   UNK N   1      34.409  17.951   8.309  0.00  0.00     0.064 C 
BRANCH  18  19
HETATM   19  C   UNK N   1      34.598  16.944   9.437  0.00  0.00     0.171 C 
BRANCH  19  20
HETATM   20  O   UNK N   1      35.614  17.379  10.287  0.00  0.00    -0.396 OA
HETATM   21  C   UNK N   1      35.934  16.260  11.055  0.00  0.00     0.201 C 
ENDBRANCH  19  20
ENDBRANCH  18  19
ENDBRANCH  15  18
ENDBRANCH   1  12
TORSDOF 10
ENDMDL
