MODEL 1
REMARK VINA RESULT:      -5.6      0.000      0.000
REMARK  7 active torsions:
REMARK  status: ('A' for Active; 'I' for Inactive)
REMARK    1  A    between atoms: N_2  and  C_4 
REMARK    2  A    between atoms: N_2  and  C_7 
REMARK    3  A    between atoms: N_2  and  C_8 
REMARK    4  A    between atoms: C_4  and  C_5 
REMARK    5  A    between atoms: C_5  and  C_6 
REMARK    6  A    between atoms: C_7  and  C_12 
REMARK    7  A    between atoms: C_8  and  C_13 
ROOT
HETATM    1  O   UNK N   1      29.515  18.642  10.384  0.00  0.00    -0.273 OA
HETATM    2  N   UNK N   1      31.153  18.037   8.964  0.00  0.00    -0.326 N 
HETATM    3  C   UNK N   1      29.691  17.071   5.824  0.00  0.00    -0.048 A 
HETATM    4  C   UNK N   1      29.908  17.497   7.136  0.00  0.00    -0.016 A 
HETATM    5  C   UNK N   1      28.892  17.922   8.162  0.00  0.00     0.144 A 
HETATM    6  C   UNK N   1      31.175  17.582   7.649  0.00  0.00     0.042 A 
HETATM    7  C   UNK N   1      30.809  16.726   5.039  0.00  0.00     0.008 A 
HETATM    8  C   UNK N   1      29.860  18.238   9.284  0.00  0.00     0.226 A 
HETATM    9  C   UNK N   1      32.302  17.253   6.902  0.00  0.00     0.030 A 
HETATM   10  C   UNK N   1      32.110  16.815   5.578  0.00  0.00     0.003 A 
HETATM   11  H   UNK N   1      31.932  18.183   9.548  0.00  0.00     0.169 HD
ENDROOT
BRANCH   3  12
HETATM   12  C   UNK N   1      28.308  17.042   5.264  0.00  0.00     0.069 C 
BRANCH  12  13
HETATM   13  C   UNK N   1      28.045  18.158   4.265  0.00  0.00     0.277 C 
BRANCH  13  14
HETATM   14  N   UNK N   1      27.008  19.021   4.809  0.00  0.00     0.088 N 
BRANCH  14  15
HETATM   15  C   UNK N   1      25.860  18.954   3.912  0.00  0.00     0.272 C 
BRANCH  15  16
HETATM   16  C   UNK N   1      25.760  20.234   3.103  0.00  0.00     0.026 C 
HETATM   17  C   UNK N   1      24.304  20.597   2.903  0.00  0.00     0.007 C 
ENDBRANCH  15  16
ENDBRANCH  14  15
BRANCH  14  18
HETATM   18  C   UNK N   1      27.513  20.386   4.830  0.00  0.00     0.272 C 
BRANCH  18  19
HETATM   19  C   UNK N   1      27.686  20.841   6.269  0.00  0.00     0.026 C 
HETATM   20  C   UNK N   1      26.404  21.472   6.766  0.00  0.00     0.007 C 
ENDBRANCH  18  19
ENDBRANCH  14  18
ENDBRANCH  13  14
ENDBRANCH  12  13
ENDBRANCH   3  12
TORSDOF 7
ENDMDL
MODEL 2
REMARK VINA RESULT:      -5.5     10.456     12.902
REMARK  7 active torsions:
REMARK  status: ('A' for Active; 'I' for Inactive)
REMARK    1  A    between atoms: N_2  and  C_4 
REMARK    2  A    between atoms: N_2  and  C_7 
REMARK    3  A    between atoms: N_2  and  C_8 
REMARK    4  A    between atoms: C_4  and  C_5 
REMARK    5  A    between atoms: C_5  and  C_6 
REMARK    6  A    between atoms: C_7  and  C_12 
REMARK    7  A    between atoms: C_8  and  C_13 
ROOT
HETATM    1  O   UNK N   1      30.493  23.049  -1.390  0.00  0.00    -0.273 OA
HETATM    2  N   UNK N   1      30.734  21.541  -3.041  0.00  0.00    -0.326 N 
HETATM    3  C   UNK N   1      29.176  22.803  -6.026  0.00  0.00    -0.048 A 
HETATM    4  C   UNK N   1      29.660  22.629  -4.728  0.00  0.00    -0.016 A 
HETATM    5  C   UNK N   1      29.555  23.568  -3.556  0.00  0.00     0.144 A 
HETATM    6  C   UNK N   1      30.339  21.494  -4.376  0.00  0.00     0.042 A 
HETATM    7  C   UNK N   1      29.401  21.780  -6.967  0.00  0.00     0.008 A 
HETATM    8  C   UNK N   1      30.297  22.715  -2.548  0.00  0.00     0.226 A 
HETATM    9  C   UNK N   1      30.582  20.463  -5.279  0.00  0.00     0.030 A 
HETATM   10  C   UNK N   1      30.100  20.612  -6.593  0.00  0.00     0.003 A 
HETATM   11  H   UNK N   1      31.235  20.848  -2.553  0.00  0.00     0.169 HD
ENDROOT
BRANCH   3  12
HETATM   12  C   UNK N   1      28.492  24.074  -6.407  0.00  0.00     0.069 C 
BRANCH  12  13
HETATM   13  C   UNK N   1      26.975  23.965  -6.385  0.00  0.00     0.277 C 
BRANCH  13  14
HETATM   14  N   UNK N   1      26.465  24.452  -7.657  0.00  0.00     0.088 N 
BRANCH  14  15
HETATM   15  C   UNK N   1      25.778  25.714  -7.406  0.00  0.00     0.272 C 
BRANCH  15  16
HETATM   16  C   UNK N   1      25.390  25.809  -5.942  0.00  0.00     0.026 C 
HETATM   17  C   UNK N   1      24.728  27.144  -5.677  0.00  0.00     0.007 C 
ENDBRANCH  15  16
ENDBRANCH  14  15
BRANCH  14  18
HETATM   18  C   UNK N   1      25.505  23.483  -8.166  0.00  0.00     0.272 C 
BRANCH  18  19
HETATM   19  C   UNK N   1      25.475  22.270  -7.251  0.00  0.00     0.026 C 
HETATM   20  C   UNK N   1      25.441  21.003  -8.077  0.00  0.00     0.007 C 
ENDBRANCH  18  19
ENDBRANCH  14  18
ENDBRANCH  13  14
ENDBRANCH  12  13
ENDBRANCH   3  12
TORSDOF 7
ENDMDL
MODEL 3
REMARK VINA RESULT:      -5.5      2.120      5.576
REMARK  7 active torsions:
REMARK  status: ('A' for Active; 'I' for Inactive)
REMARK    1  A    between atoms: N_2  and  C_4 
REMARK    2  A    between atoms: N_2  and  C_7 
REMARK    3  A    between atoms: N_2  and  C_8 
REMARK    4  A    between atoms: C_4  and  C_5 
REMARK    5  A    between atoms: C_5  and  C_6 
REMARK    6  A    between atoms: C_7  and  C_12 
REMARK    7  A    between atoms: C_8  and  C_13 
ROOT
HETATM    1  O   UNK N   1      28.276  17.167   9.938  0.00  0.00    -0.273 OA
HETATM    2  N   UNK N   1      27.650  18.886   8.629  0.00  0.00    -0.326 N 
HETATM    3  C   UNK N   1      28.926  18.363   5.308  0.00  0.00    -0.048 A 
HETATM    4  C   UNK N   1      28.604  18.250   6.662  0.00  0.00    -0.016 A 
HETATM    5  C   UNK N   1      28.968  17.150   7.623  0.00  0.00     0.144 A 
HETATM    6  C   UNK N   1      27.855  19.209   7.291  0.00  0.00     0.042 A 
HETATM    7  C   UNK N   1      28.464  19.491   4.602  0.00  0.00     0.008 A 
HETATM    8  C   UNK N   1      28.276  17.714   8.847  0.00  0.00     0.226 A 
HETATM    9  C   UNK N   1      27.380  20.335   6.624  0.00  0.00     0.030 A 
HETATM   10  C   UNK N   1      27.696  20.475   5.260  0.00  0.00     0.003 A 
HETATM   11  H   UNK N   1      27.144  19.413   9.289  0.00  0.00     0.169 HD
ENDROOT
BRANCH   3  12
HETATM   12  C   UNK N   1      29.691  17.278   4.627  0.00  0.00     0.069 C 
BRANCH  12  13
HETATM   13  C   UNK N   1      31.151  17.632   4.394  0.00  0.00     0.277 C 
BRANCH  13  14
HETATM   14  N   UNK N   1      31.959  16.883   5.345  0.00  0.00     0.088 N 
BRANCH  14  15
HETATM   15  C   UNK N   1      33.237  17.572   5.480  0.00  0.00     0.272 C 
BRANCH  15  16
HETATM   16  C   UNK N   1      33.725  17.479   6.914  0.00  0.00     0.026 C 
HETATM   17  C   UNK N   1      32.605  17.860   7.858  0.00  0.00     0.007 C 
ENDBRANCH  15  16
ENDBRANCH  14  15
BRANCH  14  18
HETATM   18  C   UNK N   1      32.192  15.554   4.799  0.00  0.00     0.272 C 
BRANCH  18  19
HETATM   19  C   UNK N   1      31.563  14.513   5.710  0.00  0.00     0.026 C 
HETATM   20  C   UNK N   1      30.649  13.613   4.909  0.00  0.00     0.007 C 
ENDBRANCH  18  19
ENDBRANCH  14  18
ENDBRANCH  13  14
ENDBRANCH  12  13
ENDBRANCH   3  12
TORSDOF 7
ENDMDL
MODEL 4
REMARK VINA RESULT:      -5.3     10.589     13.745
REMARK  7 active torsions:
REMARK  status: ('A' for Active; 'I' for Inactive)
REMARK    1  A    between atoms: N_2  and  C_4 
REMARK    2  A    between atoms: N_2  and  C_7 
REMARK    3  A    between atoms: N_2  and  C_8 
REMARK    4  A    between atoms: C_4  and  C_5 
REMARK    5  A    between atoms: C_5  and  C_6 
REMARK    6  A    between atoms: C_7  and  C_12 
REMARK    7  A    between atoms: C_8  and  C_13 
ROOT
HETATM    1  O   UNK N   1      35.243  14.790  18.587  0.00  0.00    -0.273 OA
HETATM    2  N   UNK N   1      35.513  12.565  18.777  0.00  0.00    -0.326 N 
HETATM    3  C   UNK N   1      34.664  11.005  15.650  0.00  0.00    -0.048 A 
HETATM    4  C   UNK N   1      34.901  11.915  16.682  0.00  0.00    -0.016 A 
HETATM    5  C   UNK N   1      34.753  13.413  16.663  0.00  0.00     0.144 A 
HETATM    6  C   UNK N   1      35.334  11.490  17.910  0.00  0.00     0.042 A 
HETATM    7  C   UNK N   1      34.879   9.636  15.902  0.00  0.00     0.008 A 
HETATM    8  C   UNK N   1      35.186  13.676  18.090  0.00  0.00     0.226 A 
HETATM    9  C   UNK N   1      35.560  10.146  18.194  0.00  0.00     0.030 A 
HETATM   10  C   UNK N   1      35.324   9.209  17.172  0.00  0.00     0.003 A 
HETATM   11  H   UNK N   1      35.819  12.521  19.711  0.00  0.00     0.169 HD
ENDROOT
BRANCH   3  12
HETATM   12  C   UNK N   1      34.249  11.492  14.302  0.00  0.00     0.069 C 
BRANCH  12  13
HETATM   13  C   UNK N   1      35.039  10.857  13.168  0.00  0.00     0.277 C 
BRANCH  13  14
HETATM   14  N   UNK N   1      35.794  11.904  12.497  0.00  0.00     0.088 N 
BRANCH  14  15
HETATM   15  C   UNK N   1      37.100  11.992  13.141  0.00  0.00     0.272 C 
BRANCH  15  16
HETATM   16  C   UNK N   1      37.719  10.610  13.242  0.00  0.00     0.026 C 
HETATM   17  C   UNK N   1      38.405  10.458  14.583  0.00  0.00     0.007 C 
ENDBRANCH  15  16
ENDBRANCH  14  15
BRANCH  14  18
HETATM   18  C   UNK N   1      35.090  13.165  12.681  0.00  0.00     0.272 C 
BRANCH  18  19
HETATM   19  C   UNK N   1      36.096  14.280  12.910  0.00  0.00     0.026 C 
HETATM   20  C   UNK N   1      35.861  15.398  11.918  0.00  0.00     0.007 C 
ENDBRANCH  18  19
ENDBRANCH  14  18
ENDBRANCH  13  14
ENDBRANCH  12  13
ENDBRANCH   3  12
TORSDOF 7
ENDMDL
MODEL 5
REMARK VINA RESULT:      -5.3      7.998      8.795
REMARK  7 active torsions:
REMARK  status: ('A' for Active; 'I' for Inactive)
REMARK    1  A    between atoms: N_2  and  C_4 
REMARK    2  A    between atoms: N_2  and  C_7 
REMARK    3  A    between atoms: N_2  and  C_8 
REMARK    4  A    between atoms: C_4  and  C_5 
REMARK    5  A    between atoms: C_5  and  C_6 
REMARK    6  A    between atoms: C_7  and  C_12 
REMARK    7  A    between atoms: C_8  and  C_13 
ROOT
HETATM    1  O   UNK N   1      22.887  11.539  13.299  0.00  0.00    -0.273 OA
HETATM    2  N   UNK N   1      24.298  12.144  11.654  0.00  0.00    -0.326 N 
HETATM    3  C   UNK N   1      22.394  13.385   8.867  0.00  0.00    -0.048 A 
HETATM    4  C   UNK N   1      22.800  12.854  10.094  0.00  0.00    -0.016 A 
HETATM    5  C   UNK N   1      21.947  12.420  11.255  0.00  0.00     0.144 A 
HETATM    6  C   UNK N   1      24.127  12.673  10.378  0.00  0.00     0.042 A 
HETATM    7  C   UNK N   1      23.384  13.728   7.926  0.00  0.00     0.008 A 
HETATM    8  C   UNK N   1      23.067  11.988  12.178  0.00  0.00     0.226 A 
HETATM    9  C   UNK N   1      25.132  13.003   9.473  0.00  0.00     0.030 A 
HETATM   10  C   UNK N   1      24.749  13.535   8.228  0.00  0.00     0.003 A 
HETATM   11  H   UNK N   1      25.153  11.926  12.090  0.00  0.00     0.169 HD
ENDROOT
BRANCH   3  12
HETATM   12  C   UNK N   1      20.947  13.630   8.599  0.00  0.00     0.069 C 
BRANCH  12  13
HETATM   13  C   UNK N   1      20.524  15.065   8.872  0.00  0.00     0.277 C 
BRANCH  13  14
HETATM   14  N   UNK N   1      20.161  15.681   7.605  0.00  0.00     0.088 N 
BRANCH  14  15
HETATM   15  C   UNK N   1      21.242  16.584   7.226  0.00  0.00     0.272 C 
BRANCH  15  16
HETATM   16  C   UNK N   1      21.560  16.420   5.751  0.00  0.00     0.026 C 
HETATM   17  C   UNK N   1      21.083  15.065   5.276  0.00  0.00     0.007 C 
ENDBRANCH  15  16
ENDBRANCH  14  15
BRANCH  14  18
HETATM   18  C   UNK N   1      18.945  16.456   7.805  0.00  0.00     0.272 C 
BRANCH  18  19
HETATM   19  C   UNK N   1      19.171  17.482   8.903  0.00  0.00     0.026 C 
HETATM   20  C   UNK N   1      17.903  17.664   9.707  0.00  0.00     0.007 C 
ENDBRANCH  18  19
ENDBRANCH  14  18
ENDBRANCH  13  14
ENDBRANCH  12  13
ENDBRANCH   3  12
TORSDOF 7
ENDMDL
MODEL 6
REMARK VINA RESULT:      -5.3     10.519     12.753
REMARK  7 active torsions:
REMARK  status: ('A' for Active; 'I' for Inactive)
REMARK    1  A    between atoms: N_2  and  C_4 
REMARK    2  A    between atoms: N_2  and  C_7 
REMARK    3  A    between atoms: N_2  and  C_8 
REMARK    4  A    between atoms: C_4  and  C_5 
REMARK    5  A    between atoms: C_5  and  C_6 
REMARK    6  A    between atoms: C_7  and  C_12 
REMARK    7  A    between atoms: C_8  and  C_13 
ROOT
HETATM    1  O   UNK N   1      32.213  21.664  -2.089  0.00  0.00    -0.273 OA
HETATM    2  N   UNK N   1      31.248  21.288  -4.086  0.00  0.00    -0.326 N 
HETATM    3  C   UNK N   1      28.567  23.637  -4.559  0.00  0.00    -0.048 A 
HETATM    4  C   UNK N   1      29.640  22.899  -4.055  0.00  0.00    -0.016 A 
HETATM    5  C   UNK N   1      30.356  23.065  -2.741  0.00  0.00     0.144 A 
HETATM    6  C   UNK N   1      30.190  21.873  -4.776  0.00  0.00     0.042 A 
HETATM    7  C   UNK N   1      28.060  23.300  -5.829  0.00  0.00     0.008 A 
HETATM    8  C   UNK N   1      31.364  21.949  -2.919  0.00  0.00     0.226 A 
HETATM    9  C   UNK N   1      29.717  21.514  -6.035  0.00  0.00     0.030 A 
HETATM   10  C   UNK N   1      28.633  22.239  -6.563  0.00  0.00     0.003 A 
HETATM   11  H   UNK N   1      31.804  20.536  -4.393  0.00  0.00     0.169 HD
ENDROOT
BRANCH   3  12
HETATM   12  C   UNK N   1      28.020  24.790  -3.784  0.00  0.00     0.069 C 
BRANCH  12  13
HETATM   13  C   UNK N   1      28.582  26.130  -4.230  0.00  0.00     0.277 C 
BRANCH  13  14
HETATM   14  N   UNK N   1      27.468  26.987  -4.608  0.00  0.00     0.088 N 
BRANCH  14  15
HETATM   15  C   UNK N   1      27.480  28.145  -3.721  0.00  0.00     0.272 C 
BRANCH  15  16
HETATM   16  C   UNK N   1      28.238  29.287  -4.372  0.00  0.00     0.026 C 
HETATM   17  C   UNK N   1      27.752  29.476  -5.793  0.00  0.00     0.007 C 
ENDBRANCH  15  16
ENDBRANCH  14  15
BRANCH  14  18
HETATM   18  C   UNK N   1      26.232  26.247  -4.403  0.00  0.00     0.272 C 
BRANCH  18  19
HETATM   19  C   UNK N   1      25.206  26.675  -5.440  0.00  0.00     0.026 C 
HETATM   20  C   UNK N   1      25.752  26.440  -6.831  0.00  0.00     0.007 C 
ENDBRANCH  18  19
ENDBRANCH  14  18
ENDBRANCH  13  14
ENDBRANCH  12  13
ENDBRANCH   3  12
TORSDOF 7
ENDMDL
MODEL 7
REMARK VINA RESULT:      -5.3     12.773     15.573
REMARK  7 active torsions:
REMARK  status: ('A' for Active; 'I' for Inactive)
REMARK    1  A    between atoms: N_2  and  C_4 
REMARK    2  A    between atoms: N_2  and  C_7 
REMARK    3  A    between atoms: N_2  and  C_8 
REMARK    4  A    between atoms: C_4  and  C_5 
REMARK    5  A    between atoms: C_5  and  C_6 
REMARK    6  A    between atoms: C_7  and  C_12 
REMARK    7  A    between atoms: C_8  and  C_13 
ROOT
HETATM    1  O   UNK N   1      29.828  30.598  -6.540  0.00  0.00    -0.273 OA
HETATM    2  N   UNK N   1      28.193  30.075  -5.087  0.00  0.00    -0.326 N 
HETATM    3  C   UNK N   1      26.274  27.337  -6.409  0.00  0.00    -0.048 A 
HETATM    4  C   UNK N   1      27.202  28.361  -6.210  0.00  0.00    -0.016 A 
HETATM    5  C   UNK N   1      28.328  28.791  -7.111  0.00  0.00     0.144 A 
HETATM    6  C   UNK N   1      27.174  29.127  -5.075  0.00  0.00     0.042 A 
HETATM    7  C   UNK N   1      25.303  27.111  -5.413  0.00  0.00     0.008 A 
HETATM    8  C   UNK N   1      28.868  29.907  -6.240  0.00  0.00     0.226 A 
HETATM    9  C   UNK N   1      26.231  28.931  -4.070  0.00  0.00     0.030 A 
HETATM   10  C   UNK N   1      25.281  27.908  -4.249  0.00  0.00     0.003 A 
HETATM   11  H   UNK N   1      28.384  30.740  -4.387  0.00  0.00     0.169 HD
ENDROOT
BRANCH   3  12
HETATM   12  C   UNK N   1      26.358  26.474  -7.624  0.00  0.00     0.069 C 
BRANCH  12  13
HETATM   13  C   UNK N   1      25.650  25.139  -7.458  0.00  0.00     0.277 C 
BRANCH  13  14
HETATM   14  N   UNK N   1      26.654  24.121  -7.189  0.00  0.00     0.088 N 
BRANCH  14  15
HETATM   15  C   UNK N   1      26.487  23.061  -8.176  0.00  0.00     0.272 C 
BRANCH  15  16
HETATM   16  C   UNK N   1      25.359  22.136  -7.756  0.00  0.00     0.026 C 
HETATM   17  C   UNK N   1      25.650  20.730  -8.233  0.00  0.00     0.007 C 
ENDBRANCH  15  16
ENDBRANCH  14  15
BRANCH  14  18
HETATM   18  C   UNK N   1      26.409  23.576  -5.862  0.00  0.00     0.272 C 
BRANCH  18  19
HETATM   19  C   UNK N   1      27.498  24.044  -4.911  0.00  0.00     0.026 C 
HETATM   20  C   UNK N   1      26.891  24.420  -3.578  0.00  0.00     0.007 C 
ENDBRANCH  18  19
ENDBRANCH  14  18
ENDBRANCH  13  14
ENDBRANCH  12  13
ENDBRANCH   3  12
TORSDOF 7
ENDMDL
MODEL 8
REMARK VINA RESULT:      -5.2     14.343     17.246
REMARK  7 active torsions:
REMARK  status: ('A' for Active; 'I' for Inactive)
REMARK    1  A    between atoms: N_2  and  C_4 
REMARK    2  A    between atoms: N_2  and  C_7 
REMARK    3  A    between atoms: N_2  and  C_8 
REMARK    4  A    between atoms: C_4  and  C_5 
REMARK    5  A    between atoms: C_5  and  C_6 
REMARK    6  A    between atoms: C_7  and  C_12 
REMARK    7  A    between atoms: C_8  and  C_13 
ROOT
HETATM    1  O   UNK N   1      35.413  15.216  18.436  0.00  0.00    -0.273 OA
HETATM    2  N   UNK N   1      35.231  13.452  17.051  0.00  0.00    -0.326 N 
HETATM    3  C   UNK N   1      35.059  10.436  19.000  0.00  0.00    -0.048 A 
HETATM    4  C   UNK N   1      35.154  11.762  18.574  0.00  0.00    -0.016 A 
HETATM    5  C   UNK N   1      35.278  13.008  19.410  0.00  0.00     0.144 A 
HETATM    6  C   UNK N   1      35.134  12.077  17.241  0.00  0.00     0.042 A 
HETATM    7  C   UNK N   1      34.944   9.426  18.025  0.00  0.00     0.008 A 
HETATM    8  C   UNK N   1      35.316  14.009  18.274  0.00  0.00     0.226 A 
HETATM    9  C   UNK N   1      35.019  11.106  16.251  0.00  0.00     0.030 A 
HETATM   10  C   UNK N   1      34.927   9.761  16.654  0.00  0.00     0.003 A 
HETATM   11  H   UNK N   1      35.237  13.926  16.188  0.00  0.00     0.169 HD
ENDROOT
BRANCH   3  12
HETATM   12  C   UNK N   1      35.022  10.117  20.458  0.00  0.00     0.069 C 
BRANCH  12  13
HETATM   13  C   UNK N   1      33.641   9.710  20.946  0.00  0.00     0.277 C 
BRANCH  13  14
HETATM   14  N   UNK N   1      33.749   8.402  21.576  0.00  0.00     0.088 N 
BRANCH  14  15
HETATM   15  C   UNK N   1      32.802   7.512  20.913  0.00  0.00     0.272 C 
BRANCH  15  16
HETATM   16  C   UNK N   1      31.910   8.309  19.979  0.00  0.00     0.026 C 
HETATM   17  C   UNK N   1      30.503   7.753  20.024  0.00  0.00     0.007 C 
ENDBRANCH  15  16
ENDBRANCH  14  15
BRANCH  14  18
HETATM   18  C   UNK N   1      33.372   8.537  22.975  0.00  0.00     0.272 C 
BRANCH  18  19
HETATM   19  C   UNK N   1      32.726   9.894  23.199  0.00  0.00     0.026 C 
HETATM   20  C   UNK N   1      31.953   9.888  24.499  0.00  0.00     0.007 C 
ENDBRANCH  18  19
ENDBRANCH  14  18
ENDBRANCH  13  14
ENDBRANCH  12  13
ENDBRANCH   3  12
TORSDOF 7
ENDMDL
MODEL 9
REMARK VINA RESULT:      -5.2     11.954     14.225
REMARK  7 active torsions:
REMARK  status: ('A' for Active; 'I' for Inactive)
REMARK    1  A    between atoms: N_2  and  C_4 
REMARK    2  A    between atoms: N_2  and  C_7 
REMARK    3  A    between atoms: N_2  and  C_8 
REMARK    4  A    between atoms: C_4  and  C_5 
REMARK    5  A    between atoms: C_5  and  C_6 
REMARK    6  A    between atoms: C_7  and  C_12 
REMARK    7  A    between atoms: C_8  and  C_13 
ROOT
HETATM    1  O   UNK N   1      34.314  14.122  20.729  0.00  0.00    -0.273 OA
HETATM    2  N   UNK N   1      35.033  12.054  20.210  0.00  0.00    -0.326 N 
HETATM    3  C   UNK N   1      35.979  11.974  16.742  0.00  0.00    -0.048 A 
HETATM    4  C   UNK N   1      35.529  12.353  18.008  0.00  0.00    -0.016 A 
HETATM    5  C   UNK N   1      35.030  13.699  18.461  0.00  0.00     0.144 A 
HETATM    6  C   UNK N   1      35.507  11.458  19.044  0.00  0.00     0.042 A 
HETATM    7  C   UNK N   1      36.408  10.645  16.553  0.00  0.00     0.008 A 
HETATM    8  C   UNK N   1      34.752  13.335  19.904  0.00  0.00     0.226 A 
HETATM    9  C   UNK N   1      35.926  10.139  18.896  0.00  0.00     0.030 A 
HETATM   10  C   UNK N   1      36.379   9.731  17.628  0.00  0.00     0.003 A 
HETATM   11  H   UNK N   1      34.925  11.623  21.088  0.00  0.00     0.169 HD
ENDROOT
BRANCH   3  12
HETATM   12  C   UNK N   1      36.052  12.978  15.640  0.00  0.00     0.069 C 
BRANCH  12  13
HETATM   13  C   UNK N   1      36.846  12.491  14.439  0.00  0.00     0.277 C 
BRANCH  13  14
HETATM   14  N   UNK N   1      35.959  12.469  13.285  0.00  0.00     0.088 N 
BRANCH  14  15
HETATM   15  C   UNK N   1      35.756  11.074  12.910  0.00  0.00     0.272 C 
BRANCH  15  16
HETATM   16  C   UNK N   1      34.272  10.787  12.770  0.00  0.00     0.026 C 
HETATM   17  C   UNK N   1      33.666  10.567  14.139  0.00  0.00     0.007 C 
ENDBRANCH  15  16
ENDBRANCH  14  15
BRANCH  14  18
HETATM   18  C   UNK N   1      36.618  13.163  12.189  0.00  0.00     0.272 C 
BRANCH  18  19
HETATM   19  C   UNK N   1      37.685  12.265  11.586  0.00  0.00     0.026 C 
HETATM   20  C   UNK N   1      38.483  13.033  10.556  0.00  0.00     0.007 C 
ENDBRANCH  18  19
ENDBRANCH  14  18
ENDBRANCH  13  14
ENDBRANCH  12  13
ENDBRANCH   3  12
TORSDOF 7
ENDMDL
