MODEL 1
REMARK VINA RESULT:      -8.2      0.000      0.000
REMARK  11 active torsions:
REMARK  status: ('A' for Active; 'I' for Inactive)
REMARK    1  A    between atoms: O_2  and  C_29 
REMARK    2  A    between atoms: O_6  and  C_32 
REMARK    3  A    between atoms: N_8  and  C_13 
REMARK    4  A    between atoms: N_8  and  C_17 
REMARK    5  A    between atoms: C_14  and  N_9 
REMARK       I    between atoms: N_9  and  C_25 
REMARK    6  A    between atoms: C_13  and  C_15 
REMARK    7  A    between atoms: C_14  and  C_16 
REMARK    8  A    between atoms: C_14  and  C_29 
REMARK    9  A    between atoms: C_16  and  C_21 
REMARK   10  A    between atoms: C_21  and  C_32 
REMARK   11  A    between atoms: C_23  and  C_25 
ROOT
HETATM    1  S   UNK N   1      24.490  18.407   4.110  0.00  0.00    -0.067 SA
HETATM    2  C   UNK N   1      26.123  18.523   4.371  0.00  0.00     0.072 A 
HETATM    3  C   UNK N   1      24.270  19.841   3.312  0.00  0.00     0.074 A 
HETATM    4  C   UNK N   1      26.571  19.713   3.789  0.00  0.00     0.038 A 
HETATM    5  C   UNK N   1      25.519  20.461   3.195  0.00  0.00     0.027 A 
ENDROOT
BRANCH   2   6
HETATM    6  N   UNK N   1      26.881  17.707   5.246  0.00  0.00    -0.375 N 
HETATM    7  C   UNK N   1      26.469  16.348   5.503  0.00  0.00     0.150 C 
BRANCH   6   8
HETATM    8  C   UNK N   1      27.840  18.329   6.132  0.00  0.00     0.161 C 
BRANCH   8   9
HETATM    9  C   UNK N   1      29.195  17.763   5.940  0.00  0.00    -0.039 A 
HETATM   10  C   UNK N   1      29.899  17.224   7.020  0.00  0.00     0.028 A 
HETATM   11  C   UNK N   1      31.192  16.725   6.824  0.00  0.00     0.059 A 
HETATM   12  C   UNK N   1      31.775  16.775   5.542  0.00  0.00     0.049 A 
HETATM   13  C   UNK N   1      31.939  16.177   7.872  0.00  0.00     0.259 A 
HETATM   14  N   UNK N   1      33.035  16.311   5.352  0.00  0.00    -0.345 N 
HETATM   15  C   UNK N   1      31.058  17.303   4.466  0.00  0.00     0.031 A 
HETATM   16  C   UNK N   1      33.751  15.792   6.384  0.00  0.00     0.080 A 
HETATM   17  H   UNK N   1      33.437  16.350   4.454  0.00  0.00     0.167 HD
HETATM   18  N   UNK N   1      33.208  15.721   7.629  0.00  0.00    -0.313 N 
HETATM   19  C   UNK N   1      35.134  15.305   6.151  0.00  0.00     0.089 C 
ATOM     20  HN  UNK N   1      33.753  15.324   8.394  1.00  0.00     0.170 HD
HETATM   21  C   UNK N   1      29.768  17.793   4.665  0.00  0.00     0.011 A 
HETATM   22  O   UNK N   1      31.475  16.103   8.998  0.00  0.00    -0.267 OA
ENDBRANCH   8   9
ENDBRANCH   6   8
ENDBRANCH   2   6
BRANCH   3  23
HETATM   23  C   UNK N   1      22.982  20.498   3.086  0.00  0.00     0.259 C 
HETATM   24  O   UNK N   1      22.933  21.705   2.896  0.00  0.00    -0.267 OA
HETATM   25  N   UNK N   1      21.887  19.714   2.895  0.00  0.00    -0.342 N 
HETATM   26  H   UNK N   1      21.966  18.759   3.115  0.00  0.00     0.163 HD
BRANCH  25  27
HETATM   27  C   UNK N   1      20.609  20.185   2.388  0.00  0.00     0.183 C 
BRANCH  27  28
HETATM   28  C   UNK N   1      19.593  19.042   2.302  0.00  0.00     0.046 C 
BRANCH  28  29
HETATM   29  C   UNK N   1      20.279  17.691   2.442  0.00  0.00     0.112 C 
BRANCH  29  30
HETATM   30  C   UNK N   1      20.278  16.970   1.134  0.00  0.00     0.139 C 
HETATM   31  O   UNK N   1      20.294  15.750   1.108  0.00  0.00    -0.650 OA
BRANCH  30  32
HETATM   32  O   UNK N   1      20.231  17.665  -0.019  0.00  0.00    -0.776 OA
HETATM   33  H   UNK N   1      19.447  18.113  -0.267  0.00  0.00     0.167 HD
ENDBRANCH  30  32
ENDBRANCH  29  30
ENDBRANCH  28  29
ENDBRANCH  27  28
BRANCH  27  34
HETATM   34  C   UNK N   1      20.725  20.931   1.093  0.00  0.00     0.163 C 
HETATM   35  O   UNK N   1      21.028  20.355   0.061  0.00  0.00    -0.648 OA
BRANCH  34  36
HETATM   36  O   UNK N   1      20.540  22.265   1.081  0.00  0.00    -0.775 OA
HETATM   37  H   UNK N   1      19.676  22.618   1.000  0.00  0.00     0.167 HD
ENDBRANCH  34  36
ENDBRANCH  27  34
ENDBRANCH  25  27
ENDBRANCH   3  23
TORSDOF 11
ENDMDL
MODEL 2
REMARK VINA RESULT:      -7.8      2.747     11.917
REMARK  11 active torsions:
REMARK  status: ('A' for Active; 'I' for Inactive)
REMARK    1  A    between atoms: O_2  and  C_29 
REMARK    2  A    between atoms: O_6  and  C_32 
REMARK    3  A    between atoms: N_8  and  C_13 
REMARK    4  A    between atoms: N_8  and  C_17 
REMARK    5  A    between atoms: C_14  and  N_9 
REMARK       I    between atoms: N_9  and  C_25 
REMARK    6  A    between atoms: C_13  and  C_15 
REMARK    7  A    between atoms: C_14  and  C_16 
REMARK    8  A    between atoms: C_14  and  C_29 
REMARK    9  A    between atoms: C_16  and  C_21 
REMARK   10  A    between atoms: C_21  and  C_32 
REMARK   11  A    between atoms: C_23  and  C_25 
ROOT
HETATM    1  S   UNK N   1      29.516  17.713   6.097  0.00  0.00    -0.067 SA
HETATM    2  C   UNK N   1      28.312  18.674   6.708  0.00  0.00     0.072 A 
HETATM    3  C   UNK N   1      30.156  17.186   7.530  0.00  0.00     0.074 A 
HETATM    4  C   UNK N   1      28.351  18.582   8.103  0.00  0.00     0.038 A 
HETATM    5  C   UNK N   1      29.399  17.743   8.567  0.00  0.00     0.027 A 
ENDROOT
BRANCH   2   6
HETATM    6  N   UNK N   1      27.555  19.619   5.973  0.00  0.00    -0.375 N 
HETATM    7  C   UNK N   1      26.736  20.584   6.667  0.00  0.00     0.150 C 
BRANCH   6   8
HETATM    8  C   UNK N   1      27.334  19.397   4.562  0.00  0.00     0.161 C 
BRANCH   8   9
HETATM    9  C   UNK N   1      25.943  18.965   4.296  0.00  0.00    -0.039 A 
HETATM   10  C   UNK N   1      25.007  19.865   3.779  0.00  0.00     0.028 A 
HETATM   11  C   UNK N   1      23.688  19.447   3.567  0.00  0.00     0.059 A 
HETATM   12  C   UNK N   1      23.314  18.125   3.882  0.00  0.00     0.049 A 
HETATM   13  C   UNK N   1      22.714  20.309   3.052  0.00  0.00     0.259 A 
HETATM   14  N   UNK N   1      22.032  17.722   3.698  0.00  0.00    -0.345 N 
HETATM   15  C   UNK N   1      24.259  17.230   4.387  0.00  0.00     0.031 A 
HETATM   16  C   UNK N   1      21.095  18.576   3.207  0.00  0.00     0.080 A 
HETATM   17  H   UNK N   1      21.776  16.798   3.922  0.00  0.00     0.167 HD
HETATM   18  N   UNK N   1      21.433  19.853   2.884  0.00  0.00    -0.313 N 
HETATM   19  C   UNK N   1      19.696  18.112   3.029  0.00  0.00     0.089 C 
ATOM     20  HN  UNK N   1      20.722  20.482   2.511  1.00  0.00     0.170 HD
HETATM   21  C   UNK N   1      25.573  17.650   4.590  0.00  0.00     0.011 A 
HETATM   22  O   UNK N   1      22.991  21.459   2.755  0.00  0.00    -0.267 OA
ENDBRANCH   8   9
ENDBRANCH   6   8
ENDBRANCH   2   6
BRANCH   3  23
HETATM   23  C   UNK N   1      31.465  16.552   7.693  0.00  0.00     0.259 C 
HETATM   24  O   UNK N   1      31.824  15.676   6.918  0.00  0.00    -0.267 OA
HETATM   25  N   UNK N   1      32.334  17.095   8.587  0.00  0.00    -0.342 N 
HETATM   26  H   UNK N   1      31.980  17.756   9.223  0.00  0.00     0.163 HD
BRANCH  25  27
HETATM   27  C   UNK N   1      33.748  16.772   8.669  0.00  0.00     0.183 C 
BRANCH  27  28
HETATM   28  C   UNK N   1      34.101  16.177  10.036  0.00  0.00     0.046 C 
BRANCH  28  29
HETATM   29  C   UNK N   1      34.923  14.906   9.883  0.00  0.00     0.112 C 
BRANCH  29  30
HETATM   30  C   UNK N   1      36.351  15.165  10.234  0.00  0.00     0.139 C 
HETATM   31  O   UNK N   1      37.209  14.342   9.955  0.00  0.00    -0.650 OA
BRANCH  30  32
HETATM   32  O   UNK N   1      36.699  16.319  10.834  0.00  0.00    -0.776 OA
HETATM   33  H   UNK N   1      36.373  17.135  10.510  0.00  0.00     0.167 HD
ENDBRANCH  30  32
ENDBRANCH  29  30
ENDBRANCH  28  29
ENDBRANCH  27  28
BRANCH  27  34
HETATM   34  C   UNK N   1      34.640  17.922   8.310  0.00  0.00     0.163 C 
HETATM   35  O   UNK N   1      34.726  18.314   7.158  0.00  0.00    -0.648 OA
BRANCH  34  36
HETATM   36  O   UNK N   1      35.394  18.496   9.267  0.00  0.00    -0.775 OA
HETATM   37  H   UNK N   1      34.996  18.791  10.063  0.00  0.00     0.167 HD
ENDBRANCH  34  36
ENDBRANCH  27  34
ENDBRANCH  25  27
ENDBRANCH   3  23
TORSDOF 11
ENDMDL
MODEL 3
REMARK VINA RESULT:      -7.6      8.804     13.157
REMARK  11 active torsions:
REMARK  status: ('A' for Active; 'I' for Inactive)
REMARK    1  A    between atoms: O_2  and  C_29 
REMARK    2  A    between atoms: O_6  and  C_32 
REMARK    3  A    between atoms: N_8  and  C_13 
REMARK    4  A    between atoms: N_8  and  C_17 
REMARK    5  A    between atoms: C_14  and  N_9 
REMARK       I    between atoms: N_9  and  C_25 
REMARK    6  A    between atoms: C_13  and  C_15 
REMARK    7  A    between atoms: C_14  and  C_16 
REMARK    8  A    between atoms: C_14  and  C_29 
REMARK    9  A    between atoms: C_16  and  C_21 
REMARK   10  A    between atoms: C_21  and  C_32 
REMARK   11  A    between atoms: C_23  and  C_25 
ROOT
HETATM    1  S   UNK N   1      34.771  13.467   9.827  0.00  0.00    -0.067 SA
HETATM    2  C   UNK N   1      35.615  12.373  10.743  0.00  0.00     0.072 A 
HETATM    3  C   UNK N   1      35.488  14.852  10.382  0.00  0.00     0.074 A 
HETATM    4  C   UNK N   1      36.544  13.080  11.514  0.00  0.00     0.038 A 
HETATM    5  C   UNK N   1      36.467  14.484  11.313  0.00  0.00     0.027 A 
ENDROOT
BRANCH   2   6
HETATM    6  N   UNK N   1      35.284  11.007  10.914  0.00  0.00    -0.375 N 
HETATM    7  C   UNK N   1      35.843  10.012  10.031  0.00  0.00     0.150 C 
BRANCH   6   8
HETATM    8  C   UNK N   1      34.141  10.659  11.729  0.00  0.00     0.161 C 
BRANCH   8   9
HETATM    9  C   UNK N   1      34.529  10.463  13.145  0.00  0.00    -0.039 A 
HETATM   10  C   UNK N   1      34.387  11.501  14.070  0.00  0.00     0.028 A 
HETATM   11  C   UNK N   1      34.792  11.307  15.395  0.00  0.00     0.059 A 
HETATM   12  C   UNK N   1      35.344  10.070  15.785  0.00  0.00     0.049 A 
HETATM   13  C   UNK N   1      34.672  12.313  16.359  0.00  0.00     0.259 A 
HETATM   14  N   UNK N   1      35.756   9.884  17.064  0.00  0.00    -0.345 N 
HETATM   15  C   UNK N   1      35.470   9.034  14.856  0.00  0.00     0.031 A 
HETATM   16  C   UNK N   1      35.643  10.877  17.985  0.00  0.00     0.080 A 
HETATM   17  H   UNK N   1      36.143   9.018  17.329  0.00  0.00     0.167 HD
HETATM   18  N   UNK N   1      35.103  12.077  17.638  0.00  0.00    -0.313 N 
HETATM   19  C   UNK N   1      36.116  10.652  19.374  0.00  0.00     0.089 C 
ATOM     20  HN  UNK N   1      35.018  12.811  18.340  1.00  0.00     0.170 HD
HETATM   21  C   UNK N   1      35.059   9.231  13.538  0.00  0.00     0.011 A 
HETATM   22  O   UNK N   1      34.191  13.398  16.074  0.00  0.00    -0.267 OA
ENDBRANCH   8   9
ENDBRANCH   6   8
ENDBRANCH   2   6
BRANCH   3  23
HETATM   23  C   UNK N   1      34.966  16.208  10.204  0.00  0.00     0.259 C 
HETATM   24  O   UNK N   1      35.589  17.167  10.637  0.00  0.00    -0.267 OA
HETATM   25  N   UNK N   1      33.896  16.381   9.385  0.00  0.00    -0.342 N 
HETATM   26  H   UNK N   1      33.397  15.578   9.110  0.00  0.00     0.163 HD
BRANCH  25  27
HETATM   27  C   UNK N   1      33.435  17.664   8.883  0.00  0.00     0.183 C 
BRANCH  27  28
HETATM   28  C   UNK N   1      32.044  17.544   8.254  0.00  0.00     0.046 C 
BRANCH  28  29
HETATM   29  C   UNK N   1      31.669  16.086   8.030  0.00  0.00     0.112 C 
BRANCH  29  30
HETATM   30  C   UNK N   1      31.537  15.801   6.571  0.00  0.00     0.139 C 
HETATM   31  O   UNK N   1      30.920  14.818   6.193  0.00  0.00    -0.650 OA
BRANCH  30  32
HETATM   32  O   UNK N   1      32.074  16.643   5.668  0.00  0.00    -0.776 OA
HETATM   33  H   UNK N   1      31.986  17.570   5.776  0.00  0.00     0.167 HD
ENDBRANCH  30  32
ENDBRANCH  29  30
ENDBRANCH  28  29
ENDBRANCH  27  28
BRANCH  27  34
HETATM   34  C   UNK N   1      34.414  18.325   7.959  0.00  0.00     0.163 C 
HETATM   35  O   UNK N   1      34.468  18.018   6.780  0.00  0.00    -0.648 OA
BRANCH  34  36
HETATM   36  O   UNK N   1      35.277  19.232   8.453  0.00  0.00    -0.775 OA
HETATM   37  H   UNK N   1      35.829  19.010   9.176  0.00  0.00     0.167 HD
ENDBRANCH  34  36
ENDBRANCH  27  34
ENDBRANCH  25  27
ENDBRANCH   3  23
TORSDOF 11
ENDMDL
MODEL 4
REMARK VINA RESULT:      -7.5      6.382     14.616
REMARK  11 active torsions:
REMARK  status: ('A' for Active; 'I' for Inactive)
REMARK    1  A    between atoms: O_2  and  C_29 
REMARK    2  A    between atoms: O_6  and  C_32 
REMARK    3  A    between atoms: N_8  and  C_13 
REMARK    4  A    between atoms: N_8  and  C_17 
REMARK    5  A    between atoms: C_14  and  N_9 
REMARK       I    between atoms: N_9  and  C_25 
REMARK    6  A    between atoms: C_13  and  C_15 
REMARK    7  A    between atoms: C_14  and  C_16 
REMARK    8  A    between atoms: C_14  and  C_29 
REMARK    9  A    between atoms: C_16  and  C_21 
REMARK   10  A    between atoms: C_21  and  C_32 
REMARK   11  A    between atoms: C_23  and  C_25 
ROOT
HETATM    1  S   UNK N   1      34.521  13.475   9.867  0.00  0.00    -0.067 SA
HETATM    2  C   UNK N   1      34.460  14.947   9.108  0.00  0.00     0.072 A 
HETATM    3  C   UNK N   1      34.842  14.007  11.402  0.00  0.00     0.074 A 
HETATM    4  C   UNK N   1      34.661  15.940  10.072  0.00  0.00     0.038 A 
HETATM    5  C   UNK N   1      34.883  15.406  11.370  0.00  0.00     0.027 A 
ENDROOT
BRANCH   2   6
HETATM    6  N   UNK N   1      34.468  15.156   7.707  0.00  0.00    -0.375 N 
HETATM    7  C   UNK N   1      34.735  14.054   6.815  0.00  0.00     0.150 C 
BRANCH   6   8
HETATM    8  C   UNK N   1      34.556  16.508   7.200  0.00  0.00     0.161 C 
BRANCH   8   9
HETATM    9  C   UNK N   1      33.339  16.878   6.441  0.00  0.00    -0.039 A 
HETATM   10  C   UNK N   1      32.095  16.926   7.076  0.00  0.00     0.028 A 
HETATM   11  C   UNK N   1      30.952  17.245   6.334  0.00  0.00     0.059 A 
HETATM   12  C   UNK N   1      31.063  17.508   4.954  0.00  0.00     0.049 A 
HETATM   13  C   UNK N   1      29.684  17.306   6.921  0.00  0.00     0.259 A 
HETATM   14  N   UNK N   1      29.955  17.796   4.227  0.00  0.00    -0.345 N 
HETATM   15  C   UNK N   1      32.313  17.469   4.332  0.00  0.00     0.031 A 
HETATM   16  C   UNK N   1      28.729  17.840   4.811  0.00  0.00     0.080 A 
HETATM   17  H   UNK N   1      30.040  17.977   3.263  0.00  0.00     0.167 HD
HETATM   18  N   UNK N   1      28.595  17.603   6.144  0.00  0.00    -0.313 N 
HETATM   19  C   UNK N   1      27.530  18.145   3.989  0.00  0.00     0.089 C 
ATOM     20  HN  UNK N   1      27.670  17.645   6.572  1.00  0.00     0.170 HD
HETATM   21  C   UNK N   1      33.450  17.157   5.077  0.00  0.00     0.011 A 
HETATM   22  O   UNK N   1      29.537  17.096   8.114  0.00  0.00    -0.267 OA
ENDBRANCH   8   9
ENDBRANCH   6   8
ENDBRANCH   2   6
BRANCH   3  23
HETATM   23  C   UNK N   1      35.337  13.178  12.502  0.00  0.00     0.259 C 
HETATM   24  O   UNK N   1      36.220  12.355  12.301  0.00  0.00    -0.267 OA
HETATM   25  N   UNK N   1      34.940  13.484  13.765  0.00  0.00    -0.342 N 
HETATM   26  H   UNK N   1      34.189  14.112  13.868  0.00  0.00     0.163 HD
BRANCH  25  27
HETATM   27  C   UNK N   1      35.545  12.954  14.975  0.00  0.00     0.183 C 
BRANCH  27  28
HETATM   28  C   UNK N   1      34.625  13.151  16.184  0.00  0.00     0.046 C 
BRANCH  28  29
HETATM   29  C   UNK N   1      35.177  12.439  17.412  0.00  0.00     0.112 C 
BRANCH  29  30
HETATM   30  C   UNK N   1      35.297  13.391  18.555  0.00  0.00     0.139 C 
HETATM   31  O   UNK N   1      35.259  12.977  19.703  0.00  0.00    -0.650 OA
BRANCH  30  32
HETATM   32  O   UNK N   1      35.475  14.706  18.322  0.00  0.00    -0.776 OA
HETATM   33  H   UNK N   1      35.323  15.057  17.467  0.00  0.00     0.167 HD
ENDBRANCH  30  32
ENDBRANCH  29  30
ENDBRANCH  28  29
ENDBRANCH  27  28
BRANCH  27  34
HETATM   34  C   UNK N   1      36.925  13.483  15.228  0.00  0.00     0.163 C 
HETATM   35  O   UNK N   1      37.094  14.597  15.696  0.00  0.00    -0.648 OA
BRANCH  34  36
HETATM   36  O   UNK N   1      37.990  12.735  14.887  0.00  0.00    -0.775 OA
HETATM   37  H   UNK N   1      38.065  12.393  14.017  0.00  0.00     0.167 HD
ENDBRANCH  34  36
ENDBRANCH  27  34
ENDBRANCH  25  27
ENDBRANCH   3  23
TORSDOF 11
ENDMDL
MODEL 5
REMARK VINA RESULT:      -7.5     10.712     14.380
REMARK  11 active torsions:
REMARK  status: ('A' for Active; 'I' for Inactive)
REMARK    1  A    between atoms: O_2  and  C_29 
REMARK    2  A    between atoms: O_6  and  C_32 
REMARK    3  A    between atoms: N_8  and  C_13 
REMARK    4  A    between atoms: N_8  and  C_17 
REMARK    5  A    between atoms: C_14  and  N_9 
REMARK       I    between atoms: N_9  and  C_25 
REMARK    6  A    between atoms: C_13  and  C_15 
REMARK    7  A    between atoms: C_14  and  C_16 
REMARK    8  A    between atoms: C_14  and  C_29 
REMARK    9  A    between atoms: C_16  and  C_21 
REMARK   10  A    between atoms: C_21  and  C_32 
REMARK   11  A    between atoms: C_23  and  C_25 
ROOT
HETATM    1  S   UNK N   1      29.190  22.450  -7.717  0.00  0.00    -0.067 SA
HETATM    2  C   UNK N   1      28.117  21.274  -8.180  0.00  0.00     0.072 A 
HETATM    3  C   UNK N   1      30.261  21.491  -6.896  0.00  0.00     0.074 A 
HETATM    4  C   UNK N   1      28.599  20.044  -7.721  0.00  0.00     0.038 A 
HETATM    5  C   UNK N   1      29.810  20.169  -6.989  0.00  0.00     0.027 A 
ENDROOT
BRANCH   2   6
HETATM    6  N   UNK N   1      26.822  21.498  -8.709  0.00  0.00    -0.375 N 
HETATM    7  C   UNK N   1      26.658  21.807 -10.109  0.00  0.00     0.150 C 
BRANCH   6   8
HETATM    8  C   UNK N   1      25.727  21.756  -7.800  0.00  0.00     0.161 C 
BRANCH   8   9
HETATM    9  C   UNK N   1      25.799  23.128  -7.247  0.00  0.00    -0.039 A 
HETATM   10  C   UNK N   1      25.998  23.333  -5.879  0.00  0.00     0.028 A 
HETATM   11  C   UNK N   1      26.029  24.637  -5.372  0.00  0.00     0.059 A 
HETATM   12  C   UNK N   1      25.854  25.732  -6.243  0.00  0.00     0.049 A 
HETATM   13  C   UNK N   1      26.223  24.895  -4.011  0.00  0.00     0.259 A 
HETATM   14  N   UNK N   1      25.862  26.996  -5.752  0.00  0.00    -0.345 N 
HETATM   15  C   UNK N   1      25.669  25.517  -7.610  0.00  0.00     0.031 A 
HETATM   16  C   UNK N   1      26.041  27.229  -4.425  0.00  0.00     0.080 A 
HETATM   17  H   UNK N   1      25.738  27.756  -6.365  0.00  0.00     0.167 HD
HETATM   18  N   UNK N   1      26.224  26.191  -3.564  0.00  0.00    -0.313 N 
HETATM   19  C   UNK N   1      26.031  28.622  -3.913  0.00  0.00     0.089 C 
ATOM     20  HN  UNK N   1      26.363  26.379  -2.572  1.00  0.00     0.170 HD
HETATM   21  C   UNK N   1      25.645  24.216  -8.111  0.00  0.00     0.011 A 
HETATM   22  O   UNK N   1      26.389  23.982  -3.219  0.00  0.00    -0.267 OA
ENDBRANCH   8   9
ENDBRANCH   6   8
ENDBRANCH   2   6
BRANCH   3  23
HETATM   23  C   UNK N   1      31.281  21.966  -5.961  0.00  0.00     0.259 C 
HETATM   24  O   UNK N   1      32.134  22.760  -6.333  0.00  0.00    -0.267 OA
HETATM   25  N   UNK N   1      31.135  21.663  -4.644  0.00  0.00    -0.342 N 
HETATM   26  H   UNK N   1      30.471  20.978  -4.404  0.00  0.00     0.163 HD
BRANCH  25  27
HETATM   27  C   UNK N   1      31.885  22.280  -3.563  0.00  0.00     0.183 C 
BRANCH  27  28
HETATM   28  C   UNK N   1      32.633  21.228  -2.739  0.00  0.00     0.046 C 
BRANCH  28  29
HETATM   29  C   UNK N   1      33.900  20.775  -3.450  0.00  0.00     0.112 C 
BRANCH  29  30
HETATM   30  C   UNK N   1      33.642  19.526  -4.227  0.00  0.00     0.139 C 
HETATM   31  O   UNK N   1      33.545  19.571  -5.443  0.00  0.00    -0.650 OA
BRANCH  30  32
HETATM   32  O   UNK N   1      33.544  18.344  -3.590  0.00  0.00    -0.776 OA
HETATM   33  H   UNK N   1      34.237  17.717  -3.652  0.00  0.00     0.167 HD
ENDBRANCH  30  32
ENDBRANCH  29  30
ENDBRANCH  28  29
ENDBRANCH  27  28
BRANCH  27  34
HETATM   34  C   UNK N   1      31.051  23.180  -2.701  0.00  0.00     0.163 C 
HETATM   35  O   UNK N   1      30.663  22.815  -1.604  0.00  0.00    -0.648 OA
BRANCH  34  36
HETATM   36  O   UNK N   1      30.685  24.388  -3.169  0.00  0.00    -0.775 OA
HETATM   37  H   UNK N   1      30.105  24.928  -2.670  0.00  0.00     0.167 HD
ENDBRANCH  34  36
ENDBRANCH  27  34
ENDBRANCH  25  27
ENDBRANCH   3  23
TORSDOF 11
ENDMDL
MODEL 6
REMARK VINA RESULT:      -7.4      8.779     14.079
REMARK  11 active torsions:
REMARK  status: ('A' for Active; 'I' for Inactive)
REMARK    1  A    between atoms: O_2  and  C_29 
REMARK    2  A    between atoms: O_6  and  C_32 
REMARK    3  A    between atoms: N_8  and  C_13 
REMARK    4  A    between atoms: N_8  and  C_17 
REMARK    5  A    between atoms: C_14  and  N_9 
REMARK       I    between atoms: N_9  and  C_25 
REMARK    6  A    between atoms: C_13  and  C_15 
REMARK    7  A    between atoms: C_14  and  C_16 
REMARK    8  A    between atoms: C_14  and  C_29 
REMARK    9  A    between atoms: C_16  and  C_21 
REMARK   10  A    between atoms: C_21  and  C_32 
REMARK   11  A    between atoms: C_23  and  C_25 
ROOT
HETATM    1  S   UNK N   1      35.783  13.357  11.078  0.00  0.00    -0.067 SA
HETATM    2  C   UNK N   1      35.981  13.204  12.717  0.00  0.00     0.072 A 
HETATM    3  C   UNK N   1      35.787  15.010  10.988  0.00  0.00     0.074 A 
HETATM    4  C   UNK N   1      36.097  14.487  13.261  0.00  0.00     0.038 A 
HETATM    5  C   UNK N   1      35.981  15.509  12.281  0.00  0.00     0.027 A 
ENDROOT
BRANCH   2   6
HETATM    6  N   UNK N   1      35.801  12.013  13.464  0.00  0.00    -0.375 N 
HETATM    7  C   UNK N   1      36.696  10.898  13.271  0.00  0.00     0.150 C 
BRANCH   6   8
HETATM    8  C   UNK N   1      34.544  11.795  14.144  0.00  0.00     0.161 C 
BRANCH   8   9
HETATM    9  C   UNK N   1      34.756  11.266  15.511  0.00  0.00    -0.039 A 
HETATM   10  C   UNK N   1      34.974  12.135  16.583  0.00  0.00     0.028 A 
HETATM   11  C   UNK N   1      35.207  11.613  17.861  0.00  0.00     0.059 A 
HETATM   12  C   UNK N   1      35.226  10.217  18.054  0.00  0.00     0.049 A 
HETATM   13  C   UNK N   1      35.432  12.440  18.966  0.00  0.00     0.259 A 
HETATM   14  N   UNK N   1      35.472   9.707  19.287  0.00  0.00    -0.345 N 
HETATM   15  C   UNK N   1      34.994   9.357  16.978  0.00  0.00     0.031 A 
HETATM   16  C   UNK N   1      35.699  10.525  20.348  0.00  0.00     0.080 A 
HETATM   17  H   UNK N   1      35.485   8.731  19.415  0.00  0.00     0.167 HD
HETATM   18  N   UNK N   1      35.675  11.876  20.191  0.00  0.00    -0.313 N 
HETATM   19  C   UNK N   1      35.980   9.939  21.684  0.00  0.00     0.089 C 
ATOM     20  HN  UNK N   1      35.841  12.479  20.997  1.00  0.00     0.170 HD
HETATM   21  C   UNK N   1      34.757   9.882  15.709  0.00  0.00     0.011 A 
HETATM   22  O   UNK N   1      35.416  13.654  18.852  0.00  0.00    -0.267 OA
ENDBRANCH   8   9
ENDBRANCH   6   8
ENDBRANCH   2   6
BRANCH   3  23
HETATM   23  C   UNK N   1      35.327  15.799   9.844  0.00  0.00     0.259 C 
HETATM   24  O   UNK N   1      35.572  15.429   8.704  0.00  0.00    -0.267 OA
HETATM   25  N   UNK N   1      34.462  16.822  10.077  0.00  0.00    -0.342 N 
HETATM   26  H   UNK N   1      34.342  17.115  11.008  0.00  0.00     0.163 HD
BRANCH  25  27
HETATM   27  C   UNK N   1      33.701  17.513   9.051  0.00  0.00     0.183 C 
BRANCH  27  28
HETATM   28  C   UNK N   1      32.705  16.568   8.371  0.00  0.00     0.046 C 
BRANCH  28  29
HETATM   29  C   UNK N   1      31.368  17.258   8.140  0.00  0.00     0.112 C 
BRANCH  29  30
HETATM   30  C   UNK N   1      30.967  17.147   6.706  0.00  0.00     0.139 C 
HETATM   31  O   UNK N   1      31.817  17.172   5.829  0.00  0.00    -0.650 OA
BRANCH  30  32
HETATM   32  O   UNK N   1      29.671  16.989   6.378  0.00  0.00    -0.776 OA
HETATM   33  H   UNK N   1      29.184  16.264   6.718  0.00  0.00     0.167 HD
ENDBRANCH  30  32
ENDBRANCH  29  30
ENDBRANCH  28  29
ENDBRANCH  27  28
BRANCH  27  34
HETATM   34  C   UNK N   1      34.563  18.230   8.056  0.00  0.00     0.163 C 
HETATM   35  O   UNK N   1      35.204  19.217   8.377  0.00  0.00    -0.648 OA
BRANCH  34  36
HETATM   36  O   UNK N   1      34.588  17.805   6.778  0.00  0.00    -0.775 OA
HETATM   37  H   UNK N   1      35.389  17.832   6.291  0.00  0.00     0.167 HD
ENDBRANCH  34  36
ENDBRANCH  27  34
ENDBRANCH  25  27
ENDBRANCH   3  23
TORSDOF 11
ENDMDL
MODEL 7
REMARK VINA RESULT:      -7.3      8.751     13.805
REMARK  11 active torsions:
REMARK  status: ('A' for Active; 'I' for Inactive)
REMARK    1  A    between atoms: O_2  and  C_29 
REMARK    2  A    between atoms: O_6  and  C_32 
REMARK    3  A    between atoms: N_8  and  C_13 
REMARK    4  A    between atoms: N_8  and  C_17 
REMARK    5  A    between atoms: C_14  and  N_9 
REMARK       I    between atoms: N_9  and  C_25 
REMARK    6  A    between atoms: C_13  and  C_15 
REMARK    7  A    between atoms: C_14  and  C_16 
REMARK    8  A    between atoms: C_14  and  C_29 
REMARK    9  A    between atoms: C_16  and  C_21 
REMARK   10  A    between atoms: C_21  and  C_32 
REMARK   11  A    between atoms: C_23  and  C_25 
ROOT
HETATM    1  S   UNK N   1      34.818  13.741  10.827  0.00  0.00    -0.067 SA
HETATM    2  C   UNK N   1      35.607  12.945  12.049  0.00  0.00     0.072 A 
HETATM    3  C   UNK N   1      35.462  15.248  11.064  0.00  0.00     0.074 A 
HETATM    4  C   UNK N   1      36.458  13.858  12.681  0.00  0.00     0.038 A 
HETATM    5  C   UNK N   1      36.370  15.163  12.126  0.00  0.00     0.027 A 
ENDROOT
BRANCH   2   6
HETATM    6  N   UNK N   1      35.289  11.654  12.536  0.00  0.00    -0.375 N 
HETATM    7  C   UNK N   1      35.854  10.485  11.904  0.00  0.00     0.150 C 
BRANCH   6   8
HETATM    8  C   UNK N   1      34.154  11.496  13.417  0.00  0.00     0.161 C 
BRANCH   8   9
HETATM    9  C   UNK N   1      34.578  11.441  14.835  0.00  0.00    -0.039 A 
HETATM   10  C   UNK N   1      34.854  10.215  15.446  0.00  0.00     0.028 A 
HETATM   11  C   UNK N   1      35.219  10.181  16.797  0.00  0.00     0.059 A 
HETATM   12  C   UNK N   1      35.301  11.382  17.530  0.00  0.00     0.049 A 
HETATM   13  C   UNK N   1      35.505   8.980  17.455  0.00  0.00     0.259 A 
HETATM   14  N   UNK N   1      35.634  11.352  18.845  0.00  0.00    -0.345 N 
HETATM   15  C   UNK N   1      35.035  12.603  16.907  0.00  0.00     0.031 A 
HETATM   16  C   UNK N   1      35.898  10.175  19.472  0.00  0.00     0.080 A 
HETATM   17  H   UNK N   1      35.687  12.194  19.351  0.00  0.00     0.167 HD
HETATM   18  N   UNK N   1      35.838   9.003  18.784  0.00  0.00    -0.313 N 
HETATM   19  C   UNK N   1      36.247  10.171  20.915  0.00  0.00     0.089 C 
ATOM     20  HN  UNK N   1      36.044   8.127  19.264  1.00  0.00     0.170 HD
HETATM   21  C   UNK N   1      34.677  12.631  15.560  0.00  0.00     0.011 A 
HETATM   22  O   UNK N   1      35.458   7.916  16.861  0.00  0.00    -0.267 OA
ENDBRANCH   8   9
ENDBRANCH   6   8
ENDBRANCH   2   6
BRANCH   3  23
HETATM   23  C   UNK N   1      34.930  16.494  10.511  0.00  0.00     0.259 C 
HETATM   24  O   UNK N   1      35.556  17.538  10.637  0.00  0.00    -0.267 OA
HETATM   25  N   UNK N   1      33.844  16.423   9.696  0.00  0.00    -0.342 N 
HETATM   26  H   UNK N   1      33.345  15.575   9.674  0.00  0.00     0.163 HD
BRANCH  25  27
HETATM   27  C   UNK N   1      33.369  17.506   8.853  0.00  0.00     0.183 C 
BRANCH  27  28
HETATM   28  C   UNK N   1      32.099  17.102   8.098  0.00  0.00     0.046 C 
BRANCH  28  29
HETATM   29  C   UNK N   1      31.015  18.161   8.246  0.00  0.00     0.112 C 
BRANCH  29  30
HETATM   30  C   UNK N   1      30.122  17.833   9.397  0.00  0.00     0.139 C 
HETATM   31  O   UNK N   1      29.275  18.633   9.761  0.00  0.00    -0.650 OA
BRANCH  30  32
HETATM   32  O   UNK N   1      30.230  16.643  10.017  0.00  0.00    -0.776 OA
HETATM   33  H   UNK N   1      29.861  16.521  10.869  0.00  0.00     0.167 HD
ENDBRANCH  30  32
ENDBRANCH  29  30
ENDBRANCH  28  29
ENDBRANCH  27  28
BRANCH  27  34
HETATM   34  C   UNK N   1      34.421  18.046   7.933  0.00  0.00     0.163 C 
HETATM   35  O   UNK N   1      34.620  17.540   6.841  0.00  0.00    -0.648 OA
BRANCH  34  36
HETATM   36  O   UNK N   1      35.189  19.074   8.341  0.00  0.00    -0.775 OA
HETATM   37  H   UNK N   1      35.611  19.042   9.177  0.00  0.00     0.167 HD
ENDBRANCH  34  36
ENDBRANCH  27  34
ENDBRANCH  25  27
ENDBRANCH   3  23
TORSDOF 11
ENDMDL
MODEL 8
REMARK VINA RESULT:      -7.2      5.294      7.421
REMARK  11 active torsions:
REMARK  status: ('A' for Active; 'I' for Inactive)
REMARK    1  A    between atoms: O_2  and  C_29 
REMARK    2  A    between atoms: O_6  and  C_32 
REMARK    3  A    between atoms: N_8  and  C_13 
REMARK    4  A    between atoms: N_8  and  C_17 
REMARK    5  A    between atoms: C_14  and  N_9 
REMARK       I    between atoms: N_9  and  C_25 
REMARK    6  A    between atoms: C_13  and  C_15 
REMARK    7  A    between atoms: C_14  and  C_16 
REMARK    8  A    between atoms: C_14  and  C_29 
REMARK    9  A    between atoms: C_16  and  C_21 
REMARK   10  A    between atoms: C_21  and  C_32 
REMARK   11  A    between atoms: C_23  and  C_25 
ROOT
HETATM    1  S   UNK N   1      25.638  14.917   7.174  0.00  0.00    -0.067 SA
HETATM    2  C   UNK N   1      26.503  15.108   5.773  0.00  0.00     0.072 A 
HETATM    3  C   UNK N   1      25.352  13.290   7.060  0.00  0.00     0.074 A 
HETATM    4  C   UNK N   1      26.631  13.854   5.168  0.00  0.00     0.038 A 
HETATM    5  C   UNK N   1      25.973  12.826   5.895  0.00  0.00     0.027 A 
ENDROOT
BRANCH   2   6
HETATM    6  N   UNK N   1      26.826  16.345   5.162  0.00  0.00    -0.375 N 
HETATM    7  C   UNK N   1      27.324  16.374   3.809  0.00  0.00     0.150 C 
BRANCH   6   8
HETATM    8  C   UNK N   1      26.985  17.518   5.994  0.00  0.00     0.161 C 
BRANCH   8   9
HETATM    9  C   UNK N   1      28.255  17.469   6.755  0.00  0.00    -0.039 A 
HETATM   10  C   UNK N   1      29.475  17.327   6.090  0.00  0.00     0.028 A 
HETATM   11  C   UNK N   1      30.661  17.249   6.829  0.00  0.00     0.059 A 
HETATM   12  C   UNK N   1      30.614  17.308   8.237  0.00  0.00     0.049 A 
HETATM   13  C   UNK N   1      31.908  17.106   6.212  0.00  0.00     0.259 A 
HETATM   14  N   UNK N   1      31.759  17.212   8.958  0.00  0.00    -0.345 N 
HETATM   15  C   UNK N   1      29.390  17.463   8.891  0.00  0.00     0.031 A 
HETATM   16  C   UNK N   1      32.961  17.062   8.343  0.00  0.00     0.080 A 
HETATM   17  H   UNK N   1      31.718  17.253   9.941  0.00  0.00     0.167 HD
HETATM   18  N   UNK N   1      33.036  17.014   6.985  0.00  0.00    -0.313 N 
HETATM   19  C   UNK N   1      34.197  16.944   9.157  0.00  0.00     0.089 C 
ATOM     20  HN  UNK N   1      33.945  16.906   6.535  1.00  0.00     0.170 HD
HETATM   21  C   UNK N   1      28.212  17.547   8.149  0.00  0.00     0.011 A 
HETATM   22  O   UNK N   1      32.002  17.059   4.997  0.00  0.00    -0.267 OA
ENDBRANCH   8   9
ENDBRANCH   6   8
ENDBRANCH   2   6
BRANCH   3  23
HETATM   23  C   UNK N   1      24.353  12.549   7.831  0.00  0.00     0.259 C 
HETATM   24  O   UNK N   1      24.071  11.398   7.526  0.00  0.00    -0.267 OA
HETATM   25  N   UNK N   1      23.906  13.093   8.995  0.00  0.00    -0.342 N 
HETATM   26  H   UNK N   1      24.116  14.039   9.166  0.00  0.00     0.163 HD
BRANCH  25  27
HETATM   27  C   UNK N   1      23.144  12.379  10.005  0.00  0.00     0.183 C 
BRANCH  27  28
HETATM   28  C   UNK N   1      21.785  13.044  10.244  0.00  0.00     0.046 C 
BRANCH  28  29
HETATM   29  C   UNK N   1      21.633  14.298   9.394  0.00  0.00     0.112 C 
BRANCH  29  30
HETATM   30  C   UNK N   1      20.195  14.534   9.069  0.00  0.00     0.139 C 
HETATM   31  O   UNK N   1      19.327  14.208   9.864  0.00  0.00    -0.650 OA
BRANCH  30  32
HETATM   32  O   UNK N   1      19.854  15.133   7.913  0.00  0.00    -0.776 OA
HETATM   33  H   UNK N   1      19.221  14.738   7.346  0.00  0.00     0.167 HD
ENDBRANCH  30  32
ENDBRANCH  29  30
ENDBRANCH  28  29
ENDBRANCH  27  28
BRANCH  27  34
HETATM   34  C   UNK N   1      23.901  12.173  11.282  0.00  0.00     0.163 C 
HETATM   35  O   UNK N   1      23.349  11.726  12.274  0.00  0.00    -0.648 OA
BRANCH  34  36
HETATM   36  O   UNK N   1      25.197  12.533  11.346  0.00  0.00    -0.775 OA
HETATM   37  H   UNK N   1      25.708  12.313  12.100  0.00  0.00     0.167 HD
ENDBRANCH  34  36
ENDBRANCH  27  34
ENDBRANCH  25  27
ENDBRANCH   3  23
TORSDOF 11
ENDMDL
MODEL 9
REMARK VINA RESULT:      -7.0      6.214     13.934
REMARK  11 active torsions:
REMARK  status: ('A' for Active; 'I' for Inactive)
REMARK    1  A    between atoms: O_2  and  C_29 
REMARK    2  A    between atoms: O_6  and  C_32 
REMARK    3  A    between atoms: N_8  and  C_13 
REMARK    4  A    between atoms: N_8  and  C_17 
REMARK    5  A    between atoms: C_14  and  N_9 
REMARK       I    between atoms: N_9  and  C_25 
REMARK    6  A    between atoms: C_13  and  C_15 
REMARK    7  A    between atoms: C_14  and  C_16 
REMARK    8  A    between atoms: C_14  and  C_29 
REMARK    9  A    between atoms: C_16  and  C_21 
REMARK   10  A    between atoms: C_21  and  C_32 
REMARK   11  A    between atoms: C_23  and  C_25 
ROOT
HETATM    1  S   UNK N   1      34.358  14.359   9.599  0.00  0.00    -0.067 SA
HETATM    2  C   UNK N   1      34.596  15.836   8.886  0.00  0.00     0.072 A 
HETATM    3  C   UNK N   1      34.839  14.751  11.134  0.00  0.00     0.074 A 
HETATM    4  C   UNK N   1      35.042  16.725   9.870  0.00  0.00     0.038 A 
HETATM    5  C   UNK N   1      35.185  16.107  11.141  0.00  0.00     0.027 A 
ENDROOT
BRANCH   2   6
HETATM    6  N   UNK N   1      34.604  16.090   7.492  0.00  0.00    -0.375 N 
HETATM    7  C   UNK N   1      35.237  15.157   6.592  0.00  0.00     0.150 C 
BRANCH   6   8
HETATM    8  C   UNK N   1      34.295  17.422   7.020  0.00  0.00     0.161 C 
BRANCH   8   9
HETATM    9  C   UNK N   1      33.050  17.433   6.218  0.00  0.00    -0.039 A 
HETATM   10  C   UNK N   1      31.806  17.277   6.836  0.00  0.00     0.028 A 
HETATM   11  C   UNK N   1      30.644  17.256   6.056  0.00  0.00     0.059 A 
HETATM   12  C   UNK N   1      30.738  17.386   4.656  0.00  0.00     0.049 A 
HETATM   13  C   UNK N   1      29.376  17.102   6.625  0.00  0.00     0.259 A 
HETATM   14  N   UNK N   1      29.616  17.345   3.895  0.00  0.00    -0.345 N 
HETATM   15  C   UNK N   1      31.985  17.554   4.049  0.00  0.00     0.031 A 
HETATM   16  C   UNK N   1      28.392  17.183   4.463  0.00  0.00     0.080 A 
HETATM   17  H   UNK N   1      29.689  17.434   2.917  0.00  0.00     0.167 HD
HETATM   18  N   UNK N   1      28.272  17.067   5.814  0.00  0.00    -0.313 N 
HETATM   19  C   UNK N   1      27.182  17.127   3.605  0.00  0.00     0.089 C 
ATOM     20  HN  UNK N   1      27.348  16.952   6.228  1.00  0.00     0.170 HD
HETATM   21  C   UNK N   1      33.139  17.580   4.831  0.00  0.00     0.011 A 
HETATM   22  O   UNK N   1      29.241  16.995   7.833  0.00  0.00    -0.267 OA
ENDBRANCH   8   9
ENDBRANCH   6   8
ENDBRANCH   2   6
BRANCH   3  23
HETATM   23  C   UNK N   1      35.176  13.793  12.188  0.00  0.00     0.259 C 
HETATM   24  O   UNK N   1      35.260  14.164  13.351  0.00  0.00    -0.267 OA
HETATM   25  N   UNK N   1      35.192  12.471  11.873  0.00  0.00    -0.342 N 
HETATM   26  H   UNK N   1      35.177  12.229  10.919  0.00  0.00     0.163 HD
BRANCH  25  27
HETATM   27  C   UNK N   1      35.227  11.388  12.841  0.00  0.00     0.183 C 
BRANCH  27  28
HETATM   28  C   UNK N   1      36.450  10.492  12.623  0.00  0.00     0.046 C 
BRANCH  28  29
HETATM   29  C   UNK N   1      37.712  11.148  13.165  0.00  0.00     0.112 C 
BRANCH  29  30
HETATM   30  C   UNK N   1      37.485  11.640  14.557  0.00  0.00     0.139 C 
HETATM   31  O   UNK N   1      37.270  10.845  15.458  0.00  0.00    -0.650 OA
BRANCH  30  32
HETATM   32  O   UNK N   1      37.547  12.958  14.825  0.00  0.00    -0.776 OA
HETATM   33  H   UNK N   1      38.278  13.464  14.531  0.00  0.00     0.167 HD
ENDBRANCH  30  32
ENDBRANCH  29  30
ENDBRANCH  28  29
ENDBRANCH  27  28
BRANCH  27  34
HETATM   34  C   UNK N   1      33.954  10.598  12.892  0.00  0.00     0.163 C 
HETATM   35  O   UNK N   1      33.607   9.905  11.951  0.00  0.00    -0.648 OA
BRANCH  34  36
HETATM   36  O   UNK N   1      33.160  10.697  13.975  0.00  0.00    -0.775 OA
HETATM   37  H   UNK N   1      33.529  10.907  14.810  0.00  0.00     0.167 HD
ENDBRANCH  34  36
ENDBRANCH  27  34
ENDBRANCH  25  27
ENDBRANCH   3  23
TORSDOF 11
ENDMDL
