MODEL 1
REMARK VINA RESULT:      -6.9      0.000      0.000
REMARK  2 active torsions:
REMARK  status: ('A' for Active; 'I' for Inactive)
REMARK    1  A    between atoms: C_14  and  O_2 
REMARK    2  A    between atoms: O_3  and  C_20 
ROOT
HETATM    1  O   UNK N   1      32.074  16.148   9.431  0.00  0.00    -0.338 OA
HETATM    2  N   UNK N   1      32.447  15.059   4.352  0.00  0.00     0.089 N 
HETATM    3  C   UNK N   1      32.689  15.743   7.187  0.00  0.00     0.030 C 
HETATM    4  C   UNK N   1      33.533  16.470   6.132  0.00  0.00     0.057 C 
HETATM    5  C   UNK N   1      32.684  16.449   4.804  0.00  0.00     0.235 C 
HETATM    6  C   UNK N   1      33.195  15.771   8.678  0.00  0.00     0.175 C 
HETATM    7  C   UNK N   1      32.408  14.300   6.734  0.00  0.00     0.048 C 
HETATM    8  C   UNK N   1      31.420  16.476   7.344  0.00  0.00    -0.003 A 
HETATM    9  C   UNK N   1      31.288  17.146   4.942  0.00  0.00     0.075 C 
HETATM   10  C   UNK N   1      31.746  14.240   5.353  0.00  0.00     0.273 C 
HETATM   11  C   UNK N   1      30.682  17.056   6.325  0.00  0.00    -0.046 A 
HETATM   12  C   UNK N   1      34.356  16.790   8.820  0.00  0.00     0.171 C 
HETATM   13  C   UNK N   1      33.852  17.860   6.648  0.00  0.00    -0.020 C 
HETATM   14  C   UNK N   1      31.095  16.596   8.641  0.00  0.00     0.110 A 
HETATM   15  C   UNK N   1      34.226  18.011   7.934  0.00  0.00     0.004 C 
HETATM   16  C   UNK N   1      33.680  14.393   3.947  0.00  0.00     0.310 C 
HETATM   17  C   UNK N   1      29.474  17.692   6.663  0.00  0.00     0.011 A 
HETATM   18  C   UNK N   1      29.893  17.198   9.023  0.00  0.00     0.099 A 
HETATM   19  C   UNK N   1      29.059  17.725   8.016  0.00  0.00     0.040 A 
ENDROOT
BRANCH  12  20
HETATM   20  O   UNK N   1      34.585  17.143  10.150  0.00  0.00    -0.389 OA
HETATM   21  H   UNK N   1      34.857  18.047  10.374  0.00  0.00     0.210 HD
ENDBRANCH  12  20
BRANCH  18  22
HETATM   22  O   UNK N   1      29.550  17.292  10.319  0.00  0.00    -0.358 OA
HETATM   23  H   UNK N   1      30.188  17.514  10.969  0.00  0.00     0.217 HD
ENDBRANCH  18  22
TORSDOF 2
ENDMDL
MODEL 2
REMARK VINA RESULT:      -6.6      1.982      2.652
REMARK  2 active torsions:
REMARK  status: ('A' for Active; 'I' for Inactive)
REMARK    1  A    between atoms: C_14  and  O_2 
REMARK    2  A    between atoms: O_3  and  C_20 
ROOT
HETATM    1  O   UNK N   1      32.134  16.324   7.442  0.00  0.00    -0.338 OA
HETATM    2  N   UNK N   1      29.119  14.938   3.429  0.00  0.00     0.089 N 
HETATM    3  C   UNK N   1      31.158  15.704   5.382  0.00  0.00     0.030 C 
HETATM    4  C   UNK N   1      31.230  16.213   3.938  0.00  0.00     0.057 C 
HETATM    5  C   UNK N   1      29.740  16.282   3.425  0.00  0.00     0.235 C 
HETATM    6  C   UNK N   1      32.485  15.712   6.230  0.00  0.00     0.175 C 
HETATM    7  C   UNK N   1      30.496  14.316   5.421  0.00  0.00     0.048 C 
HETATM    8  C   UNK N   1      30.359  16.663   6.167  0.00  0.00    -0.003 A 
HETATM    9  C   UNK N   1      28.828  17.228   4.277  0.00  0.00     0.075 C 
HETATM   10  C   UNK N   1      29.113  14.311   4.759  0.00  0.00     0.273 C 
HETATM   11  C   UNK N   1      29.217  17.317   5.737  0.00  0.00    -0.046 A 
HETATM   12  C   UNK N   1      33.584  16.509   5.477  0.00  0.00     0.171 C 
HETATM   13  C   UNK N   1      31.955  17.545   3.933  0.00  0.00    -0.020 C 
HETATM   14  C   UNK N   1      30.935  16.904   7.356  0.00  0.00     0.110 A 
HETATM   15  C   UNK N   1      33.066  17.688   4.682  0.00  0.00     0.004 C 
HETATM   16  C   UNK N   1      29.742  14.039   2.463  0.00  0.00     0.310 C 
HETATM   17  C   UNK N   1      28.568  18.178   6.640  0.00  0.00     0.011 A 
HETATM   18  C   UNK N   1      30.315  17.733   8.295  0.00  0.00     0.099 A 
HETATM   19  C   UNK N   1      29.100  18.353   7.941  0.00  0.00     0.040 A 
ENDROOT
BRANCH  12  20
HETATM   20  O   UNK N   1      34.634  16.878   6.319  0.00  0.00    -0.389 OA
HETATM   21  H   UNK N   1      35.482  17.160   5.943  0.00  0.00     0.210 HD
ENDBRANCH  12  20
BRANCH  18  22
HETATM   22  O   UNK N   1      30.873  17.950   9.498  0.00  0.00    -0.358 OA
HETATM   23  H   UNK N   1      30.941  18.818   9.845  0.00  0.00     0.217 HD
ENDBRANCH  18  22
TORSDOF 2
ENDMDL
MODEL 3
REMARK VINA RESULT:      -6.4      2.713      4.339
REMARK  2 active torsions:
REMARK  status: ('A' for Active; 'I' for Inactive)
REMARK    1  A    between atoms: C_14  and  O_2 
REMARK    2  A    between atoms: O_3  and  C_20 
ROOT
HETATM    1  O   UNK N   1      31.954  16.571   4.081  0.00  0.00    -0.338 OA
HETATM    2  N   UNK N   1      33.502  17.243   9.007  0.00  0.00     0.089 N 
HETATM    3  C   UNK N   1      32.891  16.487   6.248  0.00  0.00     0.030 C 
HETATM    4  C   UNK N   1      33.046  15.417   7.335  0.00  0.00     0.057 C 
HETATM    5  C   UNK N   1      32.613  16.103   8.687  0.00  0.00     0.235 C 
HETATM    6  C   UNK N   1      33.068  16.041   4.747  0.00  0.00     0.175 C 
HETATM    7  C   UNK N   1      33.788  17.696   6.565  0.00  0.00     0.048 C 
HETATM    8  C   UNK N   1      31.478  16.906   6.214  0.00  0.00    -0.003 A 
HETATM    9  C   UNK N   1      31.141  16.639   8.674  0.00  0.00     0.075 C 
HETATM   10  C   UNK N   1      33.516  18.274   7.959  0.00  0.00     0.273 C 
HETATM   11  C   UNK N   1      30.655  17.088   7.313  0.00  0.00    -0.046 A 
HETATM   12  C   UNK N   1      33.110  14.492   4.662  0.00  0.00     0.171 C 
HETATM   13  C   UNK N   1      32.207  14.214   6.948  0.00  0.00    -0.020 C 
HETATM   14  C   UNK N   1      31.040  17.009   4.949  0.00  0.00     0.110 A 
HETATM   15  C   UNK N   1      32.226  13.788   5.669  0.00  0.00     0.004 C 
HETATM   16  C   UNK N   1      34.866  16.815   9.295  0.00  0.00     0.310 C 
HETATM   17  C   UNK N   1      29.336  17.521   7.088  0.00  0.00     0.011 A 
HETATM   18  C   UNK N   1      29.745  17.459   4.676  0.00  0.00     0.099 A 
HETATM   19  C   UNK N   1      28.894  17.748   5.762  0.00  0.00     0.040 A 
ENDROOT
BRANCH  12  20
HETATM   20  O   UNK N   1      32.879  14.032   3.366  0.00  0.00    -0.389 OA
HETATM   21  H   UNK N   1      33.603  14.010   2.721  0.00  0.00     0.210 HD
ENDBRANCH  12  20
BRANCH  18  22
HETATM   22  O   UNK N   1      29.314  17.594   3.410  0.00  0.00    -0.358 OA
HETATM   23  H   UNK N   1      29.571  16.982   2.749  0.00  0.00     0.217 HD
ENDBRANCH  18  22
TORSDOF 2
ENDMDL
MODEL 4
REMARK VINA RESULT:      -6.3     13.306     15.274
REMARK  2 active torsions:
REMARK  status: ('A' for Active; 'I' for Inactive)
REMARK    1  A    between atoms: C_14  and  O_2 
REMARK    2  A    between atoms: O_3  and  C_20 
ROOT
HETATM    1  O   UNK N   1      29.040  24.875  -3.359  0.00  0.00    -0.338 OA
HETATM    2  N   UNK N   1      29.433  23.801  -8.439  0.00  0.00     0.089 N 
HETATM    3  C   UNK N   1      28.807  24.589  -5.692  0.00  0.00     0.030 C 
HETATM    4  C   UNK N   1      27.705  24.080  -6.630  0.00  0.00     0.057 C 
HETATM    5  C   UNK N   1      28.410  23.093  -7.637  0.00  0.00     0.235 C 
HETATM    6  C   UNK N   1      28.372  25.452  -4.449  0.00  0.00     0.175 C 
HETATM    7  C   UNK N   1      29.897  25.311  -6.502  0.00  0.00     0.048 C 
HETATM    8  C   UNK N   1      29.387  23.427  -4.994  0.00  0.00    -0.003 A 
HETATM    9  C   UNK N   1      29.113  21.881  -6.936  0.00  0.00     0.075 C 
HETATM   10  C   UNK N   1      30.476  24.432  -7.616  0.00  0.00     0.273 C 
HETATM   11  C   UNK N   1      29.642  22.185  -5.551  0.00  0.00    -0.046 A 
HETATM   12  C   UNK N   1      26.830  25.390  -4.280  0.00  0.00     0.171 C 
HETATM   13  C   UNK N   1      26.615  23.443  -5.790  0.00  0.00    -0.020 C 
HETATM   14  C   UNK N   1      29.564  23.693  -3.690  0.00  0.00     0.110 A 
HETATM   15  C   UNK N   1      26.214  24.061  -4.661  0.00  0.00     0.004 C 
HETATM   16  C   UNK N   1      28.845  24.792  -9.333  0.00  0.00     0.310 C 
HETATM   17  C   UNK N   1      30.229  21.202  -4.735  0.00  0.00     0.011 A 
HETATM   18  C   UNK N   1      30.166  22.756  -2.846  0.00  0.00     0.099 A 
HETATM   19  C   UNK N   1      30.531  21.506  -3.385  0.00  0.00     0.040 A 
ENDROOT
BRANCH  12  20
HETATM   20  O   UNK N   1      26.425  25.799  -3.010  0.00  0.00    -0.389 OA
HETATM   21  H   UNK N   1      27.068  26.185  -2.395  0.00  0.00     0.210 HD
ENDBRANCH  12  20
BRANCH  18  22
HETATM   22  O   UNK N   1      30.375  23.032  -1.547  0.00  0.00    -0.358 OA
HETATM   23  H   UNK N   1      31.203  22.854  -1.146  0.00  0.00     0.217 HD
ENDBRANCH  18  22
TORSDOF 2
ENDMDL
MODEL 5
REMARK VINA RESULT:      -6.3     15.650     17.400
REMARK  2 active torsions:
REMARK  status: ('A' for Active; 'I' for Inactive)
REMARK    1  A    between atoms: C_14  and  O_2 
REMARK    2  A    between atoms: O_3  and  C_20 
ROOT
HETATM    1  O   UNK N   1      25.798  26.472  -4.142  0.00  0.00    -0.338 OA
HETATM    2  N   UNK N   1      27.391  25.621  -9.026  0.00  0.00     0.089 N 
HETATM    3  C   UNK N   1      26.648  25.675  -6.197  0.00  0.00     0.030 C 
HETATM    4  C   UNK N   1      27.933  24.974  -6.654  0.00  0.00     0.057 C 
HETATM    5  C   UNK N   1      28.405  25.732  -7.954  0.00  0.00     0.235 C 
HETATM    6  C   UNK N   1      26.041  25.260  -4.804  0.00  0.00     0.175 C 
HETATM    7  C   UNK N   1      25.581  25.594  -7.302  0.00  0.00     0.048 C 
HETATM    8  C   UNK N   1      26.971  27.086  -5.914  0.00  0.00    -0.003 A 
HETATM    9  C   UNK N   1      28.684  27.256  -7.722  0.00  0.00     0.075 C 
HETATM   10  C   UNK N   1      26.079  26.159  -8.637  0.00  0.00     0.273 C 
HETATM   11  C   UNK N   1      27.828  27.889  -6.647  0.00  0.00    -0.046 A 
HETATM   12  C   UNK N   1      27.055  24.373  -4.033  0.00  0.00     0.171 C 
HETATM   13  C   UNK N   1      28.931  25.009  -5.513  0.00  0.00    -0.020 C 
HETATM   14  C   UNK N   1      26.387  27.489  -4.773  0.00  0.00     0.110 A 
HETATM   15  C   UNK N   1      28.505  24.740  -4.263  0.00  0.00     0.004 C 
HETATM   16  C   UNK N   1      27.239  24.250  -9.501  0.00  0.00     0.310 C 
HETATM   17  C   UNK N   1      27.991  29.226  -6.242  0.00  0.00     0.011 A 
HETATM   18  C   UNK N   1      26.501  28.814  -4.344  0.00  0.00     0.099 A 
HETATM   19  C   UNK N   1      27.289  29.700  -5.107  0.00  0.00     0.040 A 
ENDROOT
BRANCH  12  20
HETATM   20  O   UNK N   1      26.754  24.294  -2.673  0.00  0.00    -0.389 OA
HETATM   21  H   UNK N   1      25.993  23.773  -2.373  0.00  0.00     0.210 HD
ENDBRANCH  12  20
BRANCH  18  22
HETATM   22  O   UNK N   1      25.892  29.229  -3.220  0.00  0.00    -0.358 OA
HETATM   23  H   UNK N   1      25.603  30.116  -3.132  0.00  0.00     0.217 HD
ENDBRANCH  18  22
TORSDOF 2
ENDMDL
MODEL 6
REMARK VINA RESULT:      -6.3      9.389     11.782
REMARK  2 active torsions:
REMARK  status: ('A' for Active; 'I' for Inactive)
REMARK    1  A    between atoms: C_14  and  O_2 
REMARK    2  A    between atoms: O_3  and  C_20 
ROOT
HETATM    1  O   UNK N   1      19.093  16.699   3.872  0.00  0.00    -0.338 OA
HETATM    2  N   UNK N   1      24.232  16.004   4.350  0.00  0.00     0.089 N 
HETATM    3  C   UNK N   1      21.316  16.193   4.492  0.00  0.00     0.030 C 
HETATM    4  C   UNK N   1      22.173  16.381   5.750  0.00  0.00     0.057 C 
HETATM    5  C   UNK N   1      23.554  16.960   5.254  0.00  0.00     0.235 C 
HETATM    6  C   UNK N   1      19.802  15.805   4.688  0.00  0.00     0.175 C 
HETATM    7  C   UNK N   1      22.007  15.219   3.522  0.00  0.00     0.048 C 
HETATM    8  C   UNK N   1      21.151  17.509   3.849  0.00  0.00    -0.003 A 
HETATM    9  C   UNK N   1      23.423  18.322   4.491  0.00  0.00     0.075 C 
HETATM   10  C   UNK N   1      23.430  15.664   3.165  0.00  0.00     0.273 C 
HETATM   11  C   UNK N   1      22.123  18.488   3.733  0.00  0.00    -0.046 A 
HETATM   12  C   UNK N   1      19.411  15.951   6.182  0.00  0.00     0.171 C 
HETATM   13  C   UNK N   1      21.426  17.285   6.711  0.00  0.00    -0.020 C 
HETATM   14  C   UNK N   1      19.881  17.691   3.452  0.00  0.00     0.110 A 
HETATM   15  C   UNK N   1      20.105  17.088   6.900  0.00  0.00     0.004 C 
HETATM   16  C   UNK N   1      24.634  14.783   5.040  0.00  0.00     0.310 C 
HETATM   17  C   UNK N   1      21.791  19.676   3.057  0.00  0.00     0.011 A 
HETATM   18  C   UNK N   1      19.509  18.844   2.755  0.00  0.00     0.099 A 
HETATM   19  C   UNK N   1      20.486  19.834   2.529  0.00  0.00     0.040 A 
ENDROOT
BRANCH  12  20
HETATM   20  O   UNK N   1      18.028  15.999   6.361  0.00  0.00    -0.389 OA
HETATM   21  H   UNK N   1      17.435  15.808   5.617  0.00  0.00     0.210 HD
ENDBRANCH  12  20
BRANCH  18  22
HETATM   22  O   UNK N   1      18.246  19.014   2.328  0.00  0.00    -0.358 OA
HETATM   23  H   UNK N   1      17.522  18.712   2.841  0.00  0.00     0.217 HD
ENDBRANCH  18  22
TORSDOF 2
ENDMDL
MODEL 7
REMARK VINA RESULT:      -6.3     15.067     17.058
REMARK  2 active torsions:
REMARK  status: ('A' for Active; 'I' for Inactive)
REMARK    1  A    between atoms: C_14  and  O_2 
REMARK    2  A    between atoms: O_3  and  C_20 
ROOT
HETATM    1  O   UNK N   1      26.762  25.031  -4.239  0.00  0.00    -0.338 OA
HETATM    2  N   UNK N   1      27.742  30.110  -3.649  0.00  0.00     0.089 N 
HETATM    3  C   UNK N   1      26.903  27.388  -4.311  0.00  0.00     0.030 C 
HETATM    4  C   UNK N   1      27.070  28.443  -5.411  0.00  0.00     0.057 C 
HETATM    5  C   UNK N   1      28.177  29.440  -4.894  0.00  0.00     0.235 C 
HETATM    6  C   UNK N   1      25.994  26.139  -4.624  0.00  0.00     0.175 C 
HETATM    7  C   UNK N   1      26.471  28.059  -2.996  0.00  0.00     0.048 C 
HETATM    8  C   UNK N   1      28.198  26.708  -4.126  0.00  0.00    -0.003 A 
HETATM    9  C   UNK N   1      29.554  28.750  -4.605  0.00  0.00     0.075 C 
HETATM   10  C   UNK N   1      27.437  29.167  -2.562  0.00  0.00     0.273 C 
HETATM   11  C   UNK N   1      29.445  27.310  -4.153  0.00  0.00    -0.046 A 
HETATM   12  C   UNK N   1      25.649  26.107  -6.137  0.00  0.00     0.171 C 
HETATM   13  C   UNK N   1      27.421  27.736  -6.706  0.00  0.00    -0.020 C 
HETATM   14  C   UNK N   1      28.030  25.381  -4.013  0.00  0.00     0.110 A 
HETATM   15  C   UNK N   1      26.754  26.613  -7.039  0.00  0.00     0.004 C 
HETATM   16  C   UNK N   1      26.602  30.995  -3.867  0.00  0.00     0.310 C 
HETATM   17  C   UNK N   1      30.575  26.504  -3.925  0.00  0.00     0.011 A 
HETATM   18  C   UNK N   1      29.119  24.542  -3.762  0.00  0.00     0.099 A 
HETATM   19  C   UNK N   1      30.404  25.118  -3.687  0.00  0.00     0.040 A 
ENDROOT
BRANCH  12  20
HETATM   20  O   UNK N   1      25.188  24.855  -6.543  0.00  0.00    -0.389 OA
HETATM   21  H   UNK N   1      24.294  24.761  -6.907  0.00  0.00     0.210 HD
ENDBRANCH  12  20
BRANCH  18  22
HETATM   22  O   UNK N   1      28.950  23.217  -3.616  0.00  0.00    -0.358 OA
HETATM   23  H   UNK N   1      29.605  22.694  -3.198  0.00  0.00     0.217 HD
ENDBRANCH  18  22
TORSDOF 2
ENDMDL
MODEL 8
REMARK VINA RESULT:      -6.3      2.449      4.286
REMARK  2 active torsions:
REMARK  status: ('A' for Active; 'I' for Inactive)
REMARK    1  A    between atoms: C_14  and  O_2 
REMARK    2  A    between atoms: O_3  and  C_20 
ROOT
HETATM    1  O   UNK N   1      29.649  16.326   6.030  0.00  0.00    -0.338 OA
HETATM    2  N   UNK N   1      34.073  15.702   8.704  0.00  0.00     0.089 N 
HETATM    3  C   UNK N   1      31.405  16.176   7.604  0.00  0.00     0.030 C 
HETATM    4  C   UNK N   1      31.964  17.077   8.711  0.00  0.00     0.057 C 
HETATM    5  C   UNK N   1      33.531  17.068   8.531  0.00  0.00     0.235 C 
HETATM    6  C   UNK N   1      29.842  16.139   7.407  0.00  0.00     0.175 C 
HETATM    7  C   UNK N   1      31.969  14.752   7.745  0.00  0.00     0.048 C 
HETATM    8  C   UNK N   1      31.803  16.746   6.303  0.00  0.00    -0.003 A 
HETATM    9  C   UNK N   1      34.002  17.591   7.131  0.00  0.00     0.075 C 
HETATM   10  C   UNK N   1      33.502  14.731   7.760  0.00  0.00     0.273 C 
HETATM   11  C   UNK N   1      33.027  17.321   6.006  0.00  0.00    -0.046 A 
HETATM   12  C   UNK N   1      29.181  17.268   8.241  0.00  0.00     0.171 C 
HETATM   13  C   UNK N   1      31.328  18.448   8.583  0.00  0.00    -0.020 C 
HETATM   14  C   UNK N   1      30.777  16.724   5.437  0.00  0.00     0.110 A 
HETATM   15  C   UNK N   1      30.005  18.534   8.341  0.00  0.00     0.004 C 
HETATM   16  C   UNK N   1      33.913  15.214  10.070  0.00  0.00     0.310 C 
HETATM   17  C   UNK N   1      33.239  17.787   4.696  0.00  0.00     0.011 A 
HETATM   18  C   UNK N   1      30.946  17.154   4.119  0.00  0.00     0.099 A 
HETATM   19  C   UNK N   1      32.204  17.663   3.737  0.00  0.00     0.040 A 
ENDROOT
BRANCH  12  20
HETATM   20  O   UNK N   1      27.877  17.535   7.823  0.00  0.00    -0.389 OA
HETATM   21  H   UNK N   1      27.542  18.445   7.826  0.00  0.00     0.210 HD
ENDBRANCH  12  20
BRANCH  18  22
HETATM   22  O   UNK N   1      29.930  17.102   3.240  0.00  0.00    -0.358 OA
HETATM   23  H   UNK N   1      30.001  16.597   2.455  0.00  0.00     0.217 HD
ENDBRANCH  18  22
TORSDOF 2
ENDMDL
MODEL 9
REMARK VINA RESULT:      -6.1      9.459     11.379
REMARK  2 active torsions:
REMARK  status: ('A' for Active; 'I' for Inactive)
REMARK    1  A    between atoms: C_14  and  O_2 
REMARK    2  A    between atoms: O_3  and  C_20 
ROOT
HETATM    1  O   UNK N   1      21.497  19.114   5.705  0.00  0.00    -0.338 OA
HETATM    2  N   UNK N   1      23.097  14.671   3.511  0.00  0.00     0.089 N 
HETATM    3  C   UNK N   1      22.117  17.308   4.315  0.00  0.00     0.030 C 
HETATM    4  C   UNK N   1      21.482  16.565   3.133  0.00  0.00     0.057 C 
HETATM    5  C   UNK N   1      21.663  15.028   3.436  0.00  0.00     0.235 C 
HETATM    6  C   UNK N   1      21.921  18.869   4.392  0.00  0.00     0.175 C 
HETATM    7  C   UNK N   1      23.606  16.939   4.432  0.00  0.00     0.048 C 
HETATM    8  C   UNK N   1      21.404  16.910   5.543  0.00  0.00    -0.003 A 
HETATM    9  C   UNK N   1      20.990  14.571   4.775  0.00  0.00     0.075 C 
HETATM   10  C   UNK N   1      23.825  15.426   4.541  0.00  0.00     0.273 C 
HETATM   11  C   UNK N   1      20.952  15.637   5.848  0.00  0.00    -0.046 A 
HETATM   12  C   UNK N   1      20.863  19.317   3.349  0.00  0.00     0.171 C 
HETATM   13  C   UNK N   1      20.038  17.011   3.005  0.00  0.00    -0.020 C 
HETATM   14  C   UNK N   1      21.158  17.978   6.320  0.00  0.00     0.110 A 
HETATM   15  C   UNK N   1      19.745  18.321   3.127  0.00  0.00     0.004 C 
HETATM   16  C   UNK N   1      23.770  14.819   2.225  0.00  0.00     0.310 C 
HETATM   17  C   UNK N   1      20.316  15.439   7.086  0.00  0.00     0.011 A 
HETATM   18  C   UNK N   1      20.550  17.827   7.569  0.00  0.00     0.099 A 
HETATM   19  C   UNK N   1      20.153  16.535   7.968  0.00  0.00     0.040 A 
ENDROOT
BRANCH  12  20
HETATM   20  O   UNK N   1      20.369  20.593   3.619  0.00  0.00    -0.389 OA
HETATM   21  H   UNK N   1      19.521  20.876   3.241  0.00  0.00     0.210 HD
ENDBRANCH  12  20
BRANCH  18  22
HETATM   22  O   UNK N   1      20.331  18.890   8.362  0.00  0.00    -0.358 OA
HETATM   23  H   UNK N   1      19.902  18.790   9.189  0.00  0.00     0.217 HD
ENDBRANCH  18  22
TORSDOF 2
ENDMDL
