REMARK  2 active torsions:
REMARK  status: ('A' for Active; 'I' for Inactive)
REMARK    1  A    between atoms: C_14  and  O_2 
REMARK    2  A    between atoms: O_3  and  C_20 
ROOT
HETATM    1  O   UNK N   1       0.987   0.146  -0.835  0.00  0.00    -0.338 OA
HETATM    2  N   UNK N   1       6.114  -0.761  -0.775  0.00  0.00     0.089 N 
HETATM    3  C   UNK N   1       3.190  -0.697  -0.711  0.00  0.00     0.030 C 
HETATM    4  C   UNK N   1       3.974  -1.576   0.271  0.00  0.00     0.057 C 
HETATM    5  C   UNK N   1       5.358  -0.854   0.494  0.00  0.00     0.235 C 
HETATM    6  C   UNK N   1       1.682  -1.063  -0.981  0.00  0.00     0.175 C 
HETATM    7  C   UNK N   1       3.963  -0.564  -2.034  0.00  0.00     0.048 C 
HETATM    8  C   UNK N   1       3.014   0.632  -0.097  0.00  0.00    -0.003 A 
HETATM    9  C   UNK N   1       5.221   0.596   1.071  0.00  0.00     0.075 C 
HETATM   10  C   UNK N   1       5.387  -0.035  -1.827  0.00  0.00     0.273 C 
HETATM   11  C   UNK N   1       3.958   1.316   0.651  0.00  0.00    -0.046 A 
HETATM   12  C   UNK N   1       1.209  -2.129   0.043  0.00  0.00     0.171 C 
HETATM   13  C   UNK N   1       3.147  -1.745   1.531  0.00  0.00    -0.020 C 
HETATM   14  C   UNK N   1       1.761   1.080  -0.278  0.00  0.00     0.110 A 
HETATM   15  C   UNK N   1       1.826  -1.990   1.418  0.00  0.00     0.004 C 
HETATM   16  C   UNK N   1       6.521  -2.071  -1.272  0.00  0.00     0.310 C 
HETATM   17  C   UNK N   1       3.621   2.593   1.134  0.00  0.00     0.011 A 
HETATM   18  C   UNK N   1       1.387   2.352   0.163  0.00  0.00     0.099 A 
HETATM   19  C   UNK N   1       2.341   3.129   0.851  0.00  0.00     0.040 A 
ENDROOT
BRANCH  12  20
HETATM   20  O   UNK N   1      -0.182  -2.211   0.110  0.00  0.00    -0.389 OA
HETATM   21  H   UNK N   1      -0.715  -1.402   0.156  0.00  0.00     0.210 HD
ENDBRANCH  12  20
BRANCH  18  22
HETATM   22  O   UNK N   1       0.143   2.816  -0.045  0.00  0.00    -0.358 OA
HETATM   23  H   UNK N   1      -0.010   3.729  -0.189  0.00  0.00     0.217 HD
ENDBRANCH  18  22
TORSDOF 2
