MODEL 1
REMARK VINA RESULT:      -6.0      0.000      0.000
REMARK  5 active torsions:
REMARK  status: ('A' for Active; 'I' for Inactive)
REMARK    1  A    between atoms: N_2  and  C_9 
REMARK       I    between atoms: N_3  and  C_10 
REMARK    2  A    between atoms: N_3  and  C_13 
REMARK    3  A    between atoms: C_4  and  C_10 
REMARK    4  A    between atoms: C_9  and  C_11 
REMARK    5  A    between atoms: C_11  and  C_12 
ROOT
HETATM    1  O   UNK N   1      37.227  12.851  15.112  0.00  0.00    -0.271 OA
HETATM    2  N   UNK N   1      35.037  12.581  15.524  0.00  0.00    -0.324 N 
HETATM    3  C   UNK N   1      36.078  12.900  14.704  0.00  0.00     0.255 C 
HETATM    4  H   UNK N   1      34.130  12.681  15.154  0.00  0.00     0.169 HD
ENDROOT
BRANCH   3   5
HETATM    5  C   UNK N   1      35.825  13.426  13.303  0.00  0.00     0.314 C 
HETATM    6  N   UNK N   1      36.538  12.693  12.236  0.00  0.00     0.102 N 
HETATM    7  C   UNK N   1      36.127  13.221  10.933  0.00  0.00     0.273 C 
HETATM    8  C   UNK N   1      36.523  14.686  10.792  0.00  0.00     0.030 C 
HETATM    9  C   UNK N   1      35.852  15.495  11.893  0.00  0.00     0.004 C 
HETATM   10  C   UNK N   1      36.206  14.910  13.253  0.00  0.00     0.046 C 
BRANCH   6  11
HETATM   11  C   UNK N   1      36.138  11.292  12.215  0.00  0.00     0.273 C 
BRANCH  11  12
HETATM   12  C   UNK N   1      34.724  11.191  11.666  0.00  0.00     0.030 C 
BRANCH  12  13
HETATM   13  C   UNK N   1      33.948  10.100  12.376  0.00  0.00    -0.003 C 
HETATM   14  C   UNK N   1      34.705   8.789  12.286  0.00  0.00     0.005 C 
ENDBRANCH  12  13
ENDBRANCH  11  12
ENDBRANCH   6  11
ENDBRANCH   3   5
BRANCH   2  15
HETATM   15  C   UNK N   1      35.141  12.115  16.872  0.00  0.00     0.046 A 
HETATM   16  C   UNK N   1      35.262  12.989  17.986  0.00  0.00    -0.035 A 
HETATM   17  C   UNK N   1      35.359  12.460  19.277  0.00  0.00     0.009 A 
HETATM   18  C   UNK N   1      35.351  14.470  17.837  0.00  0.00     0.050 C 
HETATM   19  C   UNK N   1      35.338  11.081  19.483  0.00  0.00     0.001 A 
HETATM   20  C   UNK N   1      35.238  10.216  18.396  0.00  0.00     0.009 A 
HETATM   21  C   UNK N   1      35.147  10.722  17.098  0.00  0.00    -0.035 A 
HETATM   22  C   UNK N   1      35.035   9.761  15.966  0.00  0.00     0.050 C 
ENDBRANCH   2  15
TORSDOF 5
ENDMDL
MODEL 2
REMARK VINA RESULT:      -5.9      2.046      3.991
REMARK  5 active torsions:
REMARK  status: ('A' for Active; 'I' for Inactive)
REMARK    1  A    between atoms: N_2  and  C_9 
REMARK       I    between atoms: N_3  and  C_10 
REMARK    2  A    between atoms: N_3  and  C_13 
REMARK    3  A    between atoms: C_4  and  C_10 
REMARK    4  A    between atoms: C_9  and  C_11 
REMARK    5  A    between atoms: C_11  and  C_12 
ROOT
HETATM    1  O   UNK N   1      35.022  13.890  13.231  0.00  0.00    -0.271 OA
HETATM    2  N   UNK N   1      36.910  13.538  14.393  0.00  0.00    -0.324 N 
HETATM    3  C   UNK N   1      36.227  13.695  13.224  0.00  0.00     0.255 C 
HETATM    4  H   UNK N   1      37.872  13.340  14.325  0.00  0.00     0.169 HD
ENDROOT
BRANCH   3   5
HETATM    5  C   UNK N   1      36.929  13.524  11.889  0.00  0.00     0.314 C 
HETATM    6  N   UNK N   1      36.332  14.298  10.781  0.00  0.00     0.102 N 
HETATM    7  C   UNK N   1      37.160  14.136   9.583  0.00  0.00     0.273 C 
HETATM    8  C   UNK N   1      37.184  12.681   9.132  0.00  0.00     0.030 C 
HETATM    9  C   UNK N   1      37.751  11.819  10.250  0.00  0.00     0.004 C 
HETATM   10  C   UNK N   1      36.950  12.034  11.527  0.00  0.00     0.046 C 
BRANCH   6  11
HETATM   11  C   UNK N   1      36.367  15.726  11.070  0.00  0.00     0.273 C 
BRANCH  11  12
HETATM   12  C   UNK N   1      35.086  16.364  10.560  0.00  0.00     0.030 C 
BRANCH  12  13
HETATM   13  C   UNK N   1      34.089  15.305  10.135  0.00  0.00    -0.003 C 
HETATM   14  C   UNK N   1      33.223  15.835   9.009  0.00  0.00     0.005 C 
ENDBRANCH  12  13
ENDBRANCH  11  12
ENDBRANCH   6  11
ENDBRANCH   3   5
BRANCH   2  15
HETATM   15  C   UNK N   1      36.359  13.635  15.709  0.00  0.00     0.046 A 
HETATM   16  C   UNK N   1      35.553  12.616  16.286  0.00  0.00    -0.035 A 
HETATM   17  C   UNK N   1      35.048  12.781  17.580  0.00  0.00     0.009 A 
HETATM   18  C   UNK N   1      35.164  11.383  15.544  0.00  0.00     0.050 C 
HETATM   19  C   UNK N   1      35.327  13.934  18.311  0.00  0.00     0.001 A 
HETATM   20  C   UNK N   1      36.100  14.946  17.746  0.00  0.00     0.009 A 
HETATM   21  C   UNK N   1      36.609  14.806  16.453  0.00  0.00    -0.035 A 
HETATM   22  C   UNK N   1      37.436  15.910  15.891  0.00  0.00     0.050 C 
ENDBRANCH   2  15
TORSDOF 5
ENDMDL
MODEL 3
REMARK VINA RESULT:      -5.8      0.218      1.901
REMARK  5 active torsions:
REMARK  status: ('A' for Active; 'I' for Inactive)
REMARK    1  A    between atoms: N_2  and  C_9 
REMARK       I    between atoms: N_3  and  C_10 
REMARK    2  A    between atoms: N_3  and  C_13 
REMARK    3  A    between atoms: C_4  and  C_10 
REMARK    4  A    between atoms: C_9  and  C_11 
REMARK    5  A    between atoms: C_11  and  C_12 
ROOT
HETATM    1  O   UNK N   1      37.213  12.337  15.055  0.00  0.00    -0.271 OA
HETATM    2  N   UNK N   1      35.063  12.576  15.655  0.00  0.00    -0.324 N 
HETATM    3  C   UNK N   1      36.076  12.661  14.748  0.00  0.00     0.255 C 
HETATM    4  H   UNK N   1      34.176  12.892  15.364  0.00  0.00     0.169 HD
ENDROOT
BRANCH   3   5
HETATM    5  C   UNK N   1      35.837  13.259  13.373  0.00  0.00     0.314 C 
HETATM    6  N   UNK N   1      36.574  12.592  12.280  0.00  0.00     0.102 N 
HETATM    7  C   UNK N   1      36.174  13.186  11.001  0.00  0.00     0.273 C 
HETATM    8  C   UNK N   1      36.555  14.661  10.945  0.00  0.00     0.030 C 
HETATM    9  C   UNK N   1      35.860  15.401  12.078  0.00  0.00     0.004 C 
HETATM   10  C   UNK N   1      36.201  14.748  13.410  0.00  0.00     0.046 C 
BRANCH   6  11
HETATM   11  C   UNK N   1      36.190  11.190  12.177  0.00  0.00     0.273 C 
BRANCH  11  12
HETATM   12  C   UNK N   1      34.799  11.102  11.570  0.00  0.00     0.030 C 
BRANCH  12  13
HETATM   13  C   UNK N   1      33.947  10.101  12.323  0.00  0.00    -0.003 C 
HETATM   14  C   UNK N   1      34.772   8.875  12.661  0.00  0.00     0.005 C 
ENDBRANCH  12  13
ENDBRANCH  11  12
ENDBRANCH   6  11
ENDBRANCH   3   5
BRANCH   2  15
HETATM   15  C   UNK N   1      35.167  12.071  16.988  0.00  0.00     0.046 A 
HETATM   16  C   UNK N   1      35.133  10.684  17.294  0.00  0.00    -0.035 A 
HETATM   17  C   UNK N   1      35.241  10.263  18.624  0.00  0.00     0.009 A 
HETATM   18  C   UNK N   1      34.928   9.637  16.253  0.00  0.00     0.050 C 
HETATM   19  C   UNK N   1      35.381  11.192  19.654  0.00  0.00     0.001 A 
HETATM   20  C   UNK N   1      35.395  12.554  19.365  0.00  0.00     0.009 A 
HETATM   21  C   UNK N   1      35.283  12.997  18.046  0.00  0.00    -0.035 A 
HETATM   22  C   UNK N   1      35.309  14.463  17.782  0.00  0.00     0.050 C 
ENDBRANCH   2  15
TORSDOF 5
ENDMDL
MODEL 4
REMARK VINA RESULT:      -5.7     10.373     13.661
REMARK  5 active torsions:
REMARK  status: ('A' for Active; 'I' for Inactive)
REMARK    1  A    between atoms: N_2  and  C_9 
REMARK       I    between atoms: N_3  and  C_10 
REMARK    2  A    between atoms: N_3  and  C_13 
REMARK    3  A    between atoms: C_4  and  C_10 
REMARK    4  A    between atoms: C_9  and  C_11 
REMARK    5  A    between atoms: C_11  and  C_12 
ROOT
HETATM    1  O   UNK N   1      28.443  16.372   6.136  0.00  0.00    -0.271 OA
HETATM    2  N   UNK N   1      28.764  18.054   4.684  0.00  0.00    -0.324 N 
HETATM    3  C   UNK N   1      29.220  17.038   5.470  0.00  0.00     0.255 C 
HETATM    4  H   UNK N   1      29.440  18.585   4.204  0.00  0.00     0.169 HD
ENDROOT
BRANCH   3   5
HETATM    5  C   UNK N   1      30.709  16.783   5.617  0.00  0.00     0.314 C 
HETATM    6  N   UNK N   1      31.350  17.525   6.723  0.00  0.00     0.102 N 
HETATM    7  C   UNK N   1      32.752  17.111   6.828  0.00  0.00     0.273 C 
HETATM    8  C   UNK N   1      33.521  17.469   5.563  0.00  0.00     0.030 C 
HETATM    9  C   UNK N   1      32.882  16.768   4.373  0.00  0.00     0.004 C 
HETATM   10  C   UNK N   1      31.404  17.125   4.294  0.00  0.00     0.046 C 
BRANCH   6  11
HETATM   11  C   UNK N   1      30.755  17.162   8.002  0.00  0.00     0.273 C 
BRANCH  11  12
HETATM   12  C   UNK N   1      30.660  18.403   8.873  0.00  0.00     0.030 C 
BRANCH  12  13
HETATM   13  C   UNK N   1      29.444  18.336   9.775  0.00  0.00    -0.003 C 
HETATM   14  C   UNK N   1      28.180  18.365   8.937  0.00  0.00     0.005 C 
ENDBRANCH  12  13
ENDBRANCH  11  12
ENDBRANCH   6  11
ENDBRANCH   3   5
BRANCH   2  15
HETATM   15  C   UNK N   1      27.396  18.421   4.493  0.00  0.00     0.046 A 
HETATM   16  C   UNK N   1      26.486  17.641   3.728  0.00  0.00    -0.035 A 
HETATM   17  C   UNK N   1      25.160  18.062   3.584  0.00  0.00     0.009 A 
HETATM   18  C   UNK N   1      26.899  16.401   3.010  0.00  0.00     0.050 C 
HETATM   19  C   UNK N   1      24.720  19.241   4.184  0.00  0.00     0.001 A 
HETATM   20  C   UNK N   1      25.609  20.021   4.919  0.00  0.00     0.009 A 
HETATM   21  C   UNK N   1      26.938  19.623   5.071  0.00  0.00    -0.035 A 
HETATM   22  C   UNK N   1      27.853  20.485   5.871  0.00  0.00     0.050 C 
ENDBRANCH   2  15
TORSDOF 5
ENDMDL
MODEL 5
REMARK VINA RESULT:      -5.7     21.706     25.107
REMARK  5 active torsions:
REMARK  status: ('A' for Active; 'I' for Inactive)
REMARK    1  A    between atoms: N_2  and  C_9 
REMARK       I    between atoms: N_3  and  C_10 
REMARK    2  A    between atoms: N_3  and  C_13 
REMARK    3  A    between atoms: C_4  and  C_10 
REMARK    4  A    between atoms: C_9  and  C_11 
REMARK    5  A    between atoms: C_11  and  C_12 
ROOT
HETATM    1  O   UNK N   1      26.344  24.273  -3.861  0.00  0.00    -0.271 OA
HETATM    2  N   UNK N   1      27.249  25.614  -5.417  0.00  0.00    -0.324 N 
HETATM    3  C   UNK N   1      26.842  24.393  -4.969  0.00  0.00     0.255 C 
HETATM    4  H   UNK N   1      27.684  25.643  -6.301  0.00  0.00     0.169 HD
ENDROOT
BRANCH   3   5
HETATM    5  C   UNK N   1      27.098  23.143  -5.791  0.00  0.00     0.314 C 
HETATM    6  N   UNK N   1      28.486  23.006  -6.280  0.00  0.00     0.102 N 
HETATM    7  C   UNK N   1      28.629  21.716  -6.960  0.00  0.00     0.273 C 
HETATM    8  C   UNK N   1      27.729  21.645  -8.186  0.00  0.00     0.030 C 
HETATM    9  C   UNK N   1      26.280  21.823  -7.756  0.00  0.00     0.004 C 
HETATM   10  C   UNK N   1      26.128  23.123  -6.978  0.00  0.00     0.046 C 
BRANCH   6  11
HETATM   11  C   UNK N   1      29.423  22.949  -5.166  0.00  0.00     0.273 C 
BRANCH  11  12
HETATM   12  C   UNK N   1      30.079  21.578  -5.143  0.00  0.00     0.030 C 
BRANCH  12  13
HETATM   13  C   UNK N   1      30.456  21.187  -3.729  0.00  0.00    -0.003 C 
HETATM   14  C   UNK N   1      30.520  22.422  -2.853  0.00  0.00     0.005 C 
ENDBRANCH  12  13
ENDBRANCH  11  12
ENDBRANCH   6  11
ENDBRANCH   3   5
BRANCH   2  15
HETATM   15  C   UNK N   1      27.103  26.856  -4.725  0.00  0.00     0.046 A 
HETATM   16  C   UNK N   1      25.905  27.622  -4.755  0.00  0.00    -0.035 A 
HETATM   17  C   UNK N   1      25.835  28.829  -4.052  0.00  0.00     0.009 A 
HETATM   18  C   UNK N   1      24.718  27.222  -5.563  0.00  0.00     0.050 C 
HETATM   19  C   UNK N   1      26.928  29.289  -3.320  0.00  0.00     0.001 A 
HETATM   20  C   UNK N   1      28.112  28.555  -3.300  0.00  0.00     0.009 A 
HETATM   21  C   UNK N   1      28.206  27.351  -4.000  0.00  0.00    -0.035 A 
HETATM   22  C   UNK N   1      29.489  26.595  -3.945  0.00  0.00     0.050 C 
ENDBRANCH   2  15
TORSDOF 5
ENDMDL
MODEL 6
REMARK VINA RESULT:      -5.7     10.440     13.415
REMARK  5 active torsions:
REMARK  status: ('A' for Active; 'I' for Inactive)
REMARK    1  A    between atoms: N_2  and  C_9 
REMARK       I    between atoms: N_3  and  C_10 
REMARK    2  A    between atoms: N_3  and  C_13 
REMARK    3  A    between atoms: C_4  and  C_10 
REMARK    4  A    between atoms: C_9  and  C_11 
REMARK    5  A    between atoms: C_11  and  C_12 
ROOT
HETATM    1  O   UNK N   1      29.546  15.180   5.164  0.00  0.00    -0.271 OA
HETATM    2  N   UNK N   1      30.156  17.315   4.836  0.00  0.00    -0.324 N 
HETATM    3  C   UNK N   1      29.303  16.266   4.664  0.00  0.00     0.255 C 
HETATM    4  H   UNK N   1      29.931  18.155   4.373  0.00  0.00     0.169 HD
ENDROOT
BRANCH   3   5
HETATM    5  C   UNK N   1      28.092  16.396   3.759  0.00  0.00     0.314 C 
HETATM    6  N   UNK N   1      26.814  16.603   4.473  0.00  0.00     0.102 N 
HETATM    7  C   UNK N   1      25.747  16.823   3.493  0.00  0.00     0.273 C 
HETATM    8  C   UNK N   1      25.557  15.594   2.613  0.00  0.00     0.030 C 
HETATM    9  C   UNK N   1      26.856  15.299   1.878  0.00  0.00     0.004 C 
HETATM   10  C   UNK N   1      27.994  15.145   2.878  0.00  0.00     0.046 C 
BRANCH   6  11
HETATM   11  C   UNK N   1      26.856  17.828   5.262  0.00  0.00     0.273 C 
BRANCH  11  12
HETATM   12  C   UNK N   1      26.777  19.022   4.325  0.00  0.00     0.030 C 
BRANCH  12  13
HETATM   13  C   UNK N   1      27.804  20.070   4.703  0.00  0.00    -0.003 C 
HETATM   14  C   UNK N   1      27.196  21.056   5.681  0.00  0.00     0.005 C 
ENDBRANCH  12  13
ENDBRANCH  11  12
ENDBRANCH   6  11
ENDBRANCH   3   5
BRANCH   2  15
HETATM   15  C   UNK N   1      31.347  17.309   5.627  0.00  0.00     0.046 A 
HETATM   16  C   UNK N   1      31.333  17.400   7.046  0.00  0.00    -0.035 A 
HETATM   17  C   UNK N   1      32.539  17.388   7.754  0.00  0.00     0.009 A 
HETATM   18  C   UNK N   1      30.075  17.568   7.827  0.00  0.00     0.050 C 
HETATM   19  C   UNK N   1      33.757  17.288   7.083  0.00  0.00     0.001 A 
HETATM   20  C   UNK N   1      33.781  17.219   5.692  0.00  0.00     0.009 A 
HETATM   21  C   UNK N   1      32.590  17.235   4.964  0.00  0.00    -0.035 A 
HETATM   22  C   UNK N   1      32.662  17.152   3.479  0.00  0.00     0.050 C 
ENDBRANCH   2  15
TORSDOF 5
ENDMDL
MODEL 7
REMARK VINA RESULT:      -5.6     21.693     24.982
REMARK  5 active torsions:
REMARK  status: ('A' for Active; 'I' for Inactive)
REMARK    1  A    between atoms: N_2  and  C_9 
REMARK       I    between atoms: N_3  and  C_10 
REMARK    2  A    between atoms: N_3  and  C_13 
REMARK    3  A    between atoms: C_4  and  C_10 
REMARK    4  A    between atoms: C_9  and  C_11 
REMARK    5  A    between atoms: C_11  and  C_12 
ROOT
HETATM    1  O   UNK N   1      27.193  24.762  -3.345  0.00  0.00    -0.271 OA
HETATM    2  N   UNK N   1      27.553  26.086  -5.123  0.00  0.00    -0.324 N 
HETATM    3  C   UNK N   1      27.355  24.864  -4.551  0.00  0.00     0.255 C 
HETATM    4  H   UNK N   1      27.721  26.103  -6.093  0.00  0.00     0.169 HD
ENDROOT
BRANCH   3   5
HETATM    5  C   UNK N   1      27.439  23.598  -5.384  0.00  0.00     0.314 C 
HETATM    6  N   UNK N   1      28.737  23.398  -6.063  0.00  0.00     0.102 N 
HETATM    7  C   UNK N   1      28.729  22.098  -6.738  0.00  0.00     0.273 C 
HETATM    8  C   UNK N   1      27.660  22.056  -7.823  0.00  0.00     0.030 C 
HETATM    9  C   UNK N   1      26.297  22.299  -7.194  0.00  0.00     0.004 C 
HETATM   10  C   UNK N   1      26.310  23.610  -6.421  0.00  0.00     0.046 C 
BRANCH   6  11
HETATM   11  C   UNK N   1      29.820  23.310  -5.092  0.00  0.00     0.273 C 
BRANCH  11  12
HETATM   12  C   UNK N   1      30.127  21.845  -4.828  0.00  0.00     0.030 C 
BRANCH  12  13
HETATM   13  C   UNK N   1      30.457  21.621  -3.366  0.00  0.00    -0.003 C 
HETATM   14  C   UNK N   1      30.132  22.868  -2.568  0.00  0.00     0.005 C 
ENDBRANCH  12  13
ENDBRANCH  11  12
ENDBRANCH   6  11
ENDBRANCH   3   5
BRANCH   2  15
HETATM   15  C   UNK N   1      27.537  27.344  -4.445  0.00  0.00     0.046 A 
HETATM   16  C   UNK N   1      28.679  27.886  -3.795  0.00  0.00    -0.035 A 
HETATM   17  C   UNK N   1      28.590  29.125  -3.151  0.00  0.00     0.009 A 
HETATM   18  C   UNK N   1      29.978  27.158  -3.715  0.00  0.00     0.050 C 
HETATM   19  C   UNK N   1      27.390  29.834  -3.140  0.00  0.00     0.001 A 
HETATM   20  C   UNK N   1      26.261  29.302  -3.758  0.00  0.00     0.009 A 
HETATM   21  C   UNK N   1      26.326  28.065  -4.401  0.00  0.00    -0.035 A 
HETATM   22  C   UNK N   1      25.096  27.537  -5.054  0.00  0.00     0.050 C 
ENDBRANCH   2  15
TORSDOF 5
ENDMDL
MODEL 8
REMARK VINA RESULT:      -5.6     10.243     13.507
REMARK  5 active torsions:
REMARK  status: ('A' for Active; 'I' for Inactive)
REMARK    1  A    between atoms: N_2  and  C_9 
REMARK       I    between atoms: N_3  and  C_10 
REMARK    2  A    between atoms: N_3  and  C_13 
REMARK    3  A    between atoms: C_4  and  C_10 
REMARK    4  A    between atoms: C_9  and  C_11 
REMARK    5  A    between atoms: C_11  and  C_12 
ROOT
HETATM    1  O   UNK N   1      28.085  17.125   7.006  0.00  0.00    -0.271 OA
HETATM    2  N   UNK N   1      28.785  18.247   5.192  0.00  0.00    -0.324 N 
HETATM    3  C   UNK N   1      29.013  17.489   6.301  0.00  0.00     0.255 C 
HETATM    4  H   UNK N   1      29.576  18.548   4.687  0.00  0.00     0.169 HD
ENDROOT
BRANCH   3   5
HETATM    5  C   UNK N   1      30.430  17.171   6.743  0.00  0.00     0.314 C 
HETATM    6  N   UNK N   1      30.742  15.728   6.807  0.00  0.00     0.102 N 
HETATM    7  C   UNK N   1      32.159  15.558   7.135  0.00  0.00     0.273 C 
HETATM    8  C   UNK N   1      32.470  16.130   8.513  0.00  0.00     0.030 C 
HETATM    9  C   UNK N   1      32.130  17.613   8.528  0.00  0.00     0.004 C 
HETATM   10  C   UNK N   1      30.679  17.815   8.112  0.00  0.00     0.046 C 
BRANCH   6  11
HETATM   11  C   UNK N   1      30.583  15.106   5.499  0.00  0.00     0.273 C 
BRANCH  11  12
HETATM   12  C   UNK N   1      31.865  15.294   4.705  0.00  0.00     0.030 C 
BRANCH  12  13
HETATM   13  C   UNK N   1      31.617  16.143   3.475  0.00  0.00    -0.003 C 
HETATM   14  C   UNK N   1      32.367  17.455   3.596  0.00  0.00     0.005 C 
ENDBRANCH  12  13
ENDBRANCH  11  12
ENDBRANCH   6  11
ENDBRANCH   3   5
BRANCH   2  15
HETATM   15  C   UNK N   1      27.506  18.647   4.694  0.00  0.00     0.046 A 
HETATM   16  C   UNK N   1      26.720  17.828   3.839  0.00  0.00    -0.035 A 
HETATM   17  C   UNK N   1      25.476  18.286   3.391  0.00  0.00     0.009 A 
HETATM   18  C   UNK N   1      27.190  16.505   3.339  0.00  0.00     0.050 C 
HETATM   19  C   UNK N   1      24.999  19.538   3.775  0.00  0.00     0.001 A 
HETATM   20  C   UNK N   1      25.771  20.354   4.597  0.00  0.00     0.009 A 
HETATM   21  C   UNK N   1      27.018  19.921   5.051  0.00  0.00    -0.035 A 
HETATM   22  C   UNK N   1      27.807  20.824   5.934  0.00  0.00     0.050 C 
ENDBRANCH   2  15
TORSDOF 5
ENDMDL
MODEL 9
REMARK VINA RESULT:      -5.4     10.523     13.372
REMARK  5 active torsions:
REMARK  status: ('A' for Active; 'I' for Inactive)
REMARK    1  A    between atoms: N_2  and  C_9 
REMARK       I    between atoms: N_3  and  C_10 
REMARK    2  A    between atoms: N_3  and  C_13 
REMARK    3  A    between atoms: C_4  and  C_10 
REMARK    4  A    between atoms: C_9  and  C_11 
REMARK    5  A    between atoms: C_11  and  C_12 
ROOT
HETATM    1  O   UNK N   1      29.278  15.182   5.369  0.00  0.00    -0.271 OA
HETATM    2  N   UNK N   1      29.777  17.362   5.169  0.00  0.00    -0.324 N 
HETATM    3  C   UNK N   1      29.021  16.267   4.871  0.00  0.00     0.255 C 
HETATM    4  H   UNK N   1      29.550  18.200   4.704  0.00  0.00     0.169 HD
ENDROOT
BRANCH   3   5
HETATM    5  C   UNK N   1      27.915  16.349   3.835  0.00  0.00     0.314 C 
HETATM    6  N   UNK N   1      26.565  16.563   4.398  0.00  0.00     0.102 N 
HETATM    7  C   UNK N   1      25.610  16.734   3.300  0.00  0.00     0.273 C 
HETATM    8  C   UNK N   1      25.530  15.473   2.449  0.00  0.00     0.030 C 
HETATM    9  C   UNK N   1      26.904  15.170   1.871  0.00  0.00     0.004 C 
HETATM   10  C   UNK N   1      27.927  15.067   2.995  0.00  0.00     0.046 C 
BRANCH   6  11
HETATM   11  C   UNK N   1      26.508  17.815   5.142  0.00  0.00     0.273 C 
BRANCH  11  12
HETATM   12  C   UNK N   1      26.283  18.959   4.167  0.00  0.00     0.030 C 
BRANCH  12  13
HETATM   13  C   UNK N   1      27.454  19.919   4.185  0.00  0.00    -0.003 C 
HETATM   14  C   UNK N   1      27.511  20.636   5.520  0.00  0.00     0.005 C 
ENDBRANCH  12  13
ENDBRANCH  11  12
ENDBRANCH   6  11
ENDBRANCH   3   5
BRANCH   2  15
HETATM   15  C   UNK N   1      30.867  17.406   6.092  0.00  0.00     0.046 A 
HETATM   16  C   UNK N   1      32.223  17.259   5.695  0.00  0.00    -0.035 A 
HETATM   17  C   UNK N   1      33.238  17.314   6.656  0.00  0.00     0.009 A 
HETATM   18  C   UNK N   1      32.621  16.986   4.284  0.00  0.00     0.050 C 
HETATM   19  C   UNK N   1      32.933  17.512   8.001  0.00  0.00     0.001 A 
HETATM   20  C   UNK N   1      31.605  17.638   8.402  0.00  0.00     0.009 A 
HETATM   21  C   UNK N   1      30.576  17.580   7.462  0.00  0.00    -0.035 A 
HETATM   22  C   UNK N   1      29.171  17.727   7.934  0.00  0.00     0.050 C 
ENDBRANCH   2  15
TORSDOF 5
ENDMDL
