MODEL 1
REMARK VINA RESULT:      -8.1      0.000      0.000
REMARK  4 active torsions:
REMARK  status: ('A' for Active; 'I' for Inactive)
REMARK    1  A    between atoms: O_1  and  C_26 
REMARK    2  A    between atoms: C_15  and  C_17 
REMARK    3  A    between atoms: C_17  and  C_19 
REMARK    4  A    between atoms: C_25  and  C_26 
ROOT
HETATM    1  C   UNK N   1      32.041  16.194   4.994  0.00  0.00    -0.020 C 
HETATM    2  C   UNK N   1      33.014  17.255   7.648  0.00  0.00    -0.020 C 
HETATM    3  C   UNK N   1      33.463  16.004   5.511  0.00  0.00     0.015 C 
HETATM    4  C   UNK N   1      33.878  17.167   6.387  0.00  0.00     0.015 C 
HETATM    5  C   UNK N   1      31.088  16.626   6.095  0.00  0.00    -0.042 A 
HETATM    6  C   UNK N   1      31.533  17.077   7.354  0.00  0.00    -0.043 A 
HETATM    7  C   UNK N   1      32.014  17.213   3.863  0.00  0.00     0.020 C 
HETATM    8  C   UNK N   1      31.616  14.847   4.428  0.00  0.00     0.020 C 
HETATM    9  C   UNK N   1      33.271  18.635   8.228  0.00  0.00     0.020 C 
HETATM   10  C   UNK N   1      33.463  16.214   8.661  0.00  0.00     0.020 C 
HETATM   11  C   UNK N   1      29.724  16.547   5.854  0.00  0.00     0.021 A 
HETATM   12  C   UNK N   1      30.575  17.386   8.339  0.00  0.00     0.016 A 
HETATM   13  C   UNK N   1      28.748  16.851   6.803  0.00  0.00    -0.019 A 
HETATM   14  C   UNK N   1      29.199  17.282   8.085  0.00  0.00    -0.050 A 
HETATM   15  C   UNK N   1      28.269  17.634   9.197  0.00  0.00     0.049 C 
ENDROOT
BRANCH  13  16
HETATM   16  C   UNK N   1      27.293  16.715   6.384  0.00  0.00    -0.025 C 
HETATM   17  C   UNK N   1      26.553  15.697   6.839  0.00  0.00     0.025 C 
BRANCH  16  18
HETATM   18  C   UNK N   1      26.617  17.757   5.521  0.00  0.00    -0.026 A 
HETATM   19  C   UNK N   1      25.424  17.463   4.840  0.00  0.00     0.013 A 
HETATM   20  C   UNK N   1      24.817  18.381   3.996  0.00  0.00     0.019 A 
HETATM   21  C   UNK N   1      25.389  19.638   3.805  0.00  0.00     0.037 A 
HETATM   22  C   UNK N   1      26.561  19.973   4.498  0.00  0.00     0.019 A 
HETATM   23  C   UNK N   1      27.168  19.042   5.357  0.00  0.00     0.013 A 
BRANCH  21  24
HETATM   24  C   UNK N   1      24.762  20.578   2.857  0.00  0.00     0.176 C 
HETATM   25  O   UNK N   1      25.373  20.962   1.874  0.00  0.00    -0.646 OA
BRANCH  24  26
HETATM   26  O   UNK N   1      23.516  21.040   3.087  0.00  0.00    -0.773 OA
HETATM   27  H   UNK N   1      23.087  21.650   2.519  0.00  0.00     0.167 HD
ENDBRANCH  24  26
ENDBRANCH  21  24
ENDBRANCH  16  18
ENDBRANCH  13  16
TORSDOF 4
ENDMDL
MODEL 2
REMARK VINA RESULT:      -8.0      2.233      3.759
REMARK  4 active torsions:
REMARK  status: ('A' for Active; 'I' for Inactive)
REMARK    1  A    between atoms: O_1  and  C_26 
REMARK    2  A    between atoms: C_15  and  C_17 
REMARK    3  A    between atoms: C_17  and  C_19 
REMARK    4  A    between atoms: C_25  and  C_26 
ROOT
HETATM    1  C   UNK N   1      29.685  16.742   5.586  0.00  0.00    -0.020 C 
HETATM    2  C   UNK N   1      29.692  17.914   8.369  0.00  0.00    -0.020 C 
HETATM    3  C   UNK N   1      30.201  16.001   6.816  0.00  0.00     0.015 C 
HETATM    4  C   UNK N   1      30.770  16.970   7.830  0.00  0.00     0.015 C 
HETATM    5  C   UNK N   1      28.843  17.949   5.961  0.00  0.00    -0.042 A 
HETATM    6  C   UNK N   1      28.803  18.474   7.269  0.00  0.00    -0.043 A 
HETATM    7  C   UNK N   1      30.842  17.180   4.700  0.00  0.00     0.020 C 
HETATM    8  C   UNK N   1      28.847  15.736   4.810  0.00  0.00     0.020 C 
HETATM    9  C   UNK N   1      30.440  19.040   9.062  0.00  0.00     0.020 C 
HETATM   10  C   UNK N   1      28.837  17.195   9.400  0.00  0.00     0.020 C 
HETATM   11  C   UNK N   1      28.063  18.540   4.978  0.00  0.00     0.021 A 
HETATM   12  C   UNK N   1      27.936  19.550   7.541  0.00  0.00     0.016 A 
HETATM   13  C   UNK N   1      27.199  19.610   5.209  0.00  0.00    -0.019 A 
HETATM   14  C   UNK N   1      27.139  20.123   6.537  0.00  0.00    -0.050 A 
HETATM   15  C   UNK N   1      26.256  21.259   6.931  0.00  0.00     0.049 C 
ENDROOT
BRANCH  13  16
HETATM   16  C   UNK N   1      26.412  20.147   4.024  0.00  0.00    -0.025 C 
HETATM   17  C   UNK N   1      27.029  20.851   3.068  0.00  0.00     0.025 C 
BRANCH  16  18
HETATM   18  C   UNK N   1      24.943  19.833   3.842  0.00  0.00    -0.026 A 
HETATM   19  C   UNK N   1      24.150  20.589   2.964  0.00  0.00     0.013 A 
HETATM   20  C   UNK N   1      22.789  20.360   2.825  0.00  0.00     0.019 A 
HETATM   21  C   UNK N   1      22.171  19.356   3.567  0.00  0.00     0.037 A 
HETATM   22  C   UNK N   1      22.943  18.562   4.427  0.00  0.00     0.019 A 
HETATM   23  C   UNK N   1      24.322  18.792   4.559  0.00  0.00     0.013 A 
BRANCH  21  24
HETATM   24  C   UNK N   1      20.713  19.167   3.451  0.00  0.00     0.176 C 
HETATM   25  O   UNK N   1      20.251  18.066   3.199  0.00  0.00    -0.646 OA
BRANCH  24  26
HETATM   26  O   UNK N   1      19.881  20.217   3.597  0.00  0.00    -0.773 OA
HETATM   27  H   UNK N   1      20.186  21.092   3.737  0.00  0.00     0.167 HD
ENDBRANCH  24  26
ENDBRANCH  21  24
ENDBRANCH  16  18
ENDBRANCH  13  16
TORSDOF 4
ENDMDL
MODEL 3
REMARK VINA RESULT:      -8.0      4.102      7.903
REMARK  4 active torsions:
REMARK  status: ('A' for Active; 'I' for Inactive)
REMARK    1  A    between atoms: O_1  and  C_26 
REMARK    2  A    between atoms: C_15  and  C_17 
REMARK    3  A    between atoms: C_17  and  C_19 
REMARK    4  A    between atoms: C_25  and  C_26 
ROOT
HETATM    1  C   UNK N   1      26.959  19.396   4.810  0.00  0.00    -0.020 C 
HETATM    2  C   UNK N   1      25.589  16.729   4.450  0.00  0.00    -0.020 C 
HETATM    3  C   UNK N   1      25.478  19.161   5.089  0.00  0.00     0.015 C 
HETATM    4  C   UNK N   1      24.924  18.082   4.183  0.00  0.00     0.015 C 
HETATM    5  C   UNK N   1      27.733  18.093   4.706  0.00  0.00    -0.042 A 
HETATM    6  C   UNK N   1      27.100  16.839   4.585  0.00  0.00    -0.043 A 
HETATM    7  C   UNK N   1      27.142  20.204   3.534  0.00  0.00     0.020 C 
HETATM    8  C   UNK N   1      27.480  20.225   5.976  0.00  0.00     0.020 C 
HETATM    9  C   UNK N   1      25.232  15.854   3.261  0.00  0.00     0.020 C 
HETATM   10  C   UNK N   1      25.007  16.101   5.705  0.00  0.00     0.020 C 
HETATM   11  C   UNK N   1      29.117  18.142   4.757  0.00  0.00     0.021 A 
HETATM   12  C   UNK N   1      27.896  15.677   4.570  0.00  0.00     0.016 A 
HETATM   13  C   UNK N   1      29.938  17.014   4.737  0.00  0.00    -0.019 A 
HETATM   14  C   UNK N   1      29.296  15.745   4.642  0.00  0.00    -0.050 A 
HETATM   15  C   UNK N   1      30.045  14.456   4.617  0.00  0.00     0.049 C 
ENDROOT
BRANCH  13  16
HETATM   16  C   UNK N   1      31.440  17.236   4.800  0.00  0.00    -0.025 C 
HETATM   17  C   UNK N   1      32.124  17.542   3.691  0.00  0.00     0.025 C 
BRANCH  16  18
HETATM   18  C   UNK N   1      32.191  17.205   6.113  0.00  0.00    -0.026 A 
HETATM   19  C   UNK N   1      33.550  17.555   6.173  0.00  0.00     0.013 A 
HETATM   20  C   UNK N   1      34.274  17.477   7.353  0.00  0.00     0.019 A 
HETATM   21  C   UNK N   1      33.656  17.044   8.525  0.00  0.00     0.037 A 
HETATM   22  C   UNK N   1      32.292  16.720   8.503  0.00  0.00     0.019 A 
HETATM   23  C   UNK N   1      31.560  16.808   7.308  0.00  0.00     0.013 A 
BRANCH  21  24
HETATM   24  C   UNK N   1      34.458  16.910   9.756  0.00  0.00     0.176 C 
HETATM   25  O   UNK N   1      35.419  17.636   9.948  0.00  0.00    -0.646 OA
BRANCH  24  26
HETATM   26  O   UNK N   1      34.147  15.966  10.666  0.00  0.00    -0.773 OA
HETATM   27  H   UNK N   1      34.697  15.227  10.841  0.00  0.00     0.167 HD
ENDBRANCH  24  26
ENDBRANCH  21  24
ENDBRANCH  16  18
ENDBRANCH  13  16
TORSDOF 4
ENDMDL
MODEL 4
REMARK VINA RESULT:      -7.8      4.930      8.423
REMARK  4 active torsions:
REMARK  status: ('A' for Active; 'I' for Inactive)
REMARK    1  A    between atoms: O_1  and  C_26 
REMARK    2  A    between atoms: C_15  and  C_17 
REMARK    3  A    between atoms: C_17  and  C_19 
REMARK    4  A    between atoms: C_25  and  C_26 
ROOT
HETATM    1  C   UNK N   1      31.412  16.189   3.798  0.00  0.00    -0.020 C 
HETATM    2  C   UNK N   1      28.634  16.670   4.881  0.00  0.00    -0.020 C 
HETATM    3  C   UNK N   1      30.175  16.343   2.918  0.00  0.00     0.015 C 
HETATM    4  C   UNK N   1      28.939  15.838   3.632  0.00  0.00     0.015 C 
HETATM    5  C   UNK N   1      31.166  16.674   5.216  0.00  0.00    -0.042 A 
HETATM    6  C   UNK N   1      29.875  16.947   5.715  0.00  0.00    -0.043 A 
HETATM    7  C   UNK N   1      31.872  14.738   3.825  0.00  0.00     0.020 C 
HETATM    8  C   UNK N   1      32.503  17.020   3.139  0.00  0.00     0.020 C 
HETATM    9  C   UNK N   1      27.635  15.854   5.684  0.00  0.00     0.020 C 
HETATM   10  C   UNK N   1      27.980  17.983   4.485  0.00  0.00     0.020 C 
HETATM   11  C   UNK N   1      32.261  16.880   6.042  0.00  0.00     0.021 A 
HETATM   12  C   UNK N   1      29.749  17.464   7.018  0.00  0.00     0.016 A 
HETATM   13  C   UNK N   1      32.173  17.384   7.339  0.00  0.00    -0.019 A 
HETATM   14  C   UNK N   1      30.870  17.685   7.833  0.00  0.00    -0.050 A 
HETATM   15  C   UNK N   1      30.626  18.235   9.198  0.00  0.00     0.049 C 
ENDROOT
BRANCH  13  16
HETATM   16  C   UNK N   1      33.468  17.552   8.118  0.00  0.00    -0.025 C 
HETATM   17  C   UNK N   1      34.238  18.628   7.921  0.00  0.00     0.025 C 
BRANCH  16  18
HETATM   18  C   UNK N   1      33.881  16.567   9.189  0.00  0.00    -0.026 A 
HETATM   19  C   UNK N   1      34.913  16.875  10.091  0.00  0.00     0.013 A 
HETATM   20  C   UNK N   1      35.350  15.966  11.042  0.00  0.00     0.019 A 
HETATM   21  C   UNK N   1      34.762  14.705  11.126  0.00  0.00     0.037 A 
HETATM   22  C   UNK N   1      33.706  14.381  10.261  0.00  0.00     0.019 A 
HETATM   23  C   UNK N   1      33.262  15.308   9.304  0.00  0.00     0.013 A 
BRANCH  21  24
HETATM   24  C   UNK N   1      35.280  13.731  12.104  0.00  0.00     0.176 C 
HETATM   25  O   UNK N   1      36.468  13.453  12.128  0.00  0.00    -0.646 OA
BRANCH  24  26
HETATM   26  O   UNK N   1      34.439  13.122  12.963  0.00  0.00    -0.773 OA
HETATM   27  H   UNK N   1      33.640  12.715  12.689  0.00  0.00     0.167 HD
ENDBRANCH  24  26
ENDBRANCH  21  24
ENDBRANCH  16  18
ENDBRANCH  13  16
TORSDOF 4
ENDMDL
MODEL 5
REMARK VINA RESULT:      -7.6     10.335     14.332
REMARK  4 active torsions:
REMARK  status: ('A' for Active; 'I' for Inactive)
REMARK    1  A    between atoms: O_1  and  C_26 
REMARK    2  A    between atoms: C_15  and  C_17 
REMARK    3  A    between atoms: C_17  and  C_19 
REMARK    4  A    between atoms: C_25  and  C_26 
ROOT
HETATM    1  C   UNK N   1      26.222  24.412  -6.302  0.00  0.00    -0.020 C 
HETATM    2  C   UNK N   1      27.562  27.067  -6.830  0.00  0.00    -0.020 C 
HETATM    3  C   UNK N   1      25.907  25.294  -7.506  0.00  0.00     0.015 C 
HETATM    4  C   UNK N   1      26.101  26.757  -7.167  0.00  0.00     0.015 C 
HETATM    5  C   UNK N   1      27.519  24.816  -5.623  0.00  0.00    -0.042 A 
HETATM    6  C   UNK N   1      28.177  26.032  -5.900  0.00  0.00    -0.043 A 
HETATM    7  C   UNK N   1      25.082  24.454  -5.295  0.00  0.00     0.020 C 
HETATM    8  C   UNK N   1      26.328  22.991  -6.838  0.00  0.00     0.020 C 
HETATM    9  C   UNK N   1      27.550  28.431  -6.162  0.00  0.00     0.020 C 
HETATM   10  C   UNK N   1      28.383  27.159  -8.105  0.00  0.00     0.020 C 
HETATM   11  C   UNK N   1      28.089  23.937  -4.715  0.00  0.00     0.021 A 
HETATM   12  C   UNK N   1      29.414  26.290  -5.278  0.00  0.00     0.016 A 
HETATM   13  C   UNK N   1      29.309  24.162  -4.075  0.00  0.00    -0.019 A 
HETATM   14  C   UNK N   1      29.986  25.379  -4.375  0.00  0.00    -0.050 A 
HETATM   15  C   UNK N   1      31.299  25.748  -3.772  0.00  0.00     0.049 C 
ENDROOT
BRANCH  13  16
HETATM   16  C   UNK N   1      29.799  23.100  -3.104  0.00  0.00    -0.025 C 
HETATM   17  C   UNK N   1      29.261  23.003  -1.883  0.00  0.00     0.025 C 
BRANCH  16  18
HETATM   18  C   UNK N   1      30.835  22.075  -3.509  0.00  0.00    -0.026 A 
HETATM   19  C   UNK N   1      30.581  21.168  -4.550  0.00  0.00     0.013 A 
HETATM   20  C   UNK N   1      31.490  20.180  -4.899  0.00  0.00     0.019 A 
HETATM   21  C   UNK N   1      32.698  20.068  -4.212  0.00  0.00     0.037 A 
HETATM   22  C   UNK N   1      32.995  20.982  -3.190  0.00  0.00     0.019 A 
HETATM   23  C   UNK N   1      32.074  21.984  -2.845  0.00  0.00     0.013 A 
BRANCH  21  24
HETATM   24  C   UNK N   1      33.626  18.975  -4.558  0.00  0.00     0.176 C 
HETATM   25  O   UNK N   1      34.148  18.935  -5.660  0.00  0.00    -0.646 OA
BRANCH  24  26
HETATM   26  O   UNK N   1      33.883  17.998  -3.665  0.00  0.00    -0.773 OA
HETATM   27  H   UNK N   1      33.335  17.244  -3.565  0.00  0.00     0.167 HD
ENDBRANCH  24  26
ENDBRANCH  21  24
ENDBRANCH  16  18
ENDBRANCH  13  16
TORSDOF 4
ENDMDL
MODEL 6
REMARK VINA RESULT:      -7.5     12.980     16.423
REMARK  4 active torsions:
REMARK  status: ('A' for Active; 'I' for Inactive)
REMARK    1  A    between atoms: O_1  and  C_26 
REMARK    2  A    between atoms: C_15  and  C_17 
REMARK    3  A    between atoms: C_17  and  C_19 
REMARK    4  A    between atoms: C_25  and  C_26 
ROOT
HETATM    1  C   UNK N   1      31.812   7.655  20.643  0.00  0.00    -0.020 C 
HETATM    2  C   UNK N   1      33.013   5.138  19.485  0.00  0.00    -0.020 C 
HETATM    3  C   UNK N   1      31.585   6.264  21.225  0.00  0.00     0.015 C 
HETATM    4  C   UNK N   1      31.631   5.211  20.138  0.00  0.00     0.015 C 
HETATM    5  C   UNK N   1      32.984   7.685  19.677  0.00  0.00    -0.042 A 
HETATM    6  C   UNK N   1      33.582   6.513  19.170  0.00  0.00    -0.043 A 
HETATM    7  C   UNK N   1      30.557   8.153  19.940  0.00  0.00     0.020 C 
HETATM    8  C   UNK N   1      32.084   8.569  21.830  0.00  0.00     0.020 C 
HETATM    9  C   UNK N   1      32.822   4.344  18.205  0.00  0.00     0.020 C 
HETATM   10  C   UNK N   1      33.976   4.381  20.385  0.00  0.00     0.020 C 
HETATM   11  C   UNK N   1      33.500   8.916  19.304  0.00  0.00     0.021 A 
HETATM   12  C   UNK N   1      34.712   6.636  18.338  0.00  0.00     0.016 A 
HETATM   13  C   UNK N   1      34.612   9.076  18.478  0.00  0.00    -0.019 A 
HETATM   14  C   UNK N   1      35.233   7.891  17.986  0.00  0.00    -0.050 A 
HETATM   15  C   UNK N   1      36.432   7.909  17.100  0.00  0.00     0.049 C 
ENDROOT
BRANCH  13  16
HETATM   16  C   UNK N   1      35.055  10.495  18.160  0.00  0.00    -0.025 C 
HETATM   17  C   UNK N   1      35.621  11.253  19.107  0.00  0.00     0.025 C 
BRANCH  16  18
HETATM   18  C   UNK N   1      34.952  11.062  16.762  0.00  0.00    -0.026 A 
HETATM   19  C   UNK N   1      34.207  10.403  15.771  0.00  0.00     0.013 A 
HETATM   20  C   UNK N   1      34.147  10.871  14.467  0.00  0.00     0.019 A 
HETATM   21  C   UNK N   1      34.837  12.027  14.107  0.00  0.00     0.037 A 
HETATM   22  C   UNK N   1      35.562  12.727  15.083  0.00  0.00     0.019 A 
HETATM   23  C   UNK N   1      35.614  12.253  16.404  0.00  0.00     0.013 A 
BRANCH  21  24
HETATM   24  C   UNK N   1      34.810  12.476  12.702  0.00  0.00     0.176 C 
HETATM   25  O   UNK N   1      35.138  11.716  11.806  0.00  0.00    -0.646 OA
BRANCH  24  26
HETATM   26  O   UNK N   1      34.447  13.739  12.402  0.00  0.00    -0.773 OA
HETATM   27  H   UNK N   1      33.725  13.940  11.839  0.00  0.00     0.167 HD
ENDBRANCH  24  26
ENDBRANCH  21  24
ENDBRANCH  16  18
ENDBRANCH  13  16
TORSDOF 4
ENDMDL
MODEL 7
REMARK VINA RESULT:      -7.2      4.674      7.355
REMARK  4 active torsions:
REMARK  status: ('A' for Active; 'I' for Inactive)
REMARK    1  A    between atoms: O_1  and  C_26 
REMARK    2  A    between atoms: C_15  and  C_17 
REMARK    3  A    between atoms: C_17  and  C_19 
REMARK    4  A    between atoms: C_25  and  C_26 
ROOT
HETATM    1  C   UNK N   1      27.234  17.119   5.191  0.00  0.00    -0.020 C 
HETATM    2  C   UNK N   1      26.646  19.978   4.418  0.00  0.00    -0.020 C 
HETATM    3  C   UNK N   1      28.163  18.288   5.503  0.00  0.00     0.015 C 
HETATM    4  C   UNK N   1      28.049  19.364   4.444  0.00  0.00     0.015 C 
HETATM    5  C   UNK N   1      25.842  17.585   4.803  0.00  0.00    -0.042 A 
HETATM    6  C   UNK N   1      25.549  18.928   4.487  0.00  0.00    -0.043 A 
HETATM    7  C   UNK N   1      27.813  16.256   4.079  0.00  0.00     0.020 C 
HETATM    8  C   UNK N   1      27.175  16.279   6.459  0.00  0.00     0.020 C 
HETATM    9  C   UNK N   1      26.557  20.743   3.108  0.00  0.00     0.020 C 
HETATM   10  C   UNK N   1      26.487  20.962   5.565  0.00  0.00     0.020 C 
HETATM   11  C   UNK N   1      24.815  16.653   4.787  0.00  0.00     0.021 A 
HETATM   12  C   UNK N   1      24.214  19.283   4.212  0.00  0.00     0.016 A 
HETATM   13  C   UNK N   1      23.484  16.967   4.512  0.00  0.00    -0.019 A 
HETATM   14  C   UNK N   1      23.184  18.329   4.219  0.00  0.00    -0.050 A 
HETATM   15  C   UNK N   1      21.805  18.809   3.914  0.00  0.00     0.049 C 
ENDROOT
BRANCH  13  16
HETATM   16  C   UNK N   1      22.475  15.830   4.532  0.00  0.00    -0.025 C 
HETATM   17  C   UNK N   1      22.147  15.200   3.398  0.00  0.00     0.025 C 
BRANCH  16  18
HETATM   18  C   UNK N   1      21.882  15.320   5.827  0.00  0.00    -0.026 A 
HETATM   19  C   UNK N   1      21.568  16.205   6.871  0.00  0.00     0.013 A 
HETATM   20  C   UNK N   1      21.080  15.757   8.089  0.00  0.00     0.019 A 
HETATM   21  C   UNK N   1      20.885  14.393   8.304  0.00  0.00     0.037 A 
HETATM   22  C   UNK N   1      21.157  13.488   7.268  0.00  0.00     0.019 A 
HETATM   23  C   UNK N   1      21.644  13.948   6.033  0.00  0.00     0.013 A 
BRANCH  21  24
HETATM   24  C   UNK N   1      20.422  13.930   9.626  0.00  0.00     0.176 C 
HETATM   25  O   UNK N   1      19.265  14.108   9.971  0.00  0.00    -0.646 OA
BRANCH  24  26
HETATM   26  O   UNK N   1      21.282  13.329  10.472  0.00  0.00    -0.773 OA
HETATM   27  H   UNK N   1      21.014  12.680  11.093  0.00  0.00     0.167 HD
ENDBRANCH  24  26
ENDBRANCH  21  24
ENDBRANCH  16  18
ENDBRANCH  13  16
TORSDOF 4
ENDMDL
MODEL 8
REMARK VINA RESULT:      -7.1      9.773     13.476
REMARK  4 active torsions:
REMARK  status: ('A' for Active; 'I' for Inactive)
REMARK    1  A    between atoms: O_1  and  C_26 
REMARK    2  A    between atoms: C_15  and  C_17 
REMARK    3  A    between atoms: C_17  and  C_19 
REMARK    4  A    between atoms: C_25  and  C_26 
ROOT
HETATM    1  C   UNK N   1      36.368   8.884  15.976  0.00  0.00    -0.020 C 
HETATM    2  C   UNK N   1      35.281   9.211  18.774  0.00  0.00    -0.020 C 
HETATM    3  C   UNK N   1      35.710   7.756  16.765  0.00  0.00     0.015 C 
HETATM    4  C   UNK N   1      35.942   7.933  18.251  0.00  0.00     0.015 C 
HETATM    5  C   UNK N   1      36.080  10.247  16.580  0.00  0.00    -0.042 A 
HETATM    6  C   UNK N   1      35.528  10.407  17.868  0.00  0.00    -0.043 A 
HETATM    7  C   UNK N   1      37.873   8.669  15.889  0.00  0.00     0.020 C 
HETATM    8  C   UNK N   1      35.796   8.800  14.567  0.00  0.00     0.020 C 
HETATM    9  C   UNK N   1      35.890   9.457  20.144  0.00  0.00     0.020 C 
HETATM   10  C   UNK N   1      33.787   8.995  18.940  0.00  0.00     0.020 C 
HETATM   11  C   UNK N   1      36.349  11.375  15.821  0.00  0.00     0.021 A 
HETATM   12  C   UNK N   1      35.225  11.707  18.317  0.00  0.00     0.016 A 
HETATM   13  C   UNK N   1      36.069  12.677  16.235  0.00  0.00    -0.019 A 
HETATM   14  C   UNK N   1      35.486  12.837  17.526  0.00  0.00    -0.050 A 
HETATM   15  C   UNK N   1      35.128  14.168  18.096  0.00  0.00     0.049 C 
ENDROOT
BRANCH  13  16
HETATM   16  C   UNK N   1      36.424  13.809  15.286  0.00  0.00    -0.025 C 
HETATM   17  C   UNK N   1      37.255  14.782  15.677  0.00  0.00     0.025 C 
BRANCH  16  18
HETATM   18  C   UNK N   1      35.929  13.829  13.856  0.00  0.00    -0.026 A 
HETATM   19  C   UNK N   1      36.121  14.958  13.044  0.00  0.00     0.013 A 
HETATM   20  C   UNK N   1      35.623  15.024  11.751  0.00  0.00     0.019 A 
HETATM   21  C   UNK N   1      34.911  13.949  11.222  0.00  0.00     0.037 A 
HETATM   22  C   UNK N   1      34.733  12.794  11.997  0.00  0.00     0.019 A 
HETATM   23  C   UNK N   1      35.245  12.730  13.303  0.00  0.00     0.013 A 
BRANCH  21  24
HETATM   24  C   UNK N   1      34.338  14.060   9.867  0.00  0.00     0.176 C 
HETATM   25  O   UNK N   1      34.880  13.513   8.921  0.00  0.00    -0.646 OA
BRANCH  24  26
HETATM   26  O   UNK N   1      33.224  14.791   9.662  0.00  0.00    -0.773 OA
HETATM   27  H   UNK N   1      32.407  14.600  10.080  0.00  0.00     0.167 HD
ENDBRANCH  24  26
ENDBRANCH  21  24
ENDBRANCH  16  18
ENDBRANCH  13  16
TORSDOF 4
ENDMDL
MODEL 9
REMARK VINA RESULT:      -7.0     11.159     14.763
REMARK  4 active torsions:
REMARK  status: ('A' for Active; 'I' for Inactive)
REMARK    1  A    between atoms: O_1  and  C_26 
REMARK    2  A    between atoms: C_15  and  C_17 
REMARK    3  A    between atoms: C_17  and  C_19 
REMARK    4  A    between atoms: C_25  and  C_26 
ROOT
HETATM    1  C   UNK N   1      26.425  27.119  -4.423  0.00  0.00    -0.020 C 
HETATM    2  C   UNK N   1      28.502  29.111  -5.337  0.00  0.00    -0.020 C 
HETATM    3  C   UNK N   1      26.091  28.413  -5.157  0.00  0.00     0.015 C 
HETATM    4  C   UNK N   1      27.106  29.491  -4.839  0.00  0.00     0.015 C 
HETATM    5  C   UNK N   1      27.897  26.762  -4.540  0.00  0.00    -0.042 A 
HETATM    6  C   UNK N   1      28.866  27.671  -5.011  0.00  0.00    -0.043 A 
HETATM    7  C   UNK N   1      26.037  27.220  -2.955  0.00  0.00     0.020 C 
HETATM    8  C   UNK N   1      25.568  26.037  -5.067  0.00  0.00     0.020 C 
HETATM    9  C   UNK N   1      29.460  30.063  -4.642  0.00  0.00     0.020 C 
HETATM   10  C   UNK N   1      28.599  29.336  -6.837  0.00  0.00     0.020 C 
HETATM   11  C   UNK N   1      28.293  25.480  -4.191  0.00  0.00     0.021 A 
HETATM   12  C   UNK N   1      30.195  27.228  -5.156  0.00  0.00     0.016 A 
HETATM   13  C   UNK N   1      29.601  25.009  -4.314  0.00  0.00    -0.019 A 
HETATM   14  C   UNK N   1      30.575  25.920  -4.816  0.00  0.00    -0.050 A 
HETATM   15  C   UNK N   1      32.008  25.553  -5.007  0.00  0.00     0.049 C 
ENDROOT
BRANCH  13  16
HETATM   16  C   UNK N   1      29.875  23.576  -3.888  0.00  0.00    -0.025 C 
HETATM   17  C   UNK N   1      30.070  23.282  -2.598  0.00  0.00     0.025 C 
BRANCH  16  18
HETATM   18  C   UNK N   1      29.853  22.436  -4.883  0.00  0.00    -0.026 A 
HETATM   19  C   UNK N   1      30.702  21.329  -4.727  0.00  0.00     0.013 A 
HETATM   20  C   UNK N   1      30.743  20.300  -5.657  0.00  0.00     0.019 A 
HETATM   21  C   UNK N   1      29.924  20.345  -6.784  0.00  0.00     0.037 A 
HETATM   22  C   UNK N   1      29.040  21.422  -6.949  0.00  0.00     0.019 A 
HETATM   23  C   UNK N   1      28.998  22.457  -6.001  0.00  0.00     0.013 A 
BRANCH  21  24
HETATM   24  C   UNK N   1      30.024  19.273  -7.791  0.00  0.00     0.176 C 
HETATM   25  O   UNK N   1      29.304  18.290  -7.720  0.00  0.00    -0.646 OA
BRANCH  24  26
HETATM   26  O   UNK N   1      30.932  19.360  -8.784  0.00  0.00    -0.773 OA
HETATM   27  H   UNK N   1      30.733  19.144  -9.675  0.00  0.00     0.167 HD
ENDBRANCH  24  26
ENDBRANCH  21  24
ENDBRANCH  16  18
ENDBRANCH  13  16
TORSDOF 4
ENDMDL
