REMARK  4 active torsions:
REMARK  status: ('A' for Active; 'I' for Inactive)
REMARK    1  A    between atoms: O_1  and  C_26 
REMARK    2  A    between atoms: C_15  and  C_17 
REMARK    3  A    between atoms: C_17  and  C_19 
REMARK    4  A    between atoms: C_25  and  C_26 
ROOT
HETATM    1  C   UNK N   1       1.269   1.023  -0.057  0.00  0.00    -0.020 C 
HETATM    2  C   UNK N   1       1.133   4.038   0.046  0.00  0.00    -0.020 C 
HETATM    3  C   UNK N   1       0.032   1.828  -0.443  0.00  0.00     0.015 C 
HETATM    4  C   UNK N   1      -0.046   3.112   0.356  0.00  0.00     0.015 C 
HETATM    5  C   UNK N   1       2.514   1.890   0.013  0.00  0.00    -0.042 A 
HETATM    6  C   UNK N   1       2.462   3.299   0.013  0.00  0.00    -0.043 A 
HETATM    7  C   UNK N   1       1.057   0.322   1.277  0.00  0.00     0.020 C 
HETATM    8  C   UNK N   1       1.429  -0.043  -1.132  0.00  0.00     0.020 C 
HETATM    9  C   UNK N   1       1.140   5.079   1.152  0.00  0.00     0.020 C 
HETATM   10  C   UNK N   1       0.907   4.743  -1.281  0.00  0.00     0.020 C 
HETATM   11  C   UNK N   1       3.751   1.265   0.052  0.00  0.00     0.021 A 
HETATM   12  C   UNK N   1       3.671   4.021   0.005  0.00  0.00     0.016 A 
HETATM   13  C   UNK N   1       4.968   1.947   0.052  0.00  0.00    -0.019 A 
HETATM   14  C   UNK N   1       4.915   3.371   0.025  0.00  0.00    -0.050 A 
HETATM   15  C   UNK N   1       6.135   4.229   0.015  0.00  0.00     0.049 C 
ENDROOT
BRANCH  13  16
HETATM   16  C   UNK N   1       6.240   1.116   0.098  0.00  0.00    -0.025 C 
HETATM   17  C   UNK N   1       7.423   1.705   0.307  0.00  0.00     0.025 C 
BRANCH  16  18
HETATM   18  C   UNK N   1       6.204  -0.393  -0.002  0.00  0.00    -0.026 A 
HETATM   19  C   UNK N   1       5.039  -1.059  -0.416  0.00  0.00     0.013 A 
HETATM   20  C   UNK N   1       4.962  -2.443  -0.458  0.00  0.00     0.019 A 
HETATM   21  C   UNK N   1       6.061  -3.215  -0.085  0.00  0.00     0.037 A 
HETATM   22  C   UNK N   1       7.250  -2.578   0.300  0.00  0.00     0.019 A 
HETATM   23  C   UNK N   1       7.325  -1.176   0.334  0.00  0.00     0.013 A 
BRANCH  21  24
HETATM   24  C   UNK N   1       5.941  -4.685  -0.079  0.00  0.00     0.176 C 
HETATM   25  O   UNK N   1       4.895  -5.220  -0.408  0.00  0.00    -0.646 OA
BRANCH  24  26
HETATM   26  O   UNK N   1       6.981  -5.447   0.315  0.00  0.00    -0.773 OA
HETATM   27  H   UNK N   1       6.883  -6.338   0.589  0.00  0.00     0.167 HD
ENDBRANCH  24  26
ENDBRANCH  21  24
ENDBRANCH  16  18
ENDBRANCH  13  16
TORSDOF 4
