MODEL 1
REMARK VINA RESULT:      -7.0      0.000      0.000
REMARK  8 active torsions:
REMARK  status: ('A' for Active; 'I' for Inactive)
REMARK    1  A    between atoms: O_4  and  C_18 
REMARK    2  A    between atoms: O_4  and  C_19 
REMARK    3  A    between atoms: O_5  and  C_22 
REMARK    4  A    between atoms: N_6  and  C_12 
REMARK    5  A    between atoms: N_7  and  C_25 
REMARK    6  A    between atoms: N_7  and  C_26 
REMARK    7  A    between atoms: C_12  and  C_15 
REMARK    8  A    between atoms: C_15  and  C_18 
ROOT
HETATM    1  N   UNK N   1      29.540  18.002   9.580  0.00  0.00    -0.351 N 
ATOM      2  HN  UNK N   1      29.962  18.149  10.496  1.00  0.00     0.166 HD
HETATM    3  N   UNK N   1      27.602  17.887   8.216  0.00  0.00    -0.338 N 
ATOM      4  HN  UNK N   1      26.588  17.949   8.122  1.00  0.00     0.168 HD
HETATM    5  C   UNK N   1      31.911  17.147   6.251  0.00  0.00     0.103 A 
HETATM    6  C   UNK N   1      29.747  17.525   7.258  0.00  0.00     0.038 A 
HETATM    7  C   UNK N   1      30.535  17.243   6.152  0.00  0.00     0.057 A 
HETATM    8  C   UNK N   1      32.534  17.340   7.514  0.00  0.00     0.103 A 
HETATM    9  C   UNK N   1      30.332  17.724   8.512  0.00  0.00     0.050 A 
HETATM   10  C   UNK N   1      31.726  17.631   8.641  0.00  0.00     0.070 A 
HETATM   11  C   UNK N   1      28.366  17.608   7.127  0.00  0.00     0.119 A 
HETATM   12  C   UNK N   1      28.184  18.085   9.436  0.00  0.00     0.182 A 
ENDROOT
BRANCH   5  13
HETATM   13  O   UNK N   1      32.575  16.874   5.105  0.00  0.00    -0.348 OA
BRANCH  13  14
HETATM   14  C   UNK N   1      32.660  17.672   3.998  0.00  0.00     0.177 C 
BRANCH  14  15
HETATM   15  C   UNK N   1      31.994  16.942   2.856  0.00  0.00     0.057 C 
BRANCH  15  16
HETATM   16  C   UNK N   1      31.984  15.461   3.150  0.00  0.00     0.274 C 
BRANCH  16  17
HETATM   17  N   UNK N   1      30.647  14.928   2.967  0.00  0.00     0.092 N 
HETATM   18  C   UNK N   1      30.296  14.239   4.209  0.00  0.00     0.298 C 
HETATM   19  C   UNK N   1      28.830  13.813   4.151  0.00  0.00     0.198 C 
HETATM   20  O   UNK N   1      28.019  14.956   4.032  0.00  0.00    -0.388 OA
HETATM   21  C   UNK N   1      28.284  15.510   2.766  0.00  0.00     0.198 C 
HETATM   22  C   UNK N   1      29.719  16.042   2.739  0.00  0.00     0.298 C 
ENDBRANCH  16  17
ENDBRANCH  15  16
ENDBRANCH  14  15
ENDBRANCH  13  14
ENDBRANCH   5  13
BRANCH   8  23
HETATM   23  O   UNK N   1      33.882  17.251   7.628  0.00  0.00    -0.353 OA
HETATM   24  C   UNK N   1      34.659  18.216   8.225  0.00  0.00     0.210 C 
ENDBRANCH   8  23
BRANCH  11  25
HETATM   25  N   UNK N   1      27.812  17.386   5.836  0.00  0.00    -0.342 N 
HETATM   26  H   UNK N   1      27.962  16.485   5.471  0.00  0.00     0.167 HD
BRANCH  25  27
HETATM   27  C   UNK N   1      27.081  18.250   4.991  0.00  0.00     0.035 A 
HETATM   28  C   UNK N   1      25.719  17.989   4.836  0.00  0.00     0.056 A 
HETATM   29  C   UNK N   1      24.928  18.790   4.022  0.00  0.00     0.074 A 
HETATM   30 Cl   UNK N   1      23.220  18.422   3.859  0.00  0.00    -0.081 Cl
HETATM   31  C   UNK N   1      25.502  19.871   3.345  0.00  0.00     0.138 A 
HETATM   32  F   UNK N   1      24.740  20.658   2.546  0.00  0.00    -0.204 F 
HETATM   33  C   UNK N   1      26.870  20.142   3.495  0.00  0.00     0.046 A 
HETATM   34  C   UNK N   1      27.664  19.331   4.318  0.00  0.00     0.032 A 
ENDBRANCH  25  27
ENDBRANCH  11  25
TORSDOF 8
ENDMDL
MODEL 2
REMARK VINA RESULT:      -6.5      7.203     10.144
REMARK  8 active torsions:
REMARK  status: ('A' for Active; 'I' for Inactive)
REMARK    1  A    between atoms: O_4  and  C_18 
REMARK    2  A    between atoms: O_4  and  C_19 
REMARK    3  A    between atoms: O_5  and  C_22 
REMARK    4  A    between atoms: N_6  and  C_12 
REMARK    5  A    between atoms: N_7  and  C_25 
REMARK    6  A    between atoms: N_7  and  C_26 
REMARK    7  A    between atoms: C_12  and  C_15 
REMARK    8  A    between atoms: C_15  and  C_18 
ROOT
HETATM    1  N   UNK N   1      38.081  12.831   8.967  0.00  0.00    -0.351 N 
ATOM      2  HN  UNK N   1      38.453  12.437   8.104  1.00  0.00     0.166 HD
HETATM    3  N   UNK N   1      38.182  13.043  11.328  0.00  0.00    -0.338 N 
ATOM      4  HN  UNK N   1      38.629  12.806  12.214  1.00  0.00     0.168 HD
HETATM    5  C   UNK N   1      34.769  15.373   8.899  0.00  0.00     0.103 A 
HETATM    6  C   UNK N   1      36.497  14.193  10.107  0.00  0.00     0.038 A 
HETATM    7  C   UNK N   1      35.399  15.039  10.084  0.00  0.00     0.057 A 
HETATM    8  C   UNK N   1      35.257  14.837   7.676  0.00  0.00     0.103 A 
HETATM    9  C   UNK N   1      37.002  13.655   8.920  0.00  0.00     0.050 A 
HETATM   10  C   UNK N   1      36.382  13.976   7.703  0.00  0.00     0.070 A 
HETATM   11  C   UNK N   1      37.104  13.872  11.316  0.00  0.00     0.119 A 
HETATM   12  C   UNK N   1      38.670  12.527  10.161  0.00  0.00     0.182 A 
ENDROOT
BRANCH   5  13
HETATM   13  O   UNK N   1      33.712  16.211   8.999  0.00  0.00    -0.348 OA
BRANCH  13  14
HETATM   14  C   UNK N   1      33.722  17.567   8.823  0.00  0.00     0.177 C 
BRANCH  14  15
HETATM   15  C   UNK N   1      32.520  17.926   7.983  0.00  0.00     0.057 C 
BRANCH  15  16
HETATM   16  C   UNK N   1      31.406  16.945   8.260  0.00  0.00     0.274 C 
BRANCH  16  17
HETATM   17  N   UNK N   1      30.624  16.728   7.056  0.00  0.00     0.092 N 
HETATM   18  C   UNK N   1      29.461  17.611   7.148  0.00  0.00     0.298 C 
HETATM   19  C   UNK N   1      28.692  17.568   5.827  0.00  0.00     0.198 C 
HETATM   20  O   UNK N   1      29.524  18.032   4.792  0.00  0.00    -0.388 OA
HETATM   21  C   UNK N   1      30.551  17.083   4.642  0.00  0.00     0.198 C 
HETATM   22  C   UNK N   1      31.436  17.097   5.891  0.00  0.00     0.298 C 
ENDBRANCH  16  17
ENDBRANCH  15  16
ENDBRANCH  14  15
ENDBRANCH  13  14
ENDBRANCH   5  13
BRANCH   8  23
HETATM   23  O   UNK N   1      34.652  15.156   6.505  0.00  0.00    -0.353 OA
HETATM   24  C   UNK N   1      35.062  14.676   5.283  0.00  0.00     0.210 C 
ENDBRANCH   8  23
BRANCH  11  25
HETATM   25  N   UNK N   1      36.551  14.431  12.500  0.00  0.00    -0.342 N 
HETATM   26  H   UNK N   1      36.443  15.409  12.484  0.00  0.00     0.167 HD
BRANCH  25  27
HETATM   27  C   UNK N   1      36.132  13.812  13.697  0.00  0.00     0.035 A 
HETATM   28  C   UNK N   1      35.178  12.798  13.591  0.00  0.00     0.056 A 
HETATM   29  C   UNK N   1      34.711  12.138  14.721  0.00  0.00     0.074 A 
HETATM   30 Cl   UNK N   1      33.512  10.870  14.536  0.00  0.00    -0.081 Cl
HETATM   31  C   UNK N   1      35.198  12.493  15.983  0.00  0.00     0.138 A 
HETATM   32  F   UNK N   1      34.747  11.858  17.092  0.00  0.00    -0.204 F 
HETATM   33  C   UNK N   1      36.156  13.511  16.100  0.00  0.00     0.046 A 
HETATM   34  C   UNK N   1      36.625  14.173  14.957  0.00  0.00     0.032 A 
ENDBRANCH  25  27
ENDBRANCH  11  25
TORSDOF 8
ENDMDL
MODEL 3
REMARK VINA RESULT:      -6.4      5.185      9.001
REMARK  8 active torsions:
REMARK  status: ('A' for Active; 'I' for Inactive)
REMARK    1  A    between atoms: O_4  and  C_18 
REMARK    2  A    between atoms: O_4  and  C_19 
REMARK    3  A    between atoms: O_5  and  C_22 
REMARK    4  A    between atoms: N_6  and  C_12 
REMARK    5  A    between atoms: N_7  and  C_25 
REMARK    6  A    between atoms: N_7  and  C_26 
REMARK    7  A    between atoms: C_12  and  C_15 
REMARK    8  A    between atoms: C_15  and  C_18 
ROOT
HETATM    1  N   UNK N   1      25.055  20.570   2.785  0.00  0.00    -0.351 N 
ATOM      2  HN  UNK N   1      24.719  21.154   2.020  1.00  0.00     0.166 HD
HETATM    3  N   UNK N   1      26.850  19.791   4.127  0.00  0.00    -0.338 N 
ATOM      4  HN  UNK N   1      27.844  19.798   4.357  1.00  0.00     0.168 HD
HETATM    5  C   UNK N   1      22.416  18.169   4.954  0.00  0.00     0.103 A 
HETATM    6  C   UNK N   1      24.644  18.999   4.525  0.00  0.00     0.038 A 
HETATM    7  C   UNK N   1      23.767  18.204   5.246  0.00  0.00     0.057 A 
HETATM    8  C   UNK N   1      21.913  18.965   3.889  0.00  0.00     0.103 A 
HETATM    9  C   UNK N   1      24.177  19.796   3.476  0.00  0.00     0.050 A 
HETATM   10  C   UNK N   1      22.812  19.780   3.157  0.00  0.00     0.070 A 
HETATM   11  C   UNK N   1      25.998  19.006   4.839  0.00  0.00     0.119 A 
HETATM   12  C   UNK N   1      26.382  20.571   3.107  0.00  0.00     0.182 A 
ENDROOT
BRANCH   5  13
HETATM   13  O   UNK N   1      21.658  17.361   5.729  0.00  0.00    -0.348 OA
BRANCH  13  14
HETATM   14  C   UNK N   1      20.909  17.731   6.812  0.00  0.00     0.177 C 
BRANCH  14  15
HETATM   15  C   UNK N   1      20.890  16.567   7.773  0.00  0.00     0.057 C 
BRANCH  15  16
HETATM   16  C   UNK N   1      20.703  15.284   7.000  0.00  0.00     0.274 C 
BRANCH  16  17
HETATM   17  N   UNK N   1      20.995  14.144   7.850  0.00  0.00     0.092 N 
HETATM   18  C   UNK N   1      22.452  14.038   7.922  0.00  0.00     0.298 C 
HETATM   19  C   UNK N   1      22.828  12.971   8.950  0.00  0.00     0.198 C 
HETATM   20  O   UNK N   1      22.347  13.356  10.214  0.00  0.00    -0.388 OA
HETATM   21  C   UNK N   1      20.943  13.309  10.143  0.00  0.00     0.198 C 
HETATM   22  C   UNK N   1      20.450  14.400   9.188  0.00  0.00     0.298 C 
ENDBRANCH  16  17
ENDBRANCH  15  16
ENDBRANCH  14  15
ENDBRANCH  13  14
ENDBRANCH   5  13
BRANCH   8  23
HETATM   23  O   UNK N   1      20.590  18.944   3.591  0.00  0.00    -0.353 OA
HETATM   24  C   UNK N   1      20.017  19.736   2.624  0.00  0.00     0.210 C 
ENDBRANCH   8  23
BRANCH  11  25
HETATM   25  N   UNK N   1      26.432  18.171   5.905  0.00  0.00    -0.342 N 
HETATM   26  H   UNK N   1      25.708  17.742   6.414  0.00  0.00     0.167 HD
BRANCH  25  27
HETATM   27  C   UNK N   1      27.734  17.858   6.353  0.00  0.00     0.035 A 
HETATM   28  C   UNK N   1      28.133  18.392   7.579  0.00  0.00     0.056 A 
HETATM   29  C   UNK N   1      29.399  18.134   8.091  0.00  0.00     0.074 A 
HETATM   30 Cl   UNK N   1      29.854  18.829   9.636  0.00  0.00    -0.081 Cl
HETATM   31  C   UNK N   1      30.288  17.331   7.369  0.00  0.00     0.138 A 
HETATM   32  F   UNK N   1      31.526  17.075   7.857  0.00  0.00    -0.204 F 
HETATM   33  C   UNK N   1      29.896  16.790   6.136  0.00  0.00     0.046 A 
HETATM   34  C   UNK N   1      28.617  17.052   5.624  0.00  0.00     0.032 A 
ENDBRANCH  25  27
ENDBRANCH  11  25
TORSDOF 8
ENDMDL
MODEL 4
REMARK VINA RESULT:      -6.2      5.037      8.179
REMARK  8 active torsions:
REMARK  status: ('A' for Active; 'I' for Inactive)
REMARK    1  A    between atoms: O_4  and  C_18 
REMARK    2  A    between atoms: O_4  and  C_19 
REMARK    3  A    between atoms: O_5  and  C_22 
REMARK    4  A    between atoms: N_6  and  C_12 
REMARK    5  A    between atoms: N_7  and  C_25 
REMARK    6  A    between atoms: N_7  and  C_26 
REMARK    7  A    between atoms: C_12  and  C_15 
REMARK    8  A    between atoms: C_15  and  C_18 
ROOT
HETATM    1  N   UNK N   1      25.912  19.713   3.794  0.00  0.00    -0.351 N 
ATOM      2  HN  UNK N   1      25.233  20.363   3.399  1.00  0.00     0.166 HD
HETATM    3  N   UNK N   1      28.171  19.112   4.200  0.00  0.00    -0.338 N 
ATOM      4  HN  UNK N   1      29.166  19.317   4.107  1.00  0.00     0.168 HD
HETATM    5  C   UNK N   1      24.657  16.249   5.759  0.00  0.00     0.103 A 
HETATM    6  C   UNK N   1      26.416  17.705   4.968  0.00  0.00     0.038 A 
HETATM    7  C   UNK N   1      25.999  16.556   5.623  0.00  0.00     0.057 A 
HETATM    8  C   UNK N   1      23.682  17.130   5.216  0.00  0.00     0.103 A 
HETATM    9  C   UNK N   1      25.480  18.592   4.428  0.00  0.00     0.050 A 
HETATM   10  C   UNK N   1      24.113  18.304   4.551  0.00  0.00     0.070 A 
HETATM   11  C   UNK N   1      27.772  17.982   4.841  0.00  0.00     0.119 A 
HETATM   12  C   UNK N   1      27.248  19.975   3.681  0.00  0.00     0.182 A 
ENDROOT
BRANCH   5  13
HETATM   13  O   UNK N   1      24.371  15.105   6.421  0.00  0.00    -0.348 OA
BRANCH  13  14
HETATM   14  C   UNK N   1      24.829  13.851   6.126  0.00  0.00     0.177 C 
BRANCH  14  15
HETATM   15  C   UNK N   1      24.423  12.938   7.258  0.00  0.00     0.057 C 
BRANCH  15  16
HETATM   16  C   UNK N   1      25.070  13.413   8.538  0.00  0.00     0.274 C 
BRANCH  16  17
HETATM   17  N   UNK N   1      24.126  13.316   9.637  0.00  0.00     0.092 N 
HETATM   18  C   UNK N   1      22.824  13.013   9.044  0.00  0.00     0.298 C 
HETATM   19  C   UNK N   1      21.821  12.716  10.160  0.00  0.00     0.198 C 
HETATM   20  O   UNK N   1      22.254  11.592  10.885  0.00  0.00    -0.388 OA
HETATM   21  C   UNK N   1      23.434  11.970  11.551  0.00  0.00     0.198 C 
HETATM   22  C   UNK N   1      24.537  12.220  10.520  0.00  0.00     0.298 C 
ENDBRANCH  16  17
ENDBRANCH  15  16
ENDBRANCH  14  15
ENDBRANCH  13  14
ENDBRANCH   5  13
BRANCH   8  23
HETATM   23  O   UNK N   1      22.363  16.843   5.343  0.00  0.00    -0.353 OA
HETATM   24  C   UNK N   1      21.562  17.377   6.325  0.00  0.00     0.210 C 
ENDBRANCH   8  23
BRANCH  11  25
HETATM   25  N   UNK N   1      28.690  17.047   5.395  0.00  0.00    -0.342 N 
HETATM   26  H   UNK N   1      28.569  16.120   5.089  0.00  0.00     0.167 HD
BRANCH  25  27
HETATM   27  C   UNK N   1      29.747  17.234   6.312  0.00  0.00     0.035 A 
HETATM   28  C   UNK N   1      31.047  17.175   5.808  0.00  0.00     0.056 A 
HETATM   29  C   UNK N   1      32.144  17.347   6.644  0.00  0.00     0.074 A 
HETATM   30 Cl   UNK N   1      33.759  17.265   5.962  0.00  0.00    -0.081 Cl
HETATM   31  C   UNK N   1      31.946  17.578   8.008  0.00  0.00     0.138 A 
HETATM   32  F   UNK N   1      33.009  17.744   8.833  0.00  0.00    -0.204 F 
HETATM   33  C   UNK N   1      30.643  17.638   8.525  0.00  0.00     0.046 A 
HETATM   34  C   UNK N   1      29.540  17.466   7.677  0.00  0.00     0.032 A 
ENDBRANCH  25  27
ENDBRANCH  11  25
TORSDOF 8
ENDMDL
MODEL 5
REMARK VINA RESULT:      -6.2      2.723      5.514
REMARK  8 active torsions:
REMARK  status: ('A' for Active; 'I' for Inactive)
REMARK    1  A    between atoms: O_4  and  C_18 
REMARK    2  A    between atoms: O_4  and  C_19 
REMARK    3  A    between atoms: O_5  and  C_22 
REMARK    4  A    between atoms: N_6  and  C_12 
REMARK    5  A    between atoms: N_7  and  C_25 
REMARK    6  A    between atoms: N_7  and  C_26 
REMARK    7  A    between atoms: C_12  and  C_15 
REMARK    8  A    between atoms: C_15  and  C_18 
ROOT
HETATM    1  N   UNK N   1      28.440  14.049   2.744  0.00  0.00    -0.351 N 
ATOM      2  HN  UNK N   1      28.347  13.065   2.497  1.00  0.00     0.166 HD
HETATM    3  N   UNK N   1      27.495  16.221   2.884  0.00  0.00    -0.338 N 
ATOM      4  HN  UNK N   1      26.701  16.845   2.740  1.00  0.00     0.168 HD
HETATM    5  C   UNK N   1      32.018  15.525   4.312  0.00  0.00     0.103 A 
HETATM    6  C   UNK N   1      29.736  15.857   3.589  0.00  0.00     0.038 A 
HETATM    7  C   UNK N   1      30.923  16.347   4.112  0.00  0.00     0.057 A 
HETATM    8  C   UNK N   1      31.926  14.148   3.973  0.00  0.00     0.103 A 
HETATM    9  C   UNK N   1      29.615  14.506   3.252  0.00  0.00     0.050 A 
HETATM   10  C   UNK N   1      30.709  13.651   3.442  0.00  0.00     0.070 A 
HETATM   11  C   UNK N   1      28.656  16.710   3.395  0.00  0.00     0.119 A 
HETATM   12  C   UNK N   1      27.385  14.898   2.562  0.00  0.00     0.182 A 
ENDROOT
BRANCH   5  13
HETATM   13  O   UNK N   1      33.119  16.113   4.833  0.00  0.00    -0.348 OA
BRANCH  13  14
HETATM   14  C   UNK N   1      33.283  17.442   5.112  0.00  0.00     0.177 C 
BRANCH  14  15
HETATM   15  C   UNK N   1      33.811  17.550   6.522  0.00  0.00     0.057 C 
BRANCH  15  16
HETATM   16  C   UNK N   1      32.656  17.496   7.493  0.00  0.00     0.274 C 
BRANCH  16  17
HETATM   17  N   UNK N   1      33.113  17.009   8.782  0.00  0.00     0.092 N 
HETATM   18  C   UNK N   1      32.961  15.555   8.758  0.00  0.00     0.298 C 
HETATM   19  C   UNK N   1      33.596  14.962  10.017  0.00  0.00     0.198 C 
HETATM   20  O   UNK N   1      34.969  15.266  10.029  0.00  0.00    -0.388 OA
HETATM   21  C   UNK N   1      35.073  16.659  10.194  0.00  0.00     0.198 C 
HETATM   22  C   UNK N   1      34.529  17.356   8.945  0.00  0.00     0.298 C 
ENDBRANCH  16  17
ENDBRANCH  15  16
ENDBRANCH  14  15
ENDBRANCH  13  14
ENDBRANCH   5  13
BRANCH   8  23
HETATM   23  O   UNK N   1      32.989  13.329   4.164  0.00  0.00    -0.353 OA
HETATM   24  C   UNK N   1      33.950  13.097   3.207  0.00  0.00     0.210 C 
ENDBRANCH   8  23
BRANCH  11  25
HETATM   25  N   UNK N   1      28.827  18.080   3.741  0.00  0.00    -0.342 N 
HETATM   26  H   UNK N   1      29.479  18.567   3.188  0.00  0.00     0.167 HD
BRANCH  25  27
HETATM   27  C   UNK N   1      28.212  18.853   4.749  0.00  0.00     0.035 A 
HETATM   28  C   UNK N   1      28.448  18.479   6.073  0.00  0.00     0.056 A 
HETATM   29  C   UNK N   1      27.879  19.187   7.125  0.00  0.00     0.074 A 
HETATM   30 Cl   UNK N   1      28.206  18.678   8.772  0.00  0.00    -0.081 Cl
HETATM   31  C   UNK N   1      27.058  20.286   6.858  0.00  0.00     0.138 A 
HETATM   32  F   UNK N   1      26.496  20.982   7.876  0.00  0.00    -0.204 F 
HETATM   33  C   UNK N   1      26.815  20.670   5.530  0.00  0.00     0.046 A 
HETATM   34  C   UNK N   1      27.391  19.953   4.472  0.00  0.00     0.032 A 
ENDBRANCH  25  27
ENDBRANCH  11  25
TORSDOF 8
ENDMDL
MODEL 6
REMARK VINA RESULT:      -6.0     11.244     14.015
REMARK  8 active torsions:
REMARK  status: ('A' for Active; 'I' for Inactive)
REMARK    1  A    between atoms: O_4  and  C_18 
REMARK    2  A    between atoms: O_4  and  C_19 
REMARK    3  A    between atoms: O_5  and  C_22 
REMARK    4  A    between atoms: N_6  and  C_12 
REMARK    5  A    between atoms: N_7  and  C_25 
REMARK    6  A    between atoms: N_7  and  C_26 
REMARK    7  A    between atoms: C_12  and  C_15 
REMARK    8  A    between atoms: C_15  and  C_18 
ROOT
HETATM    1  N   UNK N   1      25.207  23.625  -7.707  0.00  0.00    -0.351 N 
ATOM      2  HN  UNK N   1      24.267  24.012  -7.622  1.00  0.00     0.166 HD
HETATM    3  N   UNK N   1      26.824  22.443  -8.977  0.00  0.00    -0.338 N 
ATOM      4  HN  UNK N   1      27.084  21.953  -9.833  1.00  0.00     0.168 HD
HETATM    5  C   UNK N   1      27.965  24.024  -4.598  0.00  0.00     0.103 A 
HETATM    6  C   UNK N   1      27.374  23.236  -6.804  0.00  0.00     0.038 A 
HETATM    7  C   UNK N   1      28.291  23.371  -5.773  0.00  0.00     0.057 A 
HETATM    8  C   UNK N   1      26.662  24.570  -4.442  0.00  0.00     0.103 A 
HETATM    9  C   UNK N   1      26.087  23.767  -6.681  0.00  0.00     0.050 A 
HETATM   10  C   UNK N   1      25.729  24.434  -5.500  0.00  0.00     0.070 A 
HETATM   11  C   UNK N   1      27.729  22.567  -7.970  0.00  0.00     0.119 A 
HETATM   12  C   UNK N   1      25.571  22.970  -8.849  0.00  0.00     0.182 A 
ENDROOT
BRANCH   5  13
HETATM   13  O   UNK N   1      28.942  24.098  -3.666  0.00  0.00    -0.348 OA
BRANCH  13  14
HETATM   14  C   UNK N   1      30.148  24.732  -3.791  0.00  0.00     0.177 C 
BRANCH  14  15
HETATM   15  C   UNK N   1      31.222  23.757  -3.374  0.00  0.00     0.057 C 
BRANCH  15  16
HETATM   16  C   UNK N   1      30.576  22.525  -2.785  0.00  0.00     0.274 C 
BRANCH  16  17
HETATM   17  N   UNK N   1      31.251  21.333  -3.266  0.00  0.00     0.092 N 
HETATM   18  C   UNK N   1      31.010  21.268  -4.707  0.00  0.00     0.298 C 
HETATM   19  C   UNK N   1      31.846  20.137  -5.306  0.00  0.00     0.198 C 
HETATM   20  O   UNK N   1      33.210  20.407  -5.094  0.00  0.00    -0.388 OA
HETATM   21  C   UNK N   1      33.428  20.322  -3.707  0.00  0.00     0.198 C 
HETATM   22  C   UNK N   1      32.689  21.466  -3.009  0.00  0.00     0.298 C 
ENDBRANCH  16  17
ENDBRANCH  15  16
ENDBRANCH  14  15
ENDBRANCH  13  14
ENDBRANCH   5  13
BRANCH   8  23
HETATM   23  O   UNK N   1      26.328  25.215  -3.298  0.00  0.00    -0.353 OA
HETATM   24  C   UNK N   1      26.340  26.584  -3.167  0.00  0.00     0.210 C 
ENDBRANCH   8  23
BRANCH  11  25
HETATM   25  N   UNK N   1      29.045  22.032  -8.048  0.00  0.00    -0.342 N 
HETATM   26  H   UNK N   1      29.765  22.683  -7.886  0.00  0.00     0.167 HD
BRANCH  25  27
HETATM   27  C   UNK N   1      29.485  20.719  -8.320  0.00  0.00     0.035 A 
HETATM   28  C   UNK N   1      30.423  20.560  -9.342  0.00  0.00     0.056 A 
HETATM   29  C   UNK N   1      30.907  19.300  -9.675  0.00  0.00     0.074 A 
HETATM   30 Cl   UNK N   1      32.084  19.151 -10.967  0.00  0.00    -0.081 Cl
HETATM   31  C   UNK N   1      30.449  18.176  -8.981  0.00  0.00     0.138 A 
HETATM   32  F   UNK N   1      30.912  16.943  -9.299  0.00  0.00    -0.204 F 
HETATM   33  C   UNK N   1      29.507  18.326  -7.953  0.00  0.00     0.046 A 
HETATM   34  C   UNK N   1      29.022  19.599  -7.620  0.00  0.00     0.032 A 
ENDBRANCH  25  27
ENDBRANCH  11  25
TORSDOF 8
ENDMDL
MODEL 7
REMARK VINA RESULT:      -6.0      9.389     12.177
REMARK  8 active torsions:
REMARK  status: ('A' for Active; 'I' for Inactive)
REMARK    1  A    between atoms: O_4  and  C_18 
REMARK    2  A    between atoms: O_4  and  C_19 
REMARK    3  A    between atoms: O_5  and  C_22 
REMARK    4  A    between atoms: N_6  and  C_12 
REMARK    5  A    between atoms: N_7  and  C_25 
REMARK    6  A    between atoms: N_7  and  C_26 
REMARK    7  A    between atoms: C_12  and  C_15 
REMARK    8  A    between atoms: C_15  and  C_18 
ROOT
HETATM    1  N   UNK N   1      37.777   9.875  12.004  0.00  0.00    -0.351 N 
ATOM      2  HN  UNK N   1      38.473   9.513  11.353  1.00  0.00     0.166 HD
HETATM    3  N   UNK N   1      36.316   9.522  13.840  0.00  0.00    -0.338 N 
ATOM      4  HN  UNK N   1      35.928   8.899  14.549  1.00  0.00     0.168 HD
HETATM    5  C   UNK N   1      36.509  13.847  11.782  0.00  0.00     0.103 A 
HETATM    6  C   UNK N   1      36.426  11.661  12.809  0.00  0.00     0.038 A 
HETATM    7  C   UNK N   1      36.007  12.981  12.736  0.00  0.00     0.057 A 
HETATM    8  C   UNK N   1      37.477  13.376  10.853  0.00  0.00     0.103 A 
HETATM    9  C   UNK N   1      37.380  11.171  11.912  0.00  0.00     0.050 A 
HETATM   10  C   UNK N   1      37.905  12.027  10.933  0.00  0.00     0.070 A 
HETATM   11  C   UNK N   1      35.897  10.814  13.775  0.00  0.00     0.119 A 
HETATM   12  C   UNK N   1      37.252   9.055  12.962  0.00  0.00     0.182 A 
ENDROOT
BRANCH   5  13
HETATM   13  O   UNK N   1      36.031  15.112  11.812  0.00  0.00    -0.348 OA
BRANCH  13  14
HETATM   14  C   UNK N   1      34.907  15.577  11.186  0.00  0.00     0.177 C 
BRANCH  14  15
HETATM   15  C   UNK N   1      35.353  16.486  10.065  0.00  0.00     0.057 C 
BRANCH  15  16
HETATM   16  C   UNK N   1      34.144  16.940   9.281  0.00  0.00     0.274 C 
BRANCH  16  17
HETATM   17  N   UNK N   1      34.463  16.996   7.866  0.00  0.00     0.092 N 
HETATM   18  C   UNK N   1      34.688  15.617   7.433  0.00  0.00     0.298 C 
HETATM   19  C   UNK N   1      34.847  15.587   5.912  0.00  0.00     0.198 C 
HETATM   20  O   UNK N   1      33.664  16.055   5.314  0.00  0.00    -0.388 OA
HETATM   21  C   UNK N   1      33.558  17.420   5.639  0.00  0.00     0.198 C 
HETATM   22  C   UNK N   1      33.319  17.562   7.144  0.00  0.00     0.298 C 
ENDBRANCH  16  17
ENDBRANCH  15  16
ENDBRANCH  14  15
ENDBRANCH  13  14
ENDBRANCH   5  13
BRANCH   8  23
HETATM   23  O   UNK N   1      37.980  14.213   9.913  0.00  0.00    -0.353 OA
HETATM   24  C   UNK N   1      38.507  13.782   8.718  0.00  0.00     0.210 C 
ENDBRANCH   8  23
BRANCH  11  25
HETATM   25  N   UNK N   1      34.920  11.351  14.659  0.00  0.00    -0.342 N 
HETATM   26  H   UNK N   1      34.021  11.448  14.271  0.00  0.00     0.167 HD
BRANCH  25  27
HETATM   27  C   UNK N   1      35.032  11.769  16.003  0.00  0.00     0.035 A 
HETATM   28  C   UNK N   1      35.186  10.774  16.969  0.00  0.00     0.056 A 
HETATM   29  C   UNK N   1      35.302  11.100  18.315  0.00  0.00     0.074 A 
HETATM   30 Cl   UNK N   1      35.495   9.814  19.493  0.00  0.00    -0.081 Cl
HETATM   31  C   UNK N   1      35.261  12.441  18.710  0.00  0.00     0.138 A 
HETATM   32  F   UNK N   1      35.370  12.770  20.020  0.00  0.00    -0.204 F 
HETATM   33  C   UNK N   1      35.106  13.448  17.746  0.00  0.00     0.046 A 
HETATM   34  C   UNK N   1      34.990  13.114  16.389  0.00  0.00     0.032 A 
ENDBRANCH  25  27
ENDBRANCH  11  25
TORSDOF 8
ENDMDL
MODEL 8
REMARK VINA RESULT:      -5.9      5.099      8.909
REMARK  8 active torsions:
REMARK  status: ('A' for Active; 'I' for Inactive)
REMARK    1  A    between atoms: O_4  and  C_18 
REMARK    2  A    between atoms: O_4  and  C_19 
REMARK    3  A    between atoms: O_5  and  C_22 
REMARK    4  A    between atoms: N_6  and  C_12 
REMARK    5  A    between atoms: N_7  and  C_25 
REMARK    6  A    between atoms: N_7  and  C_26 
REMARK    7  A    between atoms: C_12  and  C_15 
REMARK    8  A    between atoms: C_15  and  C_18 
ROOT
HETATM    1  N   UNK N   1      26.103  12.905   1.805  0.00  0.00    -0.351 N 
ATOM      2  HN  UNK N   1      26.155  12.191   1.080  1.00  0.00     0.166 HD
HETATM    3  N   UNK N   1      27.114  14.055   3.617  0.00  0.00    -0.338 N 
ATOM      4  HN  UNK N   1      27.915  14.194   4.234  1.00  0.00     0.168 HD
HETATM    5  C   UNK N   1      22.668  15.233   2.268  0.00  0.00     0.103 A 
HETATM    6  C   UNK N   1      24.911  14.628   2.933  0.00  0.00     0.038 A 
HETATM    7  C   UNK N   1      23.771  15.402   3.085  0.00  0.00     0.057 A 
HETATM    8  C   UNK N   1      22.702  14.242   1.249  0.00  0.00     0.103 A 
HETATM    9  C   UNK N   1      24.974  13.649   1.937  0.00  0.00     0.050 A 
HETATM   10  C   UNK N   1      23.870  13.455   1.095  0.00  0.00     0.070 A 
HETATM   11  C   UNK N   1      26.000  14.818   3.775  0.00  0.00     0.119 A 
HETATM   12  C   UNK N   1      27.168  13.105   2.636  0.00  0.00     0.182 A 
ENDROOT
BRANCH   5  13
HETATM   13  O   UNK N   1      21.617  16.049   2.506  0.00  0.00    -0.348 OA
BRANCH  13  14
HETATM   14  C   UNK N   1      20.579  15.819   3.367  0.00  0.00     0.177 C 
BRANCH  14  15
HETATM   15  C   UNK N   1      20.108  17.157   3.883  0.00  0.00     0.057 C 
BRANCH  15  16
HETATM   16  C   UNK N   1      21.198  17.780   4.722  0.00  0.00     0.274 C 
BRANCH  16  17
HETATM   17  N   UNK N   1      21.483  19.123   4.247  0.00  0.00     0.092 N 
HETATM   18  C   UNK N   1      22.814  19.079   3.641  0.00  0.00     0.298 C 
HETATM   19  C   UNK N   1      23.099  20.416   2.958  0.00  0.00     0.198 C 
HETATM   20  O   UNK N   1      22.152  20.627   1.939  0.00  0.00    -0.388 OA
HETATM   21  C   UNK N   1      20.909  20.804   2.573  0.00  0.00     0.198 C 
HETATM   22  C   UNK N   1      20.488  19.488   3.233  0.00  0.00     0.298 C 
ENDBRANCH  16  17
ENDBRANCH  15  16
ENDBRANCH  14  15
ENDBRANCH  13  14
ENDBRANCH   5  13
BRANCH   8  23
HETATM   23  O   UNK N   1      21.629  14.065   0.439  0.00  0.00    -0.353 OA
HETATM   24  C   UNK N   1      20.648  13.130   0.672  0.00  0.00     0.210 C 
ENDBRANCH   8  23
BRANCH  11  25
HETATM   25  N   UNK N   1      25.888  15.816   4.783  0.00  0.00    -0.342 N 
HETATM   26  H   UNK N   1      25.331  15.564   5.553  0.00  0.00     0.167 HD
BRANCH  25  27
HETATM   27  C   UNK N   1      26.446  17.110   4.856  0.00  0.00     0.035 A 
HETATM   28  C   UNK N   1      27.075  17.467   6.050  0.00  0.00     0.056 A 
HETATM   29  C   UNK N   1      27.649  18.723   6.206  0.00  0.00     0.074 A 
HETATM   30 Cl   UNK N   1      28.428  19.125   7.725  0.00  0.00    -0.081 Cl
HETATM   31  C   UNK N   1      27.595  19.645   5.155  0.00  0.00     0.138 A 
HETATM   32  F   UNK N   1      28.149  20.874   5.297  0.00  0.00    -0.204 F 
HETATM   33  C   UNK N   1      26.966  19.296   3.952  0.00  0.00     0.046 A 
HETATM   34  C   UNK N   1      26.389  18.027   3.799  0.00  0.00     0.032 A 
ENDBRANCH  25  27
ENDBRANCH  11  25
TORSDOF 8
ENDMDL
MODEL 9
REMARK VINA RESULT:      -5.9      8.650     11.672
REMARK  8 active torsions:
REMARK  status: ('A' for Active; 'I' for Inactive)
REMARK    1  A    between atoms: O_4  and  C_18 
REMARK    2  A    between atoms: O_4  and  C_19 
REMARK    3  A    between atoms: O_5  and  C_22 
REMARK    4  A    between atoms: N_6  and  C_12 
REMARK    5  A    between atoms: N_7  and  C_25 
REMARK    6  A    between atoms: N_7  and  C_26 
REMARK    7  A    between atoms: C_12  and  C_15 
REMARK    8  A    between atoms: C_15  and  C_18 
ROOT
HETATM    1  N   UNK N   1      38.209   9.747  11.565  0.00  0.00    -0.351 N 
ATOM      2  HN  UNK N   1      38.901   9.224  11.028  1.00  0.00     0.166 HD
HETATM    3  N   UNK N   1      36.757   9.893  13.435  0.00  0.00    -0.338 N 
ATOM      4  HN  UNK N   1      36.372   9.479  14.285  1.00  0.00     0.168 HD
HETATM    5  C   UNK N   1      36.950  13.527  10.316  0.00  0.00     0.103 A 
HETATM    6  C   UNK N   1      36.867  11.687  11.879  0.00  0.00     0.038 A 
HETATM    7  C   UNK N   1      36.451  12.943  11.466  0.00  0.00     0.057 A 
HETATM    8  C   UNK N   1      37.911  12.825   9.538  0.00  0.00     0.103 A 
HETATM    9  C   UNK N   1      37.814  10.975  11.138  0.00  0.00     0.050 A 
HETATM   10  C   UNK N   1      38.336  11.543   9.967  0.00  0.00     0.070 A 
HETATM   11  C   UNK N   1      36.341  11.124  13.036  0.00  0.00     0.119 A 
HETATM   12  C   UNK N   1      37.688   9.208  12.706  0.00  0.00     0.182 A 
ENDROOT
BRANCH   5  13
HETATM   13  O   UNK N   1      36.474  14.757  10.015  0.00  0.00    -0.348 OA
BRANCH  13  14
HETATM   14  C   UNK N   1      36.283  15.796  10.884  0.00  0.00     0.177 C 
BRANCH  14  15
HETATM   15  C   UNK N   1      35.078  16.572  10.410  0.00  0.00     0.057 C 
BRANCH  15  16
HETATM   16  C   UNK N   1      34.055  15.612   9.851  0.00  0.00     0.274 C 
BRANCH  16  17
HETATM   17  N   UNK N   1      33.597  16.075   8.554  0.00  0.00     0.092 N 
HETATM   18  C   UNK N   1      34.196  17.392   8.343  0.00  0.00     0.298 C 
HETATM   19  C   UNK N   1      33.903  17.856   6.917  0.00  0.00     0.198 C 
HETATM   20  O   UNK N   1      34.482  16.952   6.008  0.00  0.00    -0.388 OA
HETATM   21  C   UNK N   1      33.784  15.739   6.143  0.00  0.00     0.198 C 
HETATM   22  C   UNK N   1      34.072  15.144   7.524  0.00  0.00     0.298 C 
ENDBRANCH  16  17
ENDBRANCH  15  16
ENDBRANCH  14  15
ENDBRANCH  13  14
ENDBRANCH   5  13
BRANCH   8  23
HETATM   23  O   UNK N   1      38.411  13.384   8.409  0.00  0.00    -0.353 OA
HETATM   24  C   UNK N   1      37.765  13.352   7.196  0.00  0.00     0.210 C 
ENDBRANCH   8  23
BRANCH  11  25
HETATM   25  N   UNK N   1      35.371  11.877  13.754  0.00  0.00    -0.342 N 
HETATM   26  H   UNK N   1      34.475  11.890  13.347  0.00  0.00     0.167 HD
BRANCH  25  27
HETATM   27  C   UNK N   1      35.485  12.612  14.954  0.00  0.00     0.035 A 
HETATM   28  C   UNK N   1      36.330  13.722  14.944  0.00  0.00     0.056 A 
HETATM   29  C   UNK N   1      36.500  14.498  16.085  0.00  0.00     0.074 A 
HETATM   30 Cl   UNK N   1      37.573  15.885  16.023  0.00  0.00    -0.081 Cl
HETATM   31  C   UNK N   1      35.819  14.163  17.259  0.00  0.00     0.138 A 
HETATM   32  F   UNK N   1      35.980  14.911  18.378  0.00  0.00    -0.204 F 
HETATM   33  C   UNK N   1      34.968  13.049  17.278  0.00  0.00     0.046 A 
HETATM   34  C   UNK N   1      34.799  12.269  16.125  0.00  0.00     0.032 A 
ENDBRANCH  25  27
ENDBRANCH  11  25
TORSDOF 8
ENDMDL
