REMARK  8 active torsions:
REMARK  status: ('A' for Active; 'I' for Inactive)
REMARK    1  A    between atoms: O_4  and  C_18 
REMARK    2  A    between atoms: O_4  and  C_19 
REMARK    3  A    between atoms: O_5  and  C_22 
REMARK    4  A    between atoms: N_6  and  C_12 
REMARK    5  A    between atoms: N_7  and  C_25 
REMARK    6  A    between atoms: N_7  and  C_26 
REMARK    7  A    between atoms: C_12  and  C_15 
REMARK    8  A    between atoms: C_15  and  C_18 
ROOT
HETATM    1  N   UNK N   1      10.213   3.705  -0.034  0.00  0.00    -0.351 N 
ATOM      2  HN  UNK N   1      10.282   4.722  -0.050  1.00  0.00     0.166 HD
HETATM    3  N   UNK N   1      11.276   1.584  -0.022  0.00  0.00    -0.338 N 
ATOM      4  HN  UNK N   1      12.132   1.029  -0.029  1.00  0.00     0.168 HD
HETATM    5  C   UNK N   1       6.489   1.819   0.049  0.00  0.00     0.103 A 
HETATM    6  C   UNK N   1       8.903   1.719   0.015  0.00  0.00     0.038 A 
HETATM    7  C   UNK N   1       7.666   1.093   0.045  0.00  0.00     0.057 A 
HETATM    8  C   UNK N   1       6.546   3.239   0.021  0.00  0.00     0.103 A 
HETATM    9  C   UNK N   1       8.990   3.114  -0.008  0.00  0.00     0.050 A 
HETATM   10  C   UNK N   1       7.812   3.875  -0.006  0.00  0.00     0.070 A 
HETATM   11  C   UNK N   1      10.068   0.961   0.005  0.00  0.00     0.119 A 
HETATM   12  C   UNK N   1      11.350   2.948  -0.039  0.00  0.00     0.182 A 
ENDROOT
BRANCH   5  13
HETATM   13  O   UNK N   1       5.344   1.100   0.085  0.00  0.00    -0.348 OA
BRANCH  13  14
HETATM   14  C   UNK N   1       4.069   1.585  -0.011  0.00  0.00     0.177 C 
BRANCH  14  15
HETATM   15  C   UNK N   1       3.123   0.427   0.197  0.00  0.00     0.057 C 
BRANCH  15  16
HETATM   16  C   UNK N   1       1.791   0.751  -0.437  0.00  0.00     0.274 C 
BRANCH  16  17
HETATM   17  N   UNK N   1       0.735  -0.003   0.214  0.00  0.00     0.092 N 
HETATM   18  C   UNK N   1      -0.523   0.664  -0.120  0.00  0.00     0.298 C 
HETATM   19  C   UNK N   1      -1.691  -0.185   0.382  0.00  0.00     0.198 C 
HETATM   20  O   UNK N   1      -1.665  -1.435  -0.262  0.00  0.00    -0.388 OA
HETATM   21  C   UNK N   1      -0.513  -2.101   0.194  0.00  0.00     0.198 C 
HETATM   22  C   UNK N   1       0.729  -1.369  -0.321  0.00  0.00     0.298 C 
ENDBRANCH  16  17
ENDBRANCH  15  16
ENDBRANCH  14  15
ENDBRANCH  13  14
ENDBRANCH   5  13
BRANCH   8  23
HETATM   23  O   UNK N   1       5.401   3.965   0.026  0.00  0.00    -0.353 OA
HETATM   24  C   UNK N   1       5.374   5.340   0.001  0.00  0.00     0.210 C 
ENDBRANCH   8  23
BRANCH  11  25
HETATM   25  N   UNK N   1       9.933  -0.455   0.017  0.00  0.00    -0.342 N 
HETATM   26  H   UNK N   1       9.005  -0.781   0.035  0.00  0.00     0.167 HD
BRANCH  25  27
HETATM   27  C   UNK N   1      10.915  -1.469   0.008  0.00  0.00     0.035 A 
HETATM   28  C   UNK N   1      10.467  -2.791   0.009  0.00  0.00     0.056 A 
HETATM   29  C   UNK N   1      11.368  -3.849   0.002  0.00  0.00     0.074 A 
HETATM   30 Cl   UNK N   1      10.756  -5.493   0.003  0.00  0.00    -0.081 Cl
HETATM   31  C   UNK N   1      12.742  -3.589  -0.003  0.00  0.00     0.138 A 
HETATM   32  F   UNK N   1      13.630  -4.613  -0.007  0.00  0.00    -0.204 F 
HETATM   33  C   UNK N   1      13.202  -2.264  -0.004  0.00  0.00     0.046 A 
HETATM   34  C   UNK N   1      12.289  -1.200   0.002  0.00  0.00     0.032 A 
ENDBRANCH  25  27
ENDBRANCH  11  25
TORSDOF 8
