REMARK  5 active torsions:
REMARK  status: ('A' for Active; 'I' for Inactive)
REMARK    1  A    between atoms: O_2  and  C_16 
REMARK    2  A    between atoms: O_4  and  C_19 
REMARK       I    between atoms: N_6  and  C_15 
REMARK    3  A    between atoms: C_7  and  C_11 
REMARK    4  A    between atoms: C_11  and  C_19 
REMARK    5  A    between atoms: C_15  and  C_18 
ROOT
HETATM    1  O   UNK N   1       4.729   3.299  -0.427  0.00  0.00    -0.267 OA
HETATM    2  N   UNK N   1       5.241   1.135  -0.009  0.00  0.00    -0.281 N 
HETATM    3  C   UNK N   1       5.192  -1.121   0.243  0.00  0.00    -0.013 A 
HETATM    4  C   UNK N   1       3.900  -0.664   0.225  0.00  0.00     0.003 A 
HETATM    5  C   UNK N   1       3.949   0.698   0.063  0.00  0.00     0.053 A 
HETATM    6  C   UNK N   1       6.004  -0.007   0.090  0.00  0.00     0.024 A 
HETATM    7  C   UNK N   1       2.699  -1.360   0.328  0.00  0.00     0.051 A 
HETATM    8  C   UNK N   1       2.769   1.451  -0.001  0.00  0.00     0.034 A 
HETATM    9  C   UNK N   1       7.482  -0.144  -0.036  0.00  0.00     0.069 C 
HETATM   10  C   UNK N   1       5.606   2.478  -0.190  0.00  0.00     0.263 C 
HETATM   11  C   UNK N   1       1.499  -0.636   0.257  0.00  0.00     0.069 A 
HETATM   12  C   UNK N   1       1.539   0.774   0.094  0.00  0.00     0.039 A 
ENDROOT
BRANCH  10  13
HETATM   13  C   UNK N   1       7.007   3.007  -0.124  0.00  0.00     0.033 A 
HETATM   14  C   UNK N   1       7.316   4.206  -0.791  0.00  0.00     0.018 A 
HETATM   15  C   UNK N   1       8.611   4.735  -0.747  0.00  0.00     0.025 A 
HETATM   16  C   UNK N   1       9.604   4.088  -0.009  0.00  0.00     0.034 A 
HETATM   17 Cl   UNK N   1      11.236   4.720   0.020  0.00  0.00    -0.084 Cl
HETATM   18  C   UNK N   1       9.296   2.930   0.703  0.00  0.00     0.025 A 
HETATM   19  C   UNK N   1       8.004   2.406   0.653  0.00  0.00     0.018 A 
ENDBRANCH  10  13
BRANCH   3  20
HETATM   20  C   UNK N   1       5.665  -2.539   0.390  0.00  0.00     0.151 C 
BRANCH  20  21
HETATM   21  C   UNK N   1       5.252  -3.412  -0.752  0.00  0.00     0.143 C 
HETATM   22  O   UNK N   1       4.077  -3.684  -0.930  0.00  0.00    -0.650 OA
BRANCH  21  23
HETATM   23  O   UNK N   1       6.190  -3.939  -1.561  0.00  0.00    -0.776 OA
HETATM   24  H   UNK N   1       6.199  -4.687  -2.125  0.00  0.00     0.167 HD
ENDBRANCH  21  23
ENDBRANCH  20  21
ENDBRANCH   3  20
BRANCH  11  25
HETATM   25  O   UNK N   1       0.327  -1.309   0.341  0.00  0.00    -0.356 OA
HETATM   26  C   UNK N   1      -0.902  -0.697   0.257  0.00  0.00     0.210 C 
ENDBRANCH  11  25
TORSDOF 5
