MODEL 1
REMARK VINA RESULT:      -7.2      0.000      0.000
REMARK  5 active torsions:
REMARK  status: ('A' for Active; 'I' for Inactive)
REMARK    1  A    between atoms: O_2  and  C_16 
REMARK    2  A    between atoms: O_4  and  C_19 
REMARK       I    between atoms: N_6  and  C_15 
REMARK    3  A    between atoms: C_7  and  C_11 
REMARK    4  A    between atoms: C_11  and  C_19 
REMARK    5  A    between atoms: C_15  and  C_18 
ROOT
HETATM    1  O   UNK N   1      26.922  21.713  -7.554  0.00  0.00    -0.267 OA
HETATM    2  N   UNK N   1      28.591  22.432  -6.206  0.00  0.00    -0.281 N 
HETATM    3  C   UNK N   1      29.814  23.373  -4.540  0.00  0.00    -0.013 A 
HETATM    4  C   UNK N   1      28.568  23.946  -4.534  0.00  0.00     0.003 A 
HETATM    5  C   UNK N   1      27.842  23.359  -5.540  0.00  0.00     0.053 A 
HETATM    6  C   UNK N   1      29.811  22.440  -5.566  0.00  0.00     0.024 A 
HETATM    7  C   UNK N   1      28.035  24.928  -3.704  0.00  0.00     0.051 A 
HETATM    8  C   UNK N   1      26.514  23.739  -5.774  0.00  0.00     0.034 A 
HETATM    9  C   UNK N   1      30.982  21.550  -5.800  0.00  0.00     0.069 C 
HETATM   10  C   UNK N   1      28.113  21.658  -7.275  0.00  0.00     0.263 C 
HETATM   11  C   UNK N   1      26.704  25.323  -3.906  0.00  0.00     0.069 A 
HETATM   12  C   UNK N   1      25.945  24.725  -4.947  0.00  0.00     0.039 A 
ENDROOT
BRANCH  10  13
HETATM   13  C   UNK N   1      28.949  20.744  -8.119  0.00  0.00     0.033 A 
HETATM   14  C   UNK N   1      29.034  19.383  -7.775  0.00  0.00     0.018 A 
HETATM   15  C   UNK N   1      29.799  18.498  -8.542  0.00  0.00     0.025 A 
HETATM   16  C   UNK N   1      30.462  18.957  -9.682  0.00  0.00     0.034 A 
HETATM   17 Cl   UNK N   1      31.453  17.866 -10.627  0.00  0.00    -0.084 Cl
HETATM   18  C   UNK N   1      30.339  20.291 -10.066  0.00  0.00     0.025 A 
HETATM   19  C   UNK N   1      29.577  21.169  -9.295  0.00  0.00     0.018 A 
ENDBRANCH  10  13
BRANCH   3  20
HETATM   20  C   UNK N   1      30.968  23.670  -3.626  0.00  0.00     0.151 C 
BRANCH  20  21
HETATM   21  C   UNK N   1      30.978  22.811  -2.402  0.00  0.00     0.143 C 
HETATM   22  O   UNK N   1      30.238  23.060  -1.465  0.00  0.00    -0.650 OA
BRANCH  21  23
HETATM   23  O   UNK N   1      31.844  21.784  -2.316  0.00  0.00    -0.776 OA
HETATM   24  H   UNK N   1      32.390  21.466  -1.624  0.00  0.00     0.167 HD
ENDBRANCH  21  23
ENDBRANCH  20  21
ENDBRANCH   3  20
BRANCH  11  25
HETATM   25  O   UNK N   1      26.174  26.266  -3.092  0.00  0.00    -0.356 OA
HETATM   26  C   UNK N   1      25.911  27.553  -3.501  0.00  0.00     0.210 C 
ENDBRANCH  11  25
TORSDOF 5
ENDMDL
MODEL 2
REMARK VINA RESULT:      -7.2      3.581      6.896
REMARK  5 active torsions:
REMARK  status: ('A' for Active; 'I' for Inactive)
REMARK    1  A    between atoms: O_2  and  C_16 
REMARK    2  A    between atoms: O_4  and  C_19 
REMARK       I    between atoms: N_6  and  C_15 
REMARK    3  A    between atoms: C_7  and  C_11 
REMARK    4  A    between atoms: C_11  and  C_19 
REMARK    5  A    between atoms: C_15  and  C_18 
ROOT
HETATM    1  O   UNK N   1      26.753  25.131  -6.953  0.00  0.00    -0.267 OA
HETATM    2  N   UNK N   1      28.476  24.588  -5.591  0.00  0.00    -0.281 N 
HETATM    3  C   UNK N   1      30.292  23.619  -4.631  0.00  0.00    -0.013 A 
HETATM    4  C   UNK N   1      29.749  22.727  -5.518  0.00  0.00     0.003 A 
HETATM    5  C   UNK N   1      28.660  23.331  -6.094  0.00  0.00     0.053 A 
HETATM    6  C   UNK N   1      29.505  24.760  -4.692  0.00  0.00     0.024 A 
HETATM    7  C   UNK N   1      30.152  21.438  -5.857  0.00  0.00     0.051 A 
HETATM    8  C   UNK N   1      27.898  22.659  -7.059  0.00  0.00     0.034 A 
HETATM    9  C   UNK N   1      29.865  25.985  -3.924  0.00  0.00     0.069 C 
HETATM   10  C   UNK N   1      27.451  25.455  -6.000  0.00  0.00     0.263 C 
HETATM   11  C   UNK N   1      29.417  20.741  -6.828  0.00  0.00     0.069 A 
HETATM   12  C   UNK N   1      28.286  21.357  -7.426  0.00  0.00     0.039 A 
ENDROOT
BRANCH  10  13
HETATM   13  C   UNK N   1      27.133  26.774  -5.365  0.00  0.00     0.033 A 
HETATM   14  C   UNK N   1      27.629  27.952  -5.952  0.00  0.00     0.018 A 
HETATM   15  C   UNK N   1      27.347  29.203  -5.392  0.00  0.00     0.025 A 
HETATM   16  C   UNK N   1      26.541  29.294  -4.256  0.00  0.00     0.034 A 
HETATM   17 Cl   UNK N   1      26.216  30.850  -3.525  0.00  0.00    -0.084 Cl
HETATM   18  C   UNK N   1      25.997  28.138  -3.698  0.00  0.00     0.025 A 
HETATM   19  C   UNK N   1      26.283  26.893  -4.259  0.00  0.00     0.018 A 
ENDBRANCH  10  13
BRANCH   3  20
HETATM   20  C   UNK N   1      31.500  23.432  -3.759  0.00  0.00     0.151 C 
BRANCH  20  21
HETATM   21  C   UNK N   1      31.211  22.633  -2.528  0.00  0.00     0.143 C 
HETATM   22  O   UNK N   1      30.471  23.073  -1.664  0.00  0.00    -0.650 OA
BRANCH  21  23
HETATM   23  O   UNK N   1      31.809  21.440  -2.351  0.00  0.00    -0.776 OA
HETATM   24  H   UNK N   1      31.530  20.639  -1.955  0.00  0.00     0.167 HD
ENDBRANCH  21  23
ENDBRANCH  20  21
ENDBRANCH   3  20
BRANCH  11  25
HETATM   25  O   UNK N   1      29.813  19.493  -7.173  0.00  0.00    -0.356 OA
HETATM   26  C   UNK N   1      29.823  19.037  -8.470  0.00  0.00     0.210 C 
ENDBRANCH  11  25
TORSDOF 5
ENDMDL
MODEL 3
REMARK VINA RESULT:      -7.0     11.653     13.639
REMARK  5 active torsions:
REMARK  status: ('A' for Active; 'I' for Inactive)
REMARK    1  A    between atoms: O_2  and  C_16 
REMARK    2  A    between atoms: O_4  and  C_19 
REMARK       I    between atoms: N_6  and  C_15 
REMARK    3  A    between atoms: C_7  and  C_11 
REMARK    4  A    between atoms: C_11  and  C_19 
REMARK    5  A    between atoms: C_15  and  C_18 
ROOT
HETATM    1  O   UNK N   1      29.903  16.581   2.826  0.00  0.00    -0.267 OA
HETATM    2  N   UNK N   1      29.618  16.583   5.070  0.00  0.00    -0.281 N 
HETATM    3  C   UNK N   1      29.833  16.899   7.308  0.00  0.00    -0.013 A 
HETATM    4  C   UNK N   1      31.053  17.122   6.725  0.00  0.00     0.003 A 
HETATM    5  C   UNK N   1      30.902  16.935   5.373  0.00  0.00     0.053 A 
HETATM    6  C   UNK N   1      28.960  16.577   6.280  0.00  0.00     0.024 A 
HETATM    7  C   UNK N   1      32.269  17.486   7.295  0.00  0.00     0.051 A 
HETATM    8  C   UNK N   1      31.988  17.103   4.504  0.00  0.00     0.034 A 
HETATM    9  C   UNK N   1      27.508  16.367   6.541  0.00  0.00     0.069 C 
HETATM   10  C   UNK N   1      29.157  16.341   3.766  0.00  0.00     0.263 C 
HETATM   11  C   UNK N   1      33.375  17.672   6.451  0.00  0.00     0.069 A 
HETATM   12  C   UNK N   1      33.229  17.477   5.052  0.00  0.00     0.039 A 
ENDROOT
BRANCH  10  13
HETATM   13  C   UNK N   1      27.800  15.810   3.416  0.00  0.00     0.033 A 
HETATM   14  C   UNK N   1      26.747  16.717   3.198  0.00  0.00     0.018 A 
HETATM   15  C   UNK N   1      25.468  16.259   2.863  0.00  0.00     0.025 A 
HETATM   16  C   UNK N   1      25.234  14.891   2.710  0.00  0.00     0.034 A 
HETATM   17 Cl   UNK N   1      23.629  14.307   2.329  0.00  0.00    -0.084 Cl
HETATM   18  C   UNK N   1      26.283  13.986   2.866  0.00  0.00     0.025 A 
HETATM   19  C   UNK N   1      27.555  14.448   3.204  0.00  0.00     0.018 A 
ENDBRANCH  10  13
BRANCH   3  20
HETATM   20  C   UNK N   1      29.480  16.986   8.765  0.00  0.00     0.151 C 
BRANCH  20  21
HETATM   21  C   UNK N   1      29.084  18.365   9.188  0.00  0.00     0.143 C 
HETATM   22  O   UNK N   1      29.899  19.114   9.699  0.00  0.00    -0.650 OA
BRANCH  21  23
HETATM   23  O   UNK N   1      27.807  18.764   9.044  0.00  0.00    -0.776 OA
HETATM   24  H   UNK N   1      27.059  18.376   8.635  0.00  0.00     0.167 HD
ENDBRANCH  21  23
ENDBRANCH  20  21
ENDBRANCH   3  20
BRANCH  11  25
HETATM   25  O   UNK N   1      34.557  18.041   6.998  0.00  0.00    -0.356 OA
HETATM   26  C   UNK N   1      34.693  18.422   8.313  0.00  0.00     0.210 C 
ENDBRANCH  11  25
TORSDOF 5
ENDMDL
MODEL 4
REMARK VINA RESULT:      -7.0     11.225     14.094
REMARK  5 active torsions:
REMARK  status: ('A' for Active; 'I' for Inactive)
REMARK    1  A    between atoms: O_2  and  C_16 
REMARK    2  A    between atoms: O_4  and  C_19 
REMARK       I    between atoms: N_6  and  C_15 
REMARK    3  A    between atoms: C_7  and  C_11 
REMARK    4  A    between atoms: C_11  and  C_19 
REMARK    5  A    between atoms: C_15  and  C_18 
ROOT
HETATM    1  O   UNK N   1      28.942  17.053   3.211  0.00  0.00    -0.267 OA
HETATM    2  N   UNK N   1      29.015  17.484   5.431  0.00  0.00    -0.281 N 
HETATM    3  C   UNK N   1      29.631  17.681   7.607  0.00  0.00    -0.013 A 
HETATM    4  C   UNK N   1      30.449  16.755   7.013  0.00  0.00     0.003 A 
HETATM    5  C   UNK N   1      30.069  16.656   5.698  0.00  0.00     0.053 A 
HETATM    6  C   UNK N   1      28.762  18.126   6.622  0.00  0.00     0.024 A 
HETATM    7  C   UNK N   1      31.501  16.013   7.543  0.00  0.00     0.051 A 
HETATM    8  C   UNK N   1      30.735  15.784   4.827  0.00  0.00     0.034 A 
HETATM    9  C   UNK N   1      27.788  19.220   6.893  0.00  0.00     0.069 C 
HETATM   10  C   UNK N   1      28.419  17.611   4.167  0.00  0.00     0.263 C 
HETATM   11  C   UNK N   1      32.195  15.138   6.694  0.00  0.00     0.069 A 
HETATM   12  C   UNK N   1      31.807  15.025   5.333  0.00  0.00     0.039 A 
ENDROOT
BRANCH  10  13
HETATM   13  C   UNK N   1      27.173  18.393   3.876  0.00  0.00     0.033 A 
HETATM   14  C   UNK N   1      25.923  17.766   4.022  0.00  0.00     0.018 A 
HETATM   15  C   UNK N   1      24.738  18.465   3.766  0.00  0.00     0.025 A 
HETATM   16  C   UNK N   1      24.789  19.810   3.393  0.00  0.00     0.034 A 
HETATM   17 Cl   UNK N   1      23.314  20.682   3.033  0.00  0.00    -0.084 Cl
HETATM   18  C   UNK N   1      26.019  20.459   3.301  0.00  0.00     0.025 A 
HETATM   19  C   UNK N   1      27.197  19.755   3.554  0.00  0.00     0.018 A 
ENDBRANCH  10  13
BRANCH   3  20
HETATM   20  C   UNK N   1      29.653  18.146   9.035  0.00  0.00     0.151 C 
BRANCH  20  21
HETATM   21  C   UNK N   1      28.921  17.226   9.959  0.00  0.00     0.143 C 
HETATM   22  O   UNK N   1      27.724  17.038   9.825  0.00  0.00    -0.650 OA
BRANCH  21  23
HETATM   23  O   UNK N   1      29.580  16.638  10.975  0.00  0.00    -0.776 OA
HETATM   24  H   UNK N   1      30.005  15.808  11.064  0.00  0.00     0.167 HD
ENDBRANCH  21  23
ENDBRANCH  20  21
ENDBRANCH   3  20
BRANCH  11  25
HETATM   25  O   UNK N   1      33.229  14.425   7.199  0.00  0.00    -0.356 OA
HETATM   26  C   UNK N   1      34.003  14.859   8.250  0.00  0.00     0.210 C 
ENDBRANCH  11  25
TORSDOF 5
ENDMDL
MODEL 5
REMARK VINA RESULT:      -6.7     12.273     14.747
REMARK  5 active torsions:
REMARK  status: ('A' for Active; 'I' for Inactive)
REMARK    1  A    between atoms: O_2  and  C_16 
REMARK    2  A    between atoms: O_4  and  C_19 
REMARK       I    between atoms: N_6  and  C_15 
REMARK    3  A    between atoms: C_7  and  C_11 
REMARK    4  A    between atoms: C_11  and  C_19 
REMARK    5  A    between atoms: C_15  and  C_18 
ROOT
HETATM    1  O   UNK N   1      31.969  14.499   4.644  0.00  0.00    -0.267 OA
HETATM    2  N   UNK N   1      30.906  15.898   6.069  0.00  0.00    -0.281 N 
HETATM    3  C   UNK N   1      30.394  17.467   7.628  0.00  0.00    -0.013 A 
HETATM    4  C   UNK N   1      31.707  17.111   7.794  0.00  0.00     0.003 A 
HETATM    5  C   UNK N   1      32.000  16.170   6.839  0.00  0.00     0.053 A 
HETATM    6  C   UNK N   1      29.917  16.721   6.560  0.00  0.00     0.024 A 
HETATM    7  C   UNK N   1      32.651  17.564   8.710  0.00  0.00     0.051 A 
HETATM    8  C   UNK N   1      33.286  15.618   6.754  0.00  0.00     0.034 A 
HETATM    9  C   UNK N   1      28.539  16.926   6.033  0.00  0.00     0.069 C 
HETATM   10  C   UNK N   1      30.905  14.988   5.000  0.00  0.00     0.263 C 
HETATM   11  C   UNK N   1      33.951  17.038   8.645  0.00  0.00     0.069 A 
HETATM   12  C   UNK N   1      34.264  16.061   7.663  0.00  0.00     0.039 A 
ENDROOT
BRANCH  10  13
HETATM   13  C   UNK N   1      29.690  14.558   4.235  0.00  0.00     0.033 A 
HETATM   14  C   UNK N   1      29.436  15.134   2.977  0.00  0.00     0.018 A 
HETATM   15  C   UNK N   1      28.316  14.753   2.230  0.00  0.00     0.025 A 
HETATM   16  C   UNK N   1      27.454  13.769   2.718  0.00  0.00     0.034 A 
HETATM   17 Cl   UNK N   1      26.028  13.314   1.809  0.00  0.00    -0.084 Cl
HETATM   18  C   UNK N   1      27.726  13.150   3.936  0.00  0.00     0.025 A 
HETATM   19  C   UNK N   1      28.843  13.536   4.678  0.00  0.00     0.018 A 
ENDBRANCH  10  13
BRANCH   3  20
HETATM   20  C   UNK N   1      29.603  18.467   8.423  0.00  0.00     0.151 C 
BRANCH  20  21
HETATM   21  C   UNK N   1      28.718  17.829   9.445  0.00  0.00     0.143 C 
HETATM   22  O   UNK N   1      29.181  17.069  10.278  0.00  0.00    -0.650 OA
BRANCH  21  23
HETATM   23  O   UNK N   1      27.392  18.060   9.416  0.00  0.00    -0.776 OA
HETATM   24  H   UNK N   1      26.717  17.989  10.062  0.00  0.00     0.167 HD
ENDBRANCH  21  23
ENDBRANCH  20  21
ENDBRANCH   3  20
BRANCH  11  25
HETATM   25  O   UNK N   1      34.879  17.485   9.524  0.00  0.00    -0.356 OA
HETATM   26  C   UNK N   1      35.412  16.703  10.522  0.00  0.00     0.210 C 
ENDBRANCH  11  25
TORSDOF 5
ENDMDL
MODEL 6
REMARK VINA RESULT:      -6.7      3.706      7.892
REMARK  5 active torsions:
REMARK  status: ('A' for Active; 'I' for Inactive)
REMARK    1  A    between atoms: O_2  and  C_16 
REMARK    2  A    between atoms: O_4  and  C_19 
REMARK       I    between atoms: N_6  and  C_15 
REMARK    3  A    between atoms: C_7  and  C_11 
REMARK    4  A    between atoms: C_11  and  C_19 
REMARK    5  A    between atoms: C_15  and  C_18 
ROOT
HETATM    1  O   UNK N   1      29.038  24.808  -3.649  0.00  0.00    -0.267 OA
HETATM    2  N   UNK N   1      27.968  24.381  -5.596  0.00  0.00    -0.281 N 
HETATM    3  C   UNK N   1      27.087  23.402  -7.446  0.00  0.00    -0.013 A 
HETATM    4  C   UNK N   1      28.074  22.586  -6.958  0.00  0.00     0.003 A 
HETATM    5  C   UNK N   1      28.588  23.188  -5.837  0.00  0.00     0.053 A 
HETATM    6  C   UNK N   1      27.027  24.496  -6.596  0.00  0.00     0.024 A 
HETATM    7  C   UNK N   1      28.536  21.358  -7.422  0.00  0.00     0.051 A 
HETATM    8  C   UNK N   1      29.618  22.579  -5.109  0.00  0.00     0.034 A 
HETATM    9  C   UNK N   1      25.988  25.549  -6.769  0.00  0.00     0.069 C 
HETATM   10  C   UNK N   1      28.269  25.217  -4.510  0.00  0.00     0.263 C 
HETATM   11  C   UNK N   1      29.561  20.716  -6.709  0.00  0.00     0.069 A 
HETATM   12  C   UNK N   1      30.102  21.333  -5.551  0.00  0.00     0.039 A 
ENDROOT
BRANCH  10  13
HETATM   13  C   UNK N   1      27.715  26.594  -4.302  0.00  0.00     0.033 A 
HETATM   14  C   UNK N   1      28.297  27.675  -4.989  0.00  0.00     0.018 A 
HETATM   15  C   UNK N   1      27.803  28.974  -4.826  0.00  0.00     0.025 A 
HETATM   16  C   UNK N   1      26.701  29.203  -3.999  0.00  0.00     0.034 A 
HETATM   17 Cl   UNK N   1      26.101  30.830  -3.758  0.00  0.00    -0.084 Cl
HETATM   18  C   UNK N   1      26.081  28.133  -3.358  0.00  0.00     0.025 A 
HETATM   19  C   UNK N   1      26.579  26.840  -3.522  0.00  0.00     0.018 A 
ENDBRANCH  10  13
BRANCH   3  20
HETATM   20  C   UNK N   1      26.222  23.179  -8.653  0.00  0.00     0.151 C 
BRANCH  20  21
HETATM   21  C   UNK N   1      25.187  22.120  -8.441  0.00  0.00     0.143 C 
HETATM   22  O   UNK N   1      24.412  22.191  -7.503  0.00  0.00    -0.650 OA
BRANCH  21  23
HETATM   23  O   UNK N   1      25.143  21.057  -9.266  0.00  0.00    -0.776 OA
HETATM   24  H   UNK N   1      25.613  20.247  -9.288  0.00  0.00     0.167 HD
ENDBRANCH  21  23
ENDBRANCH  20  21
ENDBRANCH   3  20
BRANCH  11  25
HETATM   25  O   UNK N   1      30.004  19.514  -7.147  0.00  0.00    -0.356 OA
HETATM   26  C   UNK N   1      29.210  18.618  -7.825  0.00  0.00     0.210 C 
ENDBRANCH  11  25
TORSDOF 5
ENDMDL
MODEL 7
REMARK VINA RESULT:      -6.6      3.655      7.535
REMARK  5 active torsions:
REMARK  status: ('A' for Active; 'I' for Inactive)
REMARK    1  A    between atoms: O_2  and  C_16 
REMARK    2  A    between atoms: O_4  and  C_19 
REMARK       I    between atoms: N_6  and  C_15 
REMARK    3  A    between atoms: C_7  and  C_11 
REMARK    4  A    between atoms: C_11  and  C_19 
REMARK    5  A    between atoms: C_15  and  C_18 
ROOT
HETATM    1  O   UNK N   1      30.713  23.418  -2.209  0.00  0.00    -0.267 OA
HETATM    2  N   UNK N   1      30.565  22.353  -4.200  0.00  0.00    -0.281 N 
HETATM    3  C   UNK N   1      30.774  20.896  -5.928  0.00  0.00    -0.013 A 
HETATM    4  C   UNK N   1      31.806  20.673  -5.053  0.00  0.00     0.003 A 
HETATM    5  C   UNK N   1      31.657  21.556  -4.012  0.00  0.00     0.053 A 
HETATM    6  C   UNK N   1      30.016  21.923  -5.388  0.00  0.00     0.024 A 
HETATM    7  C   UNK N   1      32.845  19.750  -5.105  0.00  0.00     0.051 A 
HETATM    8  C   UNK N   1      32.568  21.560  -2.947  0.00  0.00     0.034 A 
HETATM    9  C   UNK N   1      28.747  22.363  -6.031  0.00  0.00     0.069 C 
HETATM   10  C   UNK N   1      30.150  23.341  -3.294  0.00  0.00     0.263 C 
HETATM   11  C   UNK N   1      33.768  19.722  -4.049  0.00  0.00     0.069 A 
HETATM   12  C   UNK N   1      33.626  20.633  -2.969  0.00  0.00     0.039 A 
ENDROOT
BRANCH  10  13
HETATM   13  C   UNK N   1      29.049  24.328  -3.539  0.00  0.00     0.033 A 
HETATM   14  C   UNK N   1      27.745  24.017  -3.113  0.00  0.00     0.018 A 
HETATM   15  C   UNK N   1      26.692  24.916  -3.319  0.00  0.00     0.025 A 
HETATM   16  C   UNK N   1      26.937  26.150  -3.924  0.00  0.00     0.034 A 
HETATM   17 Cl   UNK N   1      25.620  27.265  -4.220  0.00  0.00    -0.084 Cl
HETATM   18  C   UNK N   1      28.234  26.494  -4.299  0.00  0.00     0.025 A 
HETATM   19  C   UNK N   1      29.279  25.593  -4.094  0.00  0.00     0.018 A 
ENDBRANCH  10  13
BRANCH   3  20
HETATM   20  C   UNK N   1      30.492  20.181  -7.219  0.00  0.00     0.151 C 
BRANCH  20  21
HETATM   21  C   UNK N   1      31.159  20.818  -8.396  0.00  0.00     0.143 C 
HETATM   22  O   UNK N   1      32.358  20.687  -8.574  0.00  0.00    -0.650 OA
BRANCH  21  23
HETATM   23  O   UNK N   1      30.437  21.581  -9.238  0.00  0.00    -0.776 OA
HETATM   24  H   UNK N   1      29.585  21.484  -9.616  0.00  0.00     0.167 HD
ENDBRANCH  21  23
ENDBRANCH  20  21
ENDBRANCH   3  20
BRANCH  11  25
HETATM   25  O   UNK N   1      34.773  18.815  -4.086  0.00  0.00    -0.356 OA
HETATM   26  C   UNK N   1      34.563  17.456  -4.097  0.00  0.00     0.210 C 
ENDBRANCH  11  25
TORSDOF 5
ENDMDL
MODEL 8
REMARK VINA RESULT:      -6.6     11.193     13.276
REMARK  5 active torsions:
REMARK  status: ('A' for Active; 'I' for Inactive)
REMARK    1  A    between atoms: O_2  and  C_16 
REMARK    2  A    between atoms: O_4  and  C_19 
REMARK       I    between atoms: N_6  and  C_15 
REMARK    3  A    between atoms: C_7  and  C_11 
REMARK    4  A    between atoms: C_11  and  C_19 
REMARK    5  A    between atoms: C_15  and  C_18 
ROOT
HETATM    1  O   UNK N   1      27.794  19.844   4.384  0.00  0.00    -0.267 OA
HETATM    2  N   UNK N   1      26.073  18.446   4.836  0.00  0.00    -0.281 N 
HETATM    3  C   UNK N   1      24.091  17.338   4.843  0.00  0.00    -0.013 A 
HETATM    4  C   UNK N   1      23.917  18.524   4.178  0.00  0.00     0.003 A 
HETATM    5  C   UNK N   1      25.125  19.175   4.176  0.00  0.00     0.053 A 
HETATM    6  C   UNK N   1      25.421  17.300   5.234  0.00  0.00     0.024 A 
HETATM    7  C   UNK N   1      22.782  19.056   3.572  0.00  0.00     0.051 A 
HETATM    8  C   UNK N   1      25.261  20.423   3.555  0.00  0.00     0.034 A 
HETATM    9  C   UNK N   1      25.992  16.098   5.902  0.00  0.00     0.069 C 
HETATM   10  C   UNK N   1      27.409  18.848   4.984  0.00  0.00     0.263 C 
HETATM   11  C   UNK N   1      22.888  20.300   2.932  0.00  0.00     0.069 A 
HETATM   12  C   UNK N   1      24.133  20.983   2.928  0.00  0.00     0.039 A 
ENDROOT
BRANCH  10  13
HETATM   13  C   UNK N   1      28.433  18.148   5.826  0.00  0.00     0.033 A 
HETATM   14  C   UNK N   1      29.406  17.352   5.196  0.00  0.00     0.018 A 
HETATM   15  C   UNK N   1      30.382  16.688   5.948  0.00  0.00     0.025 A 
HETATM   16  C   UNK N   1      30.415  16.836   7.336  0.00  0.00     0.034 A 
HETATM   17 Cl   UNK N   1      31.606  15.978   8.288  0.00  0.00    -0.084 Cl
HETATM   18  C   UNK N   1      29.490  17.667   7.967  0.00  0.00     0.025 A 
HETATM   19  C   UNK N   1      28.518  18.325   7.212  0.00  0.00     0.018 A 
ENDBRANCH  10  13
BRANCH   3  20
HETATM   20  C   UNK N   1      23.068  16.271   5.106  0.00  0.00     0.151 C 
BRANCH  20  21
HETATM   21  C   UNK N   1      22.340  16.467   6.398  0.00  0.00     0.143 C 
HETATM   22  O   UNK N   1      22.286  15.569   7.221  0.00  0.00    -0.650 OA
BRANCH  21  23
HETATM   23  O   UNK N   1      21.699  17.628   6.632  0.00  0.00    -0.776 OA
HETATM   24  H   UNK N   1      20.834  17.831   6.927  0.00  0.00     0.167 HD
ENDBRANCH  21  23
ENDBRANCH  20  21
ENDBRANCH   3  20
BRANCH  11  25
HETATM   25  O   UNK N   1      21.792  20.816   2.327  0.00  0.00    -0.356 OA
HETATM   26  C   UNK N   1      21.069  20.139   1.372  0.00  0.00     0.210 C 
ENDBRANCH  11  25
TORSDOF 5
ENDMDL
MODEL 9
REMARK VINA RESULT:      -6.5     15.732     19.038
REMARK  5 active torsions:
REMARK  status: ('A' for Active; 'I' for Inactive)
REMARK    1  A    between atoms: O_2  and  C_16 
REMARK    2  A    between atoms: O_4  and  C_19 
REMARK       I    between atoms: N_6  and  C_15 
REMARK    3  A    between atoms: C_7  and  C_11 
REMARK    4  A    between atoms: C_11  and  C_19 
REMARK    5  A    between atoms: C_15  and  C_18 
ROOT
HETATM    1  O   UNK N   1      34.356  17.072  10.026  0.00  0.00    -0.267 OA
HETATM    2  N   UNK N   1      34.350  14.846   9.622  0.00  0.00    -0.281 N 
HETATM    3  C   UNK N   1      34.464  12.585   9.797  0.00  0.00    -0.013 A 
HETATM    4  C   UNK N   1      35.097  13.131  10.883  0.00  0.00     0.003 A 
HETATM    5  C   UNK N   1      35.010  14.496  10.765  0.00  0.00     0.053 A 
HETATM    6  C   UNK N   1      34.004  13.649   9.036  0.00  0.00     0.024 A 
HETATM    7  C   UNK N   1      35.725  12.514  11.961  0.00  0.00     0.051 A 
HETATM    8  C   UNK N   1      35.566  15.332  11.742  0.00  0.00     0.034 A 
HETATM    9  C   UNK N   1      33.174  13.423   7.819  0.00  0.00     0.069 C 
HETATM   10  C   UNK N   1      34.094  16.172   9.239  0.00  0.00     0.263 C 
HETATM   11  C   UNK N   1      36.283  13.324  12.962  0.00  0.00     0.069 A 
HETATM   12  C   UNK N   1      36.202  14.737  12.847  0.00  0.00     0.039 A 
ENDROOT
BRANCH  10  13
HETATM   13  C   UNK N   1      33.507  16.591   7.925  0.00  0.00     0.033 A 
HETATM   14  C   UNK N   1      34.346  16.676   6.799  0.00  0.00     0.018 A 
HETATM   15  C   UNK N   1      33.834  17.058   5.553  0.00  0.00     0.025 A 
HETATM   16  C   UNK N   1      32.472  17.328   5.412  0.00  0.00     0.034 A 
HETATM   17 Cl   UNK N   1      31.829  17.844   3.868  0.00  0.00    -0.084 Cl
HETATM   18  C   UNK N   1      31.621  17.192   6.508  0.00  0.00     0.025 A 
HETATM   19  C   UNK N   1      32.137  16.814   7.747  0.00  0.00     0.018 A 
ENDBRANCH  10  13
BRANCH   3  20
HETATM   20  C   UNK N   1      34.283  11.130   9.472  0.00  0.00     0.151 C 
BRANCH  20  21
HETATM   21  C   UNK N   1      33.070  10.536  10.114  0.00  0.00     0.143 C 
HETATM   22  O   UNK N   1      32.025  10.440   9.494  0.00  0.00    -0.650 OA
BRANCH  21  23
HETATM   23  O   UNK N   1      33.120  10.149  11.403  0.00  0.00    -0.776 OA
HETATM   24  H   UNK N   1      33.606  10.457  12.143  0.00  0.00     0.167 HD
ENDBRANCH  21  23
ENDBRANCH  20  21
ENDBRANCH   3  20
BRANCH  11  25
HETATM   25  O   UNK N   1      36.882  12.730  14.022  0.00  0.00    -0.356 OA
HETATM   26  C   UNK N   1      36.850  13.249  15.295  0.00  0.00     0.210 C 
ENDBRANCH  11  25
TORSDOF 5
ENDMDL
