MODEL 1
REMARK VINA RESULT:      -6.9      0.000      0.000
REMARK  5 active torsions:
REMARK  status: ('A' for Active; 'I' for Inactive)
REMARK    1  A    between atoms: S_1  and  C_10 
REMARK    2  A    between atoms: S_1  and  C_13 
REMARK    3  A    between atoms: O_2  and  C_15 
REMARK    4  A    between atoms: O_4  and  C_22 
REMARK    5  A    between atoms: C_10  and  C_11 
ROOT
HETATM    1  S   UNK N   1      30.197  16.942   8.332  0.00  0.00     0.090 S 
HETATM    2  O   UNK N   1      29.829  17.655   9.644  0.00  0.00    -0.249 OA
ENDROOT
BRANCH   1   3
HETATM    3  C   UNK N   1      31.651  18.005   8.080  0.00  0.00     0.175 C 
BRANCH   3   4
HETATM    4  C   UNK N   1      32.854  17.141   8.211  0.00  0.00     0.029 A 
HETATM    5  N   UNK N   1      33.117  16.571   9.414  0.00  0.00    -0.367 N 
HETATM    6  C   UNK N   1      34.145  15.704   9.581  0.00  0.00     0.097 A 
ATOM      7  HN  UNK N   1      32.526  16.801  10.212  1.00  0.00     0.165 HD
HETATM    8  C   UNK N   1      34.965  15.356   8.508  0.00  0.00    -0.013 A 
HETATM    9  C   UNK N   1      34.729  15.942   7.232  0.00  0.00     0.083 A 
HETATM   10  C   UNK N   1      36.054  14.375   8.773  0.00  0.00     0.052 C 
HETATM   11  C   UNK N   1      33.667  16.850   7.099  0.00  0.00    -0.005 A 
HETATM   12  C   UNK N   1      33.391  17.480   5.767  0.00  0.00     0.053 C 
BRANCH   9  13
HETATM   13  O   UNK N   1      35.465  15.663   6.120  0.00  0.00    -0.355 OA
HETATM   14  C   UNK N   1      35.324  14.568   5.299  0.00  0.00     0.210 C 
ENDBRANCH   9  13
ENDBRANCH   3   4
ENDBRANCH   1   3
BRANCH   1  15
HETATM   15  C   UNK N   1      29.168  17.990   7.320  0.00  0.00     0.176 A 
HETATM   16  N   UNK N   1      29.046  17.864   5.973  0.00  0.00    -0.333 N 
HETATM   17  C   UNK N   1      28.204  18.846   5.640  0.00  0.00     0.063 A 
HETATM   18  H   UNK N   1      29.476  17.204   5.383  0.00  0.00     0.168 HD
HETATM   19  C   UNK N   1      27.834  19.536   6.751  0.00  0.00     0.061 A 
HETATM   20  C   UNK N   1      27.740  19.177   4.373  0.00  0.00     0.068 A 
HETATM   21  N   UNK N   1      28.434  19.011   7.828  0.00  0.00    -0.333 N 
HETATM   22  C   UNK N   1      26.966  20.617   6.698  0.00  0.00     0.035 A 
ATOM     23  HN  UNK N   1      28.357  19.308   8.800  1.00  0.00     0.168 HD
HETATM   24  C   UNK N   1      26.474  20.988   5.432  0.00  0.00     0.039 A 
HETATM   25  C   UNK N   1      26.860  20.270   4.262  0.00  0.00     0.070 A 
BRANCH  25  26
HETATM   26  O   UNK N   1      26.406  20.618   3.037  0.00  0.00    -0.356 OA
HETATM   27  C   UNK N   1      25.097  20.454   2.646  0.00  0.00     0.210 C 
ENDBRANCH  25  26
ENDBRANCH   1  15
TORSDOF 5
ENDMDL
MODEL 2
REMARK VINA RESULT:      -6.8      7.187     10.511
REMARK  5 active torsions:
REMARK  status: ('A' for Active; 'I' for Inactive)
REMARK    1  A    between atoms: S_1  and  C_10 
REMARK    2  A    between atoms: S_1  and  C_13 
REMARK    3  A    between atoms: O_2  and  C_15 
REMARK    4  A    between atoms: O_4  and  C_22 
REMARK    5  A    between atoms: C_10  and  C_11 
ROOT
HETATM    1  S   UNK N   1      36.573  12.785  13.786  0.00  0.00     0.090 S 
HETATM    2  O   UNK N   1      36.606  11.528  12.902  0.00  0.00    -0.249 OA
ENDROOT
BRANCH   1   3
HETATM    3  C   UNK N   1      34.934  12.362  14.450  0.00  0.00     0.175 C 
BRANCH   3   4
HETATM    4  C   UNK N   1      35.085  12.195  15.919  0.00  0.00     0.029 A 
HETATM    5  N   UNK N   1      35.144  13.306  16.697  0.00  0.00    -0.367 N 
HETATM    6  C   UNK N   1      35.193  13.227  18.048  0.00  0.00     0.097 A 
ATOM      7  HN  UNK N   1      35.151  14.223  16.252  1.00  0.00     0.165 HD
HETATM    8  C   UNK N   1      35.171  11.989  18.691  0.00  0.00    -0.013 A 
HETATM    9  C   UNK N   1      35.123  10.800  17.910  0.00  0.00     0.083 A 
HETATM   10  C   UNK N   1      35.200  11.993  20.180  0.00  0.00     0.052 C 
HETATM   11  C   UNK N   1      35.091  10.918  16.511  0.00  0.00    -0.005 A 
HETATM   12  C   UNK N   1      35.035   9.684  15.662  0.00  0.00     0.053 C 
BRANCH   9  13
HETATM   13  O   UNK N   1      35.088   9.544  18.439  0.00  0.00    -0.355 OA
HETATM   14  C   UNK N   1      33.993   8.916  18.982  0.00  0.00     0.210 C 
ENDBRANCH   9  13
ENDBRANCH   3   4
ENDBRANCH   1   3
BRANCH   1  15
HETATM   15  C   UNK N   1      35.868  13.820  12.515  0.00  0.00     0.176 A 
HETATM   16  N   UNK N   1      36.328  15.059  12.201  0.00  0.00    -0.333 N 
HETATM   17  C   UNK N   1      35.510  15.461  11.224  0.00  0.00     0.063 A 
HETATM   18  H   UNK N   1      37.086  15.545  12.598  0.00  0.00     0.168 HD
HETATM   19  C   UNK N   1      34.591  14.494  10.963  0.00  0.00     0.061 A 
HETATM   20  C   UNK N   1      35.528  16.670  10.541  0.00  0.00     0.068 A 
HETATM   21  N   UNK N   1      34.799  13.444  11.770  0.00  0.00    -0.333 N 
HETATM   22  C   UNK N   1      33.609  14.646   9.995  0.00  0.00     0.035 A 
ATOM     23  HN  UNK N   1      34.277  12.570  11.815  1.00  0.00     0.168 HD
HETATM   24  C   UNK N   1      33.590  15.858   9.280  0.00  0.00     0.039 A 
HETATM   25  C   UNK N   1      34.550  16.878   9.551  0.00  0.00     0.070 A 
BRANCH  25  26
HETATM   26  O   UNK N   1      34.541  18.053   8.881  0.00  0.00    -0.356 OA
HETATM   27  C   UNK N   1      33.883  18.232   7.687  0.00  0.00     0.210 C 
ENDBRANCH  25  26
ENDBRANCH   1  15
TORSDOF 5
ENDMDL
MODEL 3
REMARK VINA RESULT:      -6.8      4.996     10.246
REMARK  5 active torsions:
REMARK  status: ('A' for Active; 'I' for Inactive)
REMARK    1  A    between atoms: S_1  and  C_10 
REMARK    2  A    between atoms: S_1  and  C_13 
REMARK    3  A    between atoms: O_2  and  C_15 
REMARK    4  A    between atoms: O_4  and  C_22 
REMARK    5  A    between atoms: C_10  and  C_11 
ROOT
HETATM    1  S   UNK N   1      35.999  15.078  10.216  0.00  0.00     0.090 S 
HETATM    2  O   UNK N   1      36.568  16.424  10.693  0.00  0.00    -0.249 OA
ENDROOT
BRANCH   1   3
HETATM    3  C   UNK N   1      34.287  15.680  10.329  0.00  0.00     0.175 C 
BRANCH   3   4
HETATM    4  C   UNK N   1      33.893  16.142   8.971  0.00  0.00     0.029 A 
HETATM    5  N   UNK N   1      34.333  17.352   8.543  0.00  0.00    -0.367 N 
HETATM    6  C   UNK N   1      34.087  17.795   7.286  0.00  0.00     0.097 A 
ATOM      7  HN  UNK N   1      34.863  17.942   9.183  1.00  0.00     0.165 HD
HETATM    8  C   UNK N   1      33.377  17.008   6.380  0.00  0.00    -0.013 A 
HETATM    9  C   UNK N   1      32.887  15.737   6.796  0.00  0.00     0.083 A 
HETATM   10  C   UNK N   1      33.173  17.559   5.011  0.00  0.00     0.052 C 
HETATM   11  C   UNK N   1      33.145  15.317   8.110  0.00  0.00    -0.005 A 
HETATM   12  C   UNK N   1      32.647  13.982   8.575  0.00  0.00     0.053 C 
BRANCH   9  13
HETATM   13  O   UNK N   1      32.192  14.889   5.986  0.00  0.00    -0.355 OA
HETATM   14  C   UNK N   1      30.838  14.910   5.749  0.00  0.00     0.210 C 
ENDBRANCH   9  13
ENDBRANCH   3   4
ENDBRANCH   1   3
BRANCH   1  15
HETATM   15  C   UNK N   1      35.933  14.375  11.854  0.00  0.00     0.176 A 
HETATM   16  N   UNK N   1      35.156  13.315  12.196  0.00  0.00    -0.333 N 
HETATM   17  C   UNK N   1      35.409  13.144  13.496  0.00  0.00     0.063 A 
HETATM   18  H   UNK N   1      34.549  12.795  11.621  0.00  0.00     0.168 HD
HETATM   19  C   UNK N   1      36.309  14.071  13.918  0.00  0.00     0.061 A 
HETATM   20  C   UNK N   1      34.867  12.194  14.352  0.00  0.00     0.068 A 
HETATM   21  N   UNK N   1      36.656  14.862  12.892  0.00  0.00    -0.333 N 
HETATM   22  C   UNK N   1      36.752  14.132  15.232  0.00  0.00     0.035 A 
ATOM     23  HN  UNK N   1      37.308  15.645  12.893  1.00  0.00     0.168 HD
HETATM   24  C   UNK N   1      36.226  13.187  16.134  0.00  0.00     0.039 A 
HETATM   25  C   UNK N   1      35.279  12.214  15.698  0.00  0.00     0.070 A 
BRANCH  25  26
HETATM   26  O   UNK N   1      34.754  11.306  16.553  0.00  0.00    -0.356 OA
HETATM   27  C   UNK N   1      35.411  10.869  17.680  0.00  0.00     0.210 C 
ENDBRANCH  25  26
ENDBRANCH   1  15
TORSDOF 5
ENDMDL
MODEL 4
REMARK VINA RESULT:      -6.7      2.821      4.230
REMARK  5 active torsions:
REMARK  status: ('A' for Active; 'I' for Inactive)
REMARK    1  A    between atoms: S_1  and  C_10 
REMARK    2  A    between atoms: S_1  and  C_13 
REMARK    3  A    between atoms: O_2  and  C_15 
REMARK    4  A    between atoms: O_4  and  C_22 
REMARK    5  A    between atoms: C_10  and  C_11 
ROOT
HETATM    1  S   UNK N   1      34.249  17.854   7.960  0.00  0.00     0.090 S 
HETATM    2  O   UNK N   1      34.357  18.058   6.441  0.00  0.00    -0.249 OA
ENDROOT
BRANCH   1   3
HETATM    3  C   UNK N   1      34.526  16.063   7.812  0.00  0.00     0.175 C 
BRANCH   3   4
HETATM    4  C   UNK N   1      34.965  15.574   9.145  0.00  0.00     0.029 A 
HETATM    5  N   UNK N   1      35.298  16.485  10.094  0.00  0.00    -0.367 N 
HETATM    6  C   UNK N   1      35.621  16.113  11.356  0.00  0.00     0.097 A 
ATOM      7  HN  UNK N   1      35.304  17.476   9.851  1.00  0.00     0.165 HD
HETATM    8  C   UNK N   1      35.610  14.769  11.727  0.00  0.00    -0.013 A 
HETATM    9  C   UNK N   1      35.279  13.781  10.756  0.00  0.00     0.083 A 
HETATM   10  C   UNK N   1      35.952  14.449  13.141  0.00  0.00     0.052 C 
HETATM   11  C   UNK N   1      34.967  14.201   9.454  0.00  0.00    -0.005 A 
HETATM   12  C   UNK N   1      34.609  13.185   8.411  0.00  0.00     0.053 C 
BRANCH   9  13
HETATM   13  O   UNK N   1      35.230  12.445  11.019  0.00  0.00    -0.355 OA
HETATM   14  C   UNK N   1      36.302  11.587  11.097  0.00  0.00     0.210 C 
ENDBRANCH   9  13
ENDBRANCH   3   4
ENDBRANCH   1   3
BRANCH   1  15
HETATM   15  C   UNK N   1      32.477  17.652   7.941  0.00  0.00     0.176 A 
HETATM   16  N   UNK N   1      31.769  17.254   6.852  0.00  0.00    -0.333 N 
HETATM   17  C   UNK N   1      30.504  17.254   7.281  0.00  0.00     0.063 A 
HETATM   18  H   UNK N   1      32.108  17.020   5.958  0.00  0.00     0.168 HD
HETATM   19  C   UNK N   1      30.457  17.640   8.584  0.00  0.00     0.061 A 
HETATM   20  C   UNK N   1      29.360  16.932   6.562  0.00  0.00     0.068 A 
HETATM   21  N   UNK N   1      31.697  17.897   9.022  0.00  0.00    -0.333 N 
HETATM   22  C   UNK N   1      29.264  17.735   9.287  0.00  0.00     0.035 A 
ATOM     23  HN  UNK N   1      31.986  18.204   9.950  1.00  0.00     0.168 HD
HETATM   24  C   UNK N   1      28.080  17.419   8.594  0.00  0.00     0.039 A 
HETATM   25  C   UNK N   1      28.122  17.017   7.227  0.00  0.00     0.070 A 
BRANCH  25  26
HETATM   26  O   UNK N   1      26.994  16.721   6.542  0.00  0.00    -0.356 OA
HETATM   27  C   UNK N   1      26.615  17.381   5.396  0.00  0.00     0.210 C 
ENDBRANCH  25  26
ENDBRANCH   1  15
TORSDOF 5
ENDMDL
MODEL 5
REMARK VINA RESULT:      -6.7      3.369      9.834
REMARK  5 active torsions:
REMARK  status: ('A' for Active; 'I' for Inactive)
REMARK    1  A    between atoms: S_1  and  C_10 
REMARK    2  A    between atoms: S_1  and  C_13 
REMARK    3  A    between atoms: O_2  and  C_15 
REMARK    4  A    between atoms: O_4  and  C_22 
REMARK    5  A    between atoms: C_10  and  C_11 
ROOT
HETATM    1  S   UNK N   1      26.687  19.683   4.479  0.00  0.00     0.090 S 
HETATM    2  O   UNK N   1      26.027  20.750   5.367  0.00  0.00    -0.249 OA
ENDROOT
BRANCH   1   3
HETATM    3  C   UNK N   1      25.342  18.497   4.783  0.00  0.00     0.175 C 
BRANCH   3   4
HETATM    4  C   UNK N   1      24.108  19.067   4.181  0.00  0.00     0.029 A 
HETATM    5  N   UNK N   1      24.228  20.102   3.312  0.00  0.00    -0.367 N 
HETATM    6  C   UNK N   1      23.155  20.612   2.660  0.00  0.00     0.097 A 
ATOM      7  HN  UNK N   1      25.149  20.506   3.145  1.00  0.00     0.165 HD
HETATM    8  C   UNK N   1      21.883  20.075   2.853  0.00  0.00    -0.013 A 
HETATM    9  C   UNK N   1      21.714  18.996   3.767  0.00  0.00     0.083 A 
HETATM   10  C   UNK N   1      20.763  20.676   2.077  0.00  0.00     0.052 C 
HETATM   11  C   UNK N   1      22.844  18.505   4.439  0.00  0.00    -0.005 A 
HETATM   12  C   UNK N   1      22.699  17.367   5.404  0.00  0.00     0.053 C 
BRANCH   9  13
HETATM   13  O   UNK N   1      20.517  18.395   4.021  0.00  0.00    -0.355 OA
HETATM   14  C   UNK N   1      19.900  17.442   3.245  0.00  0.00     0.210 C 
ENDBRANCH   9  13
ENDBRANCH   3   4
ENDBRANCH   1   3
BRANCH   1  15
HETATM   15  C   UNK N   1      27.676  19.007   5.800  0.00  0.00     0.176 A 
HETATM   16  N   UNK N   1      28.754  18.203   5.608  0.00  0.00    -0.333 N 
HETATM   17  C   UNK N   1      29.169  17.931   6.848  0.00  0.00     0.063 A 
HETATM   18  H   UNK N   1      29.139  17.895   4.756  0.00  0.00     0.168 HD
HETATM   19  C   UNK N   1      28.366  18.551   7.752  0.00  0.00     0.061 A 
HETATM   20  C   UNK N   1      30.242  17.136   7.232  0.00  0.00     0.068 A 
HETATM   21  N   UNK N   1      27.413  19.240   7.109  0.00  0.00    -0.333 N 
HETATM   22  C   UNK N   1      28.563  18.438   9.121  0.00  0.00     0.035 A 
ATOM     23  HN  UNK N   1      26.665  19.805   7.510  1.00  0.00     0.168 HD
HETATM   24  C   UNK N   1      29.639  17.639   9.553  0.00  0.00     0.039 A 
HETATM   25  C   UNK N   1      30.483  16.982   8.610  0.00  0.00     0.070 A 
BRANCH  25  26
HETATM   26  O   UNK N   1      31.515  16.203   9.007  0.00  0.00    -0.356 OA
HETATM   27  C   UNK N   1      32.326  15.525   8.127  0.00  0.00     0.210 C 
ENDBRANCH  25  26
ENDBRANCH   1  15
TORSDOF 5
ENDMDL
MODEL 6
REMARK VINA RESULT:      -6.7      5.150     10.100
REMARK  5 active torsions:
REMARK  status: ('A' for Active; 'I' for Inactive)
REMARK    1  A    between atoms: S_1  and  C_10 
REMARK    2  A    between atoms: S_1  and  C_13 
REMARK    3  A    between atoms: O_2  and  C_15 
REMARK    4  A    between atoms: O_4  and  C_22 
REMARK    5  A    between atoms: C_10  and  C_11 
ROOT
HETATM    1  S   UNK N   1      36.503  14.983  10.281  0.00  0.00     0.090 S 
HETATM    2  O   UNK N   1      36.580  16.378  10.920  0.00  0.00    -0.249 OA
ENDROOT
BRANCH   1   3
HETATM    3  C   UNK N   1      34.770  15.227   9.786  0.00  0.00     0.175 C 
BRANCH   3   4
HETATM    4  C   UNK N   1      34.725  15.166   8.301  0.00  0.00     0.029 A 
HETATM    5  N   UNK N   1      34.825  13.956   7.696  0.00  0.00    -0.367 N 
HETATM    6  C   UNK N   1      34.703  13.819   6.354  0.00  0.00     0.097 A 
ATOM      7  HN  UNK N   1      34.995  13.128   8.267  1.00  0.00     0.165 HD
HETATM    8  C   UNK N   1      34.457  14.927   5.544  0.00  0.00    -0.013 A 
HETATM    9  C   UNK N   1      34.359  16.217   6.140  0.00  0.00     0.083 A 
HETATM   10  C   UNK N   1      34.310  14.684   4.082  0.00  0.00     0.052 C 
HETATM   11  C   UNK N   1      34.508  16.324   7.531  0.00  0.00    -0.005 A 
HETATM   12  C   UNK N   1      34.404  17.668   8.188  0.00  0.00     0.053 C 
BRANCH   9  13
HETATM   13  O   UNK N   1      34.111  17.360   5.440  0.00  0.00    -0.355 OA
HETATM   14  C   UNK N   1      32.924  17.711   4.841  0.00  0.00     0.210 C 
ENDBRANCH   9  13
ENDBRANCH   3   4
ENDBRANCH   1   3
BRANCH   1  15
HETATM   15  C   UNK N   1      36.029  14.170  11.796  0.00  0.00     0.176 A 
HETATM   16  N   UNK N   1      36.437  14.563  13.031  0.00  0.00    -0.333 N 
HETATM   17  C   UNK N   1      35.862  13.678  13.850  0.00  0.00     0.063 A 
HETATM   18  H   UNK N   1      37.020  15.321  13.266  0.00  0.00     0.168 HD
HETATM   19  C   UNK N   1      35.133  12.786  13.129  0.00  0.00     0.061 A 
HETATM   20  C   UNK N   1      35.957  13.612  15.234  0.00  0.00     0.068 A 
HETATM   21  N   UNK N   1      35.224  13.079  11.824  0.00  0.00    -0.333 N 
HETATM   22  C   UNK N   1      34.430  11.748  13.725  0.00  0.00     0.035 A 
ATOM     23  HN  UNK N   1      34.792  12.595  11.038  1.00  0.00     0.168 HD
HETATM   24  C   UNK N   1      34.501  11.643  15.127  0.00  0.00     0.039 A 
HETATM   25  C   UNK N   1      35.267  12.574  15.889  0.00  0.00     0.070 A 
BRANCH  25  26
HETATM   26  O   UNK N   1      35.356  12.483  17.236  0.00  0.00    -0.356 OA
HETATM   27  C   UNK N   1      35.171  13.557  18.075  0.00  0.00     0.210 C 
ENDBRANCH  25  26
ENDBRANCH   1  15
TORSDOF 5
ENDMDL
MODEL 7
REMARK VINA RESULT:      -6.6      1.922      2.708
REMARK  5 active torsions:
REMARK  status: ('A' for Active; 'I' for Inactive)
REMARK    1  A    between atoms: S_1  and  C_10 
REMARK    2  A    between atoms: S_1  and  C_13 
REMARK    3  A    between atoms: O_2  and  C_15 
REMARK    4  A    between atoms: O_4  and  C_22 
REMARK    5  A    between atoms: C_10  and  C_11 
ROOT
HETATM    1  S   UNK N   1      28.223  17.472   6.914  0.00  0.00     0.090 S 
HETATM    2  O   UNK N   1      28.717  18.739   7.630  0.00  0.00    -0.249 OA
ENDROOT
BRANCH   1   3
HETATM    3  C   UNK N   1      29.648  17.469   5.784  0.00  0.00     0.175 C 
BRANCH   3   4
HETATM    4  C   UNK N   1      30.844  17.101   6.587  0.00  0.00     0.029 A 
HETATM    5  N   UNK N   1      30.669  16.719   7.877  0.00  0.00    -0.367 N 
HETATM    6  C   UNK N   1      31.703  16.287   8.638  0.00  0.00     0.097 A 
ATOM      7  HN  UNK N   1      29.734  16.758   8.283  1.00  0.00     0.165 HD
HETATM    8  C   UNK N   1      32.991  16.208   8.110  0.00  0.00    -0.013 A 
HETATM    9  C   UNK N   1      33.219  16.612   6.764  0.00  0.00     0.083 A 
HETATM   10  C   UNK N   1      34.065  15.697   9.007  0.00  0.00     0.052 C 
HETATM   11  C   UNK N   1      32.128  17.072   6.010  0.00  0.00    -0.005 A 
HETATM   12  C   UNK N   1      32.335  17.499   4.588  0.00  0.00     0.053 C 
BRANCH   9  13
HETATM   13  O   UNK N   1      34.436  16.565   6.152  0.00  0.00    -0.355 OA
HETATM   14  C   UNK N   1      35.049  15.448   5.637  0.00  0.00     0.210 C 
ENDBRANCH   9  13
ENDBRANCH   3   4
ENDBRANCH   1   3
BRANCH   1  15
HETATM   15  C   UNK N   1      27.211  18.366   5.748  0.00  0.00     0.176 A 
HETATM   16  N   UNK N   1      25.864  18.229   5.648  0.00  0.00    -0.333 N 
HETATM   17  C   UNK N   1      25.535  19.061   4.656  0.00  0.00     0.063 A 
HETATM   18  H   UNK N   1      25.269  17.654   6.182  0.00  0.00     0.168 HD
HETATM   19  C   UNK N   1      26.649  19.675   4.178  0.00  0.00     0.061 A 
HETATM   20  C   UNK N   1      24.272  19.306   4.133  0.00  0.00     0.068 A 
HETATM   21  N   UNK N   1      27.724  19.249   4.856  0.00  0.00    -0.333 N 
HETATM   22  C   UNK N   1      26.603  20.591   3.136  0.00  0.00     0.035 A 
ATOM     23  HN  UNK N   1      28.698  19.524   4.731  1.00  0.00     0.168 HD
HETATM   24  C   UNK N   1      25.342  20.866   2.575  0.00  0.00     0.039 A 
HETATM   25  C   UNK N   1      24.169  20.223   3.070  0.00  0.00     0.070 A 
BRANCH  25  26
HETATM   26  O   UNK N   1      22.950  20.467   2.536  0.00  0.00    -0.356 OA
HETATM   27  C   UNK N   1      21.786  19.953   3.058  0.00  0.00     0.210 C 
ENDBRANCH  25  26
ENDBRANCH   1  15
TORSDOF 5
ENDMDL
MODEL 8
REMARK VINA RESULT:      -6.5      4.283      6.348
REMARK  5 active torsions:
REMARK  status: ('A' for Active; 'I' for Inactive)
REMARK    1  A    between atoms: S_1  and  C_10 
REMARK    2  A    between atoms: S_1  and  C_13 
REMARK    3  A    between atoms: O_2  and  C_15 
REMARK    4  A    between atoms: O_4  and  C_22 
REMARK    5  A    between atoms: C_10  and  C_11 
ROOT
HETATM    1  S   UNK N   1      35.271  16.391  10.783  0.00  0.00     0.090 S 
HETATM    2  O   UNK N   1      36.380  15.583  10.089  0.00  0.00    -0.249 OA
ENDROOT
BRANCH   1   3
HETATM    3  C   UNK N   1      34.342  14.885  11.208  0.00  0.00     0.175 C 
BRANCH   3   4
HETATM    4  C   UNK N   1      35.269  13.994  11.954  0.00  0.00     0.029 A 
HETATM    5  N   UNK N   1      35.866  14.470  13.076  0.00  0.00    -0.367 N 
HETATM    6  C   UNK N   1      36.651  13.685  13.852  0.00  0.00     0.097 A 
ATOM      7  HN  UNK N   1      35.719  15.443  13.342  1.00  0.00     0.165 HD
HETATM    8  C   UNK N   1      36.863  12.345  13.526  0.00  0.00    -0.013 A 
HETATM    9  C   UNK N   1      36.265  11.812  12.350  0.00  0.00     0.083 A 
HETATM   10  C   UNK N   1      37.718  11.546  14.448  0.00  0.00     0.052 C 
HETATM   11  C   UNK N   1      35.471  12.659  11.559  0.00  0.00    -0.005 A 
HETATM   12  C   UNK N   1      34.824  12.124  10.318  0.00  0.00     0.053 C 
BRANCH   9  13
HETATM   13  O   UNK N   1      36.401  10.517  11.948  0.00  0.00    -0.355 OA
HETATM   14  C   UNK N   1      37.478   9.974  11.288  0.00  0.00     0.210 C 
ENDBRANCH   9  13
ENDBRANCH   3   4
ENDBRANCH   1   3
BRANCH   1  15
HETATM   15  C   UNK N   1      34.330  16.633   9.288  0.00  0.00     0.176 A 
HETATM   16  N   UNK N   1      34.881  16.903   8.076  0.00  0.00    -0.333 N 
HETATM   17  C   UNK N   1      33.825  17.018   7.267  0.00  0.00     0.063 A 
HETATM   18  H   UNK N   1      35.835  16.992   7.849  0.00  0.00     0.168 HD
HETATM   19  C   UNK N   1      32.679  16.823   7.971  0.00  0.00     0.061 A 
HETATM   20  C   UNK N   1      33.821  17.301   5.907  0.00  0.00     0.068 A 
HETATM   21  N   UNK N   1      32.975  16.577   9.255  0.00  0.00    -0.333 N 
HETATM   22  C   UNK N   1      31.425  16.890   7.380  0.00  0.00     0.035 A 
ATOM     23  HN  UNK N   1      32.334  16.393  10.025  1.00  0.00     0.168 HD
HETATM   24  C   UNK N   1      31.376  17.177   6.003  0.00  0.00     0.039 A 
HETATM   25  C   UNK N   1      32.574  17.386   5.259  0.00  0.00     0.070 A 
BRANCH  25  26
HETATM   26  O   UNK N   1      32.545  17.673   3.938  0.00  0.00    -0.356 OA
HETATM   27  C   UNK N   1      31.964  16.849   3.003  0.00  0.00     0.210 C 
ENDBRANCH  25  26
ENDBRANCH   1  15
TORSDOF 5
ENDMDL
MODEL 9
REMARK VINA RESULT:      -6.4      7.234     10.462
REMARK  5 active torsions:
REMARK  status: ('A' for Active; 'I' for Inactive)
REMARK    1  A    between atoms: S_1  and  C_10 
REMARK    2  A    between atoms: S_1  and  C_13 
REMARK    3  A    between atoms: O_2  and  C_15 
REMARK    4  A    between atoms: O_4  and  C_22 
REMARK    5  A    between atoms: C_10  and  C_11 
ROOT
HETATM    1  S   UNK N   1      36.658  13.142  13.957  0.00  0.00     0.090 S 
HETATM    2  O   UNK N   1      36.710  11.844  13.136  0.00  0.00    -0.249 OA
ENDROOT
BRANCH   1   3
HETATM    3  C   UNK N   1      35.060  12.692  14.700  0.00  0.00     0.175 C 
BRANCH   3   4
HETATM    4  C   UNK N   1      35.330  11.649  15.724  0.00  0.00     0.029 A 
HETATM    5  N   UNK N   1      35.626  10.392  15.310  0.00  0.00    -0.367 N 
HETATM    6  C   UNK N   1      35.969   9.416  16.185  0.00  0.00     0.097 A 
ATOM      7  HN  UNK N   1      35.589  10.176  14.314  1.00  0.00     0.165 HD
HETATM    8  C   UNK N   1      36.043   9.679  17.552  0.00  0.00    -0.013 A 
HETATM    9  C   UNK N   1      35.727  10.983  18.028  0.00  0.00     0.083 A 
HETATM   10  C   UNK N   1      36.454   8.557  18.441  0.00  0.00     0.052 C 
HETATM   11  C   UNK N   1      35.359  11.966  17.096  0.00  0.00    -0.005 A 
HETATM   12  C   UNK N   1      35.026  13.349  17.566  0.00  0.00     0.053 C 
BRANCH   9  13
HETATM   13  O   UNK N   1      35.778  11.346  19.341  0.00  0.00    -0.355 OA
HETATM   14  C   UNK N   1      34.853  11.038  20.311  0.00  0.00     0.210 C 
ENDBRANCH   9  13
ENDBRANCH   3   4
ENDBRANCH   1   3
BRANCH   1  15
HETATM   15  C   UNK N   1      35.870  14.085  12.663  0.00  0.00     0.176 A 
HETATM   16  N   UNK N   1      34.765  13.674  11.988  0.00  0.00    -0.333 N 
HETATM   17  C   UNK N   1      34.538  14.665  11.122  0.00  0.00     0.063 A 
HETATM   18  H   UNK N   1      34.252  12.842  12.109  0.00  0.00     0.168 HD
HETATM   19  C   UNK N   1      35.476  15.637  11.275  0.00  0.00     0.061 A 
HETATM   20  C   UNK N   1      33.525  14.754  10.176  0.00  0.00     0.068 A 
HETATM   21  N   UNK N   1      36.331  15.290  12.247  0.00  0.00    -0.333 N 
HETATM   22  C   UNK N   1      35.486  16.787  10.498  0.00  0.00     0.035 A 
ATOM     23  HN  UNK N   1      37.138  15.809  12.592  1.00  0.00     0.168 HD
HETATM   24  C   UNK N   1      34.477  16.916   9.524  0.00  0.00     0.039 A 
HETATM   25  C   UNK N   1      33.493  15.899   9.357  0.00  0.00     0.070 A 
BRANCH  25  26
HETATM   26  O   UNK N   1      32.523  16.001   8.420  0.00  0.00    -0.356 OA
HETATM   27  C   UNK N   1      31.837  17.168   8.173  0.00  0.00     0.210 C 
ENDBRANCH  25  26
ENDBRANCH   1  15
TORSDOF 5
ENDMDL
