MODEL 1
REMARK VINA RESULT:      -7.0      0.000      0.000
REMARK  4 active torsions:
REMARK  status: ('A' for Active; 'I' for Inactive)
REMARK    1  A    between atoms: N_9  and  C_18 
REMARK    2  A    between atoms: C_10  and  C_16 
REMARK    3  A    between atoms: C_16  and  C_17 
REMARK    4  A    between atoms: C_20  and  C_23 
ROOT
HETATM    1  C   UNK N   1      28.806  24.205  -4.929  0.00  0.00     0.044 A 
HETATM    2  C   UNK N   1      27.444  24.143  -4.481  0.00  0.00     0.117 A 
HETATM    3  C   UNK N   1      29.122  23.654  -6.179  0.00  0.00     0.018 A 
HETATM    4  C   UNK N   1      26.835  23.007  -6.566  0.00  0.00     0.050 A 
HETATM    5  C   UNK N   1      26.486  23.543  -5.322  0.00  0.00     0.053 A 
HETATM    6  C   UNK N   1      28.159  23.063  -6.985  0.00  0.00     0.017 A 
ENDROOT
BRANCH   1   7
HETATM    7  C   UNK N   1      29.914  24.864  -4.168  0.00  0.00     0.180 C 
HETATM    8  O   UNK N   1      29.913  26.082  -4.064  0.00  0.00    -0.291 OA
BRANCH   7   9
HETATM    9  C   UNK N   1      31.035  24.062  -3.493  0.00  0.00     0.199 C 
HETATM   10  C   UNK N   1      30.599  22.892  -2.651  0.00  0.00     0.145 C 
HETATM   11  O   UNK N   1      30.257  23.069  -1.493  0.00  0.00    -0.297 OA
HETATM   12  C   UNK N   1      30.773  21.503  -3.157  0.00  0.00     0.080 C 
HETATM   13  C   UNK N   1      32.239  21.326  -3.494  0.00  0.00     0.015 C 
HETATM   14  C   UNK N   1      32.667  22.279  -4.609  0.00  0.00     0.080 C 
HETATM   15  C   UNK N   1      32.183  23.700  -4.430  0.00  0.00     0.145 C 
HETATM   16  O   UNK N   1      32.726  24.582  -5.076  0.00  0.00    -0.297 OA
ENDBRANCH   7   9
ENDBRANCH   1   7
BRANCH   2  17
HETATM   17  N   UNK N   1      27.010  24.582  -3.186  0.00  0.00    -0.115 N 
HETATM   18  O   UNK N   1      26.383  25.735  -3.071  0.00  0.00    -0.532 OA
HETATM   19  O   UNK N   1      27.053  23.859  -2.241  0.00  0.00    -0.532 OA
ENDBRANCH   2  17
BRANCH   4  20
HETATM   20  C   UNK N   1      25.813  22.343  -7.440  0.00  0.00     0.417 C 
HETATM   21  F   UNK N   1      26.445  21.422  -8.257  0.00  0.00    -0.166 F 
HETATM   22  F   UNK N   1      25.187  23.291  -8.229  0.00  0.00    -0.166 F 
HETATM   23  F   UNK N   1      24.857  21.687  -6.685  0.00  0.00    -0.166 F 
ENDBRANCH   4  20
TORSDOF 4
ENDMDL
MODEL 2
REMARK VINA RESULT:      -7.0     15.699     17.329
REMARK  4 active torsions:
REMARK  status: ('A' for Active; 'I' for Inactive)
REMARK    1  A    between atoms: N_9  and  C_18 
REMARK    2  A    between atoms: C_10  and  C_16 
REMARK    3  A    between atoms: C_16  and  C_17 
REMARK    4  A    between atoms: C_20  and  C_23 
ROOT
HETATM    1  C   UNK N   1      20.968  16.170   7.505  0.00  0.00     0.044 A 
HETATM    2  C   UNK N   1      20.062  15.944   8.595  0.00  0.00     0.117 A 
HETATM    3  C   UNK N   1      22.035  15.278   7.331  0.00  0.00     0.018 A 
HETATM    4  C   UNK N   1      21.353  13.959   9.226  0.00  0.00     0.050 A 
HETATM    5  C   UNK N   1      20.280  14.832   9.431  0.00  0.00     0.053 A 
HETATM    6  C   UNK N   1      22.231  14.194   8.175  0.00  0.00     0.017 A 
ENDROOT
BRANCH   1   7
HETATM    7  C   UNK N   1      20.824  17.274   6.504  0.00  0.00     0.180 C 
HETATM    8  O   UNK N   1      21.133  18.410   6.832  0.00  0.00    -0.291 OA
BRANCH   7   9
HETATM    9  C   UNK N   1      20.327  17.024   5.074  0.00  0.00     0.199 C 
HETATM   10  C   UNK N   1      21.391  16.842   4.024  0.00  0.00     0.145 C 
HETATM   11  O   UNK N   1      21.900  17.819   3.497  0.00  0.00    -0.297 OA
HETATM   12  C   UNK N   1      21.683  15.487   3.484  0.00  0.00     0.080 C 
HETATM   13  C   UNK N   1      20.382  14.927   2.944  0.00  0.00     0.015 C 
HETATM   14  C   UNK N   1      19.348  14.767   4.057  0.00  0.00     0.080 C 
HETATM   15  C   UNK N   1      19.237  15.961   4.978  0.00  0.00     0.145 C 
HETATM   16  O   UNK N   1      18.244  16.061   5.680  0.00  0.00    -0.297 OA
ENDBRANCH   7   9
ENDBRANCH   1   7
BRANCH   2  17
HETATM   17  N   UNK N   1      18.990  16.834   8.938  0.00  0.00    -0.115 N 
HETATM   18  O   UNK N   1      17.749  16.391   8.911  0.00  0.00    -0.532 OA
HETATM   19  O   UNK N   1      19.203  17.909   9.404  0.00  0.00    -0.532 OA
ENDBRANCH   2  17
BRANCH   4  20
HETATM   20  C   UNK N   1      21.595  12.796  10.142  0.00  0.00     0.417 C 
HETATM   21  F   UNK N   1      21.935  11.687   9.386  0.00  0.00    -0.166 F 
HETATM   22  F   UNK N   1      20.444  12.519  10.856  0.00  0.00    -0.166 F 
HETATM   23  F   UNK N   1      22.622  13.061  11.031  0.00  0.00    -0.166 F 
ENDBRANCH   4  20
TORSDOF 4
ENDMDL
MODEL 3
REMARK VINA RESULT:      -7.0     14.687     16.856
REMARK  4 active torsions:
REMARK  status: ('A' for Active; 'I' for Inactive)
REMARK    1  A    between atoms: N_9  and  C_18 
REMARK    2  A    between atoms: C_10  and  C_16 
REMARK    3  A    between atoms: C_16  and  C_17 
REMARK    4  A    between atoms: C_20  and  C_23 
ROOT
HETATM    1  C   UNK N   1      33.326  15.971   8.567  0.00  0.00     0.044 A 
HETATM    2  C   UNK N   1      33.156  17.339   8.167  0.00  0.00     0.117 A 
HETATM    3  C   UNK N   1      32.259  15.328   9.208  0.00  0.00     0.018 A 
HETATM    4  C   UNK N   1      30.876  17.293   9.064  0.00  0.00     0.050 A 
HETATM    5  C   UNK N   1      31.922  17.967   8.425  0.00  0.00     0.053 A 
HETATM    6  C   UNK N   1      31.055  15.972   9.457  0.00  0.00     0.017 A 
ENDROOT
BRANCH   1   7
HETATM    7  C   UNK N   1      34.559  15.163   8.304  0.00  0.00     0.180 C 
HETATM    8  O   UNK N   1      34.823  14.851   7.152  0.00  0.00    -0.291 OA
BRANCH   7   9
HETATM    9  C   UNK N   1      35.515  14.736   9.426  0.00  0.00     0.199 C 
HETATM   10  C   UNK N   1      35.651  15.693  10.581  0.00  0.00     0.145 C 
HETATM   11  O   UNK N   1      36.427  16.633  10.505  0.00  0.00    -0.297 OA
HETATM   12  C   UNK N   1      34.998  15.389  11.883  0.00  0.00     0.080 C 
HETATM   13  C   UNK N   1      35.496  14.030  12.331  0.00  0.00     0.015 C 
HETATM   14  C   UNK N   1      35.084  12.940  11.343  0.00  0.00     0.080 C 
HETATM   15  C   UNK N   1      35.314  13.298   9.892  0.00  0.00     0.145 C 
HETATM   16  O   UNK N   1      35.320  12.398   9.067  0.00  0.00    -0.297 OA
ENDBRANCH   7   9
ENDBRANCH   1   7
BRANCH   2  17
HETATM   17  N   UNK N   1      34.200  18.137   7.591  0.00  0.00    -0.115 N 
HETATM   18  O   UNK N   1      34.930  18.907   8.373  0.00  0.00    -0.532 OA
HETATM   19  O   UNK N   1      34.532  17.996   6.457  0.00  0.00    -0.532 OA
ENDBRANCH   2  17
BRANCH   4  20
HETATM   20  C   UNK N   1      29.576  17.980   9.362  0.00  0.00     0.417 C 
HETATM   21  F   UNK N   1      29.059  18.502   8.190  0.00  0.00    -0.166 F 
HETATM   22  F   UNK N   1      29.789  19.011  10.259  0.00  0.00    -0.166 F 
HETATM   23  F   UNK N   1      28.655  17.100   9.902  0.00  0.00    -0.166 F 
ENDBRANCH   4  20
TORSDOF 4
ENDMDL
MODEL 4
REMARK VINA RESULT:      -7.0     15.698     17.247
REMARK  4 active torsions:
REMARK  status: ('A' for Active; 'I' for Inactive)
REMARK    1  A    between atoms: N_9  and  C_18 
REMARK    2  A    between atoms: C_10  and  C_16 
REMARK    3  A    between atoms: C_16  and  C_17 
REMARK    4  A    between atoms: C_20  and  C_23 
ROOT
HETATM    1  C   UNK N   1      20.138  15.162   7.166  0.00  0.00     0.044 A 
HETATM    2  C   UNK N   1      19.900  15.426   8.557  0.00  0.00     0.117 A 
HETATM    3  C   UNK N   1      20.913  14.045   6.825  0.00  0.00     0.018 A 
HETATM    4  C   UNK N   1      21.209  13.437   9.135  0.00  0.00     0.050 A 
HETATM    5  C   UNK N   1      20.444  14.546   9.512  0.00  0.00     0.053 A 
HETATM    6  C   UNK N   1      21.444  13.197   7.787  0.00  0.00     0.017 A 
ENDROOT
BRANCH   1   7
HETATM    7  C   UNK N   1      19.573  15.976   6.044  0.00  0.00     0.180 C 
HETATM    8  O   UNK N   1      18.374  15.911   5.815  0.00  0.00    -0.291 OA
BRANCH   7   9
HETATM    9  C   UNK N   1      20.442  16.910   5.191  0.00  0.00     0.199 C 
HETATM   10  C   UNK N   1      21.621  17.539   5.886  0.00  0.00     0.145 C 
HETATM   11  O   UNK N   1      21.469  18.555   6.544  0.00  0.00    -0.297 OA
HETATM   12  C   UNK N   1      22.998  17.044   5.614  0.00  0.00     0.080 C 
HETATM   13  C   UNK N   1      23.223  17.137   4.118  0.00  0.00     0.015 C 
HETATM   14  C   UNK N   1      22.251  16.235   3.358  0.00  0.00     0.080 C 
HETATM   15  C   UNK N   1      20.818  16.329   3.832  0.00  0.00     0.145 C 
HETATM   16  O   UNK N   1      19.937  15.907   3.100  0.00  0.00    -0.297 OA
ENDBRANCH   7   9
ENDBRANCH   1   7
BRANCH   2  17
HETATM   17  N   UNK N   1      19.207  16.586   9.040  0.00  0.00    -0.115 N 
HETATM   18  O   UNK N   1      19.854  17.730   9.139  0.00  0.00    -0.532 OA
HETATM   19  O   UNK N   1      18.026  16.582   9.195  0.00  0.00    -0.532 OA
ENDBRANCH   2  17
BRANCH   4  20
HETATM   20  C   UNK N   1      21.811  12.523  10.162  0.00  0.00     0.417 C 
HETATM   21  F   UNK N   1      22.808  13.200  10.843  0.00  0.00    -0.166 F 
HETATM   22  F   UNK N   1      22.361  11.419   9.537  0.00  0.00    -0.166 F 
HETATM   23  F   UNK N   1      20.860  12.096  11.072  0.00  0.00    -0.166 F 
ENDBRANCH   4  20
TORSDOF 4
ENDMDL
MODEL 5
REMARK VINA RESULT:      -6.9     13.246     14.765
REMARK  4 active torsions:
REMARK  status: ('A' for Active; 'I' for Inactive)
REMARK    1  A    between atoms: N_9  and  C_18 
REMARK    2  A    between atoms: C_10  and  C_16 
REMARK    3  A    between atoms: C_16  and  C_17 
REMARK    4  A    between atoms: C_20  and  C_23 
ROOT
HETATM    1  C   UNK N   1      32.217  17.283   6.450  0.00  0.00     0.044 A 
HETATM    2  C   UNK N   1      32.657  17.675   7.759  0.00  0.00     0.117 A 
HETATM    3  C   UNK N   1      30.839  17.176   6.215  0.00  0.00     0.018 A 
HETATM    4  C   UNK N   1      30.317  17.832   8.471  0.00  0.00     0.050 A 
HETATM    5  C   UNK N   1      31.685  17.944   8.742  0.00  0.00     0.053 A 
HETATM    6  C   UNK N   1      29.903  17.441   7.204  0.00  0.00     0.017 A 
ENDROOT
BRANCH   1   7
HETATM    7  C   UNK N   1      33.135  17.025   5.295  0.00  0.00     0.180 C 
HETATM    8  O   UNK N   1      33.459  17.961   4.580  0.00  0.00    -0.291 OA
BRANCH   7   9
HETATM    9  C   UNK N   1      33.702  15.630   4.995  0.00  0.00     0.199 C 
HETATM   10  C   UNK N   1      34.679  15.081   6.001  0.00  0.00     0.145 C 
HETATM   11  O   UNK N   1      35.858  15.391   5.936  0.00  0.00    -0.297 OA
HETATM   12  C   UNK N   1      34.256  14.012   6.946  0.00  0.00     0.080 C 
HETATM   13  C   UNK N   1      33.730  12.859   6.116  0.00  0.00     0.015 C 
HETATM   14  C   UNK N   1      32.499  13.276   5.311  0.00  0.00     0.080 C 
HETATM   15  C   UNK N   1      32.641  14.606   4.605  0.00  0.00     0.145 C 
HETATM   16  O   UNK N   1      31.863  14.867   3.702  0.00  0.00    -0.297 OA
ENDBRANCH   7   9
ENDBRANCH   1   7
BRANCH   2  17
HETATM   17  N   UNK N   1      34.035  17.728   8.154  0.00  0.00    -0.115 N 
HETATM   18  O   UNK N   1      34.810  18.678   7.669  0.00  0.00    -0.532 OA
HETATM   19  O   UNK N   1      34.454  17.042   9.032  0.00  0.00    -0.532 OA
ENDBRANCH   2  17
BRANCH   4  20
HETATM   20  C   UNK N   1      29.290  18.091   9.535  0.00  0.00     0.417 C 
HETATM   21  F   UNK N   1      29.774  19.050  10.408  0.00  0.00    -0.166 F 
HETATM   22  F   UNK N   1      29.042  16.925  10.236  0.00  0.00    -0.166 F 
HETATM   23  F   UNK N   1      28.104  18.545   8.986  0.00  0.00    -0.166 F 
ENDBRANCH   4  20
TORSDOF 4
ENDMDL
MODEL 6
REMARK VINA RESULT:      -6.8      3.972      6.056
REMARK  4 active torsions:
REMARK  status: ('A' for Active; 'I' for Inactive)
REMARK    1  A    between atoms: N_9  and  C_18 
REMARK    2  A    between atoms: C_10  and  C_16 
REMARK    3  A    between atoms: C_16  and  C_17 
REMARK    4  A    between atoms: C_20  and  C_23 
ROOT
HETATM    1  C   UNK N   1      27.044  24.507  -4.610  0.00  0.00     0.044 A 
HETATM    2  C   UNK N   1      28.146  24.098  -5.433  0.00  0.00     0.117 A 
HETATM    3  C   UNK N   1      27.122  24.273  -3.230  0.00  0.00     0.018 A 
HETATM    4  C   UNK N   1      29.304  23.276  -3.436  0.00  0.00     0.050 A 
HETATM    5  C   UNK N   1      29.258  23.491  -4.817  0.00  0.00     0.053 A 
HETATM    6  C   UNK N   1      28.227  23.666  -2.649  0.00  0.00     0.017 A 
ENDROOT
BRANCH   1   7
HETATM    7  C   UNK N   1      25.828  25.216  -5.120  0.00  0.00     0.180 C 
HETATM    8  O   UNK N   1      24.840  24.556  -5.408  0.00  0.00    -0.291 OA
BRANCH   7   9
HETATM    9  C   UNK N   1      25.770  26.742  -5.267  0.00  0.00     0.199 C 
HETATM   10  C   UNK N   1      26.191  27.542  -4.062  0.00  0.00     0.145 C 
HETATM   11  O   UNK N   1      25.389  27.765  -3.169  0.00  0.00    -0.297 OA
HETATM   12  C   UNK N   1      27.512  28.226  -4.045  0.00  0.00     0.080 C 
HETATM   13  C   UNK N   1      27.566  29.132  -5.259  0.00  0.00     0.015 C 
HETATM   14  C   UNK N   1      27.482  28.324  -6.553  0.00  0.00     0.080 C 
HETATM   15  C   UNK N   1      26.408  27.261  -6.552  0.00  0.00     0.145 C 
HETATM   16  O   UNK N   1      26.055  26.793  -7.623  0.00  0.00    -0.297 OA
ENDBRANCH   7   9
ENDBRANCH   1   7
BRANCH   2  17
HETATM   17  N   UNK N   1      28.149  24.194  -6.865  0.00  0.00    -0.115 N 
HETATM   18  O   UNK N   1      28.977  25.034  -7.454  0.00  0.00    -0.532 OA
HETATM   19  O   UNK N   1      27.547  23.419  -7.538  0.00  0.00    -0.532 OA
ENDBRANCH   2  17
BRANCH   4  20
HETATM   20  C   UNK N   1      30.479  22.601  -2.793  0.00  0.00     0.417 C 
HETATM   21  F   UNK N   1      30.400  22.760  -1.421  0.00  0.00    -0.166 F 
HETATM   22  F   UNK N   1      31.652  23.175  -3.247  0.00  0.00    -0.166 F 
HETATM   23  F   UNK N   1      30.501  21.248  -3.084  0.00  0.00    -0.166 F 
ENDBRANCH   4  20
TORSDOF 4
ENDMDL
MODEL 7
REMARK VINA RESULT:      -6.8     15.773     17.414
REMARK  4 active torsions:
REMARK  status: ('A' for Active; 'I' for Inactive)
REMARK    1  A    between atoms: N_9  and  C_18 
REMARK    2  A    between atoms: C_10  and  C_16 
REMARK    3  A    between atoms: C_16  and  C_17 
REMARK    4  A    between atoms: C_20  and  C_23 
ROOT
HETATM    1  C   UNK N   1      20.597  14.927   7.365  0.00  0.00     0.044 A 
HETATM    2  C   UNK N   1      20.168  15.168   8.713  0.00  0.00     0.117 A 
HETATM    3  C   UNK N   1      21.438  13.833   7.120  0.00  0.00     0.018 A 
HETATM    4  C   UNK N   1      21.438  13.204   9.443  0.00  0.00     0.050 A 
HETATM    5  C   UNK N   1      20.602  14.289   9.724  0.00  0.00     0.053 A 
HETATM    6  C   UNK N   1      21.857  12.986   8.137  0.00  0.00     0.017 A 
ENDROOT
BRANCH   1   7
HETATM    7  C   UNK N   1      20.167  15.742   6.184  0.00  0.00     0.180 C 
HETATM    8  O   UNK N   1      18.972  15.860   5.955  0.00  0.00    -0.291 OA
BRANCH   7   9
HETATM    9  C   UNK N   1      21.172  16.454   5.270  0.00  0.00     0.199 C 
HETATM   10  C   UNK N   1      21.076  16.134   3.801  0.00  0.00     0.145 C 
HETATM   11  O   UNK N   1      21.629  15.141   3.357  0.00  0.00    -0.297 OA
HETATM   12  C   UNK N   1      20.481  17.122   2.860  0.00  0.00     0.080 C 
HETATM   13  C   UNK N   1      21.256  18.415   3.015  0.00  0.00     0.015 C 
HETATM   14  C   UNK N   1      21.109  18.978   4.428  0.00  0.00     0.080 C 
HETATM   15  C   UNK N   1      21.282  17.953   5.526  0.00  0.00     0.145 C 
HETATM   16  O   UNK N   1      21.499  18.351   6.659  0.00  0.00    -0.297 OA
ENDBRANCH   7   9
ENDBRANCH   1   7
BRANCH   2  17
HETATM   17  N   UNK N   1      19.387  16.304   9.109  0.00  0.00    -0.115 N 
HETATM   18  O   UNK N   1      19.955  17.494   9.154  0.00  0.00    -0.532 OA
HETATM   19  O   UNK N   1      18.206  16.230   9.236  0.00  0.00    -0.532 OA
ENDBRANCH   2  17
BRANCH   4  20
HETATM   20  C   UNK N   1      21.920  12.292  10.533  0.00  0.00     0.417 C 
HETATM   21  F   UNK N   1      20.855  11.962  11.353  0.00  0.00    -0.166 F 
HETATM   22  F   UNK N   1      22.886  12.934  11.285  0.00  0.00    -0.166 F 
HETATM   23  F   UNK N   1      22.458  11.128  10.012  0.00  0.00    -0.166 F 
ENDBRANCH   4  20
TORSDOF 4
ENDMDL
MODEL 8
REMARK VINA RESULT:      -6.8     13.673     15.124
REMARK  4 active torsions:
REMARK  status: ('A' for Active; 'I' for Inactive)
REMARK    1  A    between atoms: N_9  and  C_18 
REMARK    2  A    between atoms: C_10  and  C_16 
REMARK    3  A    between atoms: C_16  and  C_17 
REMARK    4  A    between atoms: C_20  and  C_23 
ROOT
HETATM    1  C   UNK N   1      32.403  17.384   7.433  0.00  0.00     0.044 A 
HETATM    2  C   UNK N   1      31.403  16.670   6.691  0.00  0.00     0.117 A 
HETATM    3  C   UNK N   1      31.989  18.196   8.498  0.00  0.00     0.018 A 
HETATM    4  C   UNK N   1      29.677  17.626   8.145  0.00  0.00     0.050 A 
HETATM    5  C   UNK N   1      30.055  16.809   7.073  0.00  0.00     0.053 A 
HETATM    6  C   UNK N   1      30.652  18.321   8.849  0.00  0.00     0.017 A 
ENDROOT
BRANCH   1   7
HETATM    7  C   UNK N   1      33.875  17.283   7.176  0.00  0.00     0.180 C 
HETATM    8  O   UNK N   1      34.374  18.000   6.321  0.00  0.00    -0.291 OA
BRANCH   7   9
HETATM    9  C   UNK N   1      34.782  16.331   7.968  0.00  0.00     0.199 C 
HETATM   10  C   UNK N   1      34.706  16.437   9.468  0.00  0.00     0.145 C 
HETATM   11  O   UNK N   1      35.365  17.282  10.053  0.00  0.00    -0.297 OA
HETATM   12  C   UNK N   1      33.991  15.395  10.254  0.00  0.00     0.080 C 
HETATM   13  C   UNK N   1      34.614  14.059   9.903  0.00  0.00     0.015 C 
HETATM   14  C   UNK N   1      34.420  13.733   8.423  0.00  0.00     0.080 C 
HETATM   15  C   UNK N   1      34.721  14.884   7.490  0.00  0.00     0.145 C 
HETATM   16  O   UNK N   1      34.904  14.638   6.308  0.00  0.00    -0.297 OA
ENDBRANCH   7   9
ENDBRANCH   1   7
BRANCH   2  17
HETATM   17  N   UNK N   1      31.685  15.885   5.524  0.00  0.00    -0.115 N 
HETATM   18  O   UNK N   1      32.064  16.489   4.415  0.00  0.00    -0.532 OA
HETATM   19  O   UNK N   1      31.748  14.697   5.577  0.00  0.00    -0.532 OA
ENDBRANCH   2  17
BRANCH   4  20
HETATM   20  C   UNK N   1      28.235  17.791   8.525  0.00  0.00     0.417 C 
HETATM   21  F   UNK N   1      28.095  17.569   9.883  0.00  0.00    -0.166 F 
HETATM   22  F   UNK N   1      27.463  16.874   7.835  0.00  0.00    -0.166 F 
HETATM   23  F   UNK N   1      27.783  19.066   8.233  0.00  0.00    -0.166 F 
ENDBRANCH   4  20
TORSDOF 4
ENDMDL
MODEL 9
REMARK VINA RESULT:      -6.7     15.785     17.465
REMARK  4 active torsions:
REMARK  status: ('A' for Active; 'I' for Inactive)
REMARK    1  A    between atoms: N_9  and  C_18 
REMARK    2  A    between atoms: C_10  and  C_16 
REMARK    3  A    between atoms: C_16  and  C_17 
REMARK    4  A    between atoms: C_20  and  C_23 
ROOT
HETATM    1  C   UNK N   1      21.731  14.976   7.512  0.00  0.00     0.044 A 
HETATM    2  C   UNK N   1      20.871  15.097   8.655  0.00  0.00     0.117 A 
HETATM    3  C   UNK N   1      22.682  13.946   7.501  0.00  0.00     0.018 A 
HETATM    4  C   UNK N   1      21.971  13.151   9.659  0.00  0.00     0.050 A 
HETATM    5  C   UNK N   1      21.013  14.170   9.705  0.00  0.00     0.053 A 
HETATM    6  C   UNK N   1      22.806  13.050   8.553  0.00  0.00     0.017 A 
ENDROOT
BRANCH   1   7
HETATM    7  C   UNK N   1      21.651  15.852   6.301  0.00  0.00     0.180 C 
HETATM    8  O   UNK N   1      22.255  16.915   6.301  0.00  0.00    -0.291 OA
BRANCH   7   9
HETATM    9  C   UNK N   1      20.858  15.450   5.050  0.00  0.00     0.199 C 
HETATM   10  C   UNK N   1      19.687  16.328   4.695  0.00  0.00     0.145 C 
HETATM   11  O   UNK N   1      18.606  16.147   5.233  0.00  0.00    -0.297 OA
HETATM   12  C   UNK N   1      19.785  17.279   3.555  0.00  0.00     0.080 C 
HETATM   13  C   UNK N   1      20.164  16.474   2.328  0.00  0.00     0.015 C 
HETATM   14  C   UNK N   1      21.533  15.819   2.501  0.00  0.00     0.080 C 
HETATM   15  C   UNK N   1      21.734  15.144   3.839  0.00  0.00     0.145 C 
HETATM   16  O   UNK N   1      22.643  14.337   3.950  0.00  0.00    -0.297 OA
ENDBRANCH   7   9
ENDBRANCH   1   7
BRANCH   2  17
HETATM   17  N   UNK N   1      19.925  16.161   8.832  0.00  0.00    -0.115 N 
HETATM   18  O   UNK N   1      18.652  15.871   9.017  0.00  0.00    -0.532 OA
HETATM   19  O   UNK N   1      20.281  17.288   8.981  0.00  0.00    -0.532 OA
ENDBRANCH   2  17
BRANCH   4  20
HETATM   20  C   UNK N   1      22.136  12.187  10.797  0.00  0.00     0.417 C 
HETATM   21  F   UNK N   1      23.024  12.718  11.716  0.00  0.00    -0.166 F 
HETATM   22  F   UNK N   1      22.638  10.989  10.324  0.00  0.00    -0.166 F 
HETATM   23  F   UNK N   1      20.929  11.949  11.432  0.00  0.00    -0.166 F 
ENDBRANCH   4  20
TORSDOF 4
ENDMDL
