REMARK  0 active torsions:
REMARK  status: ('A' for Active; 'I' for Inactive)
ROOT
HETATM    1  O   UNK N   1       2.190  -1.398  -0.000  0.00  0.00    -0.266 OA
HETATM    2  O   UNK N   1       6.657  -1.457   0.000  0.00  0.00    -0.247 OA
HETATM    3  N   UNK N   1       4.424  -1.498  -0.000  0.00  0.00    -0.274 N 
HETATM    4  N   UNK N   1       5.655   0.540  -0.000  0.00  0.00    -0.317 N 
HETATM    5  C   UNK N   1       3.297   0.588   0.000  0.00  0.00     0.100 A 
HETATM    6  C   UNK N   1       3.256  -0.803  -0.000  0.00  0.00     0.269 A 
HETATM    7  C   UNK N   1       4.510   1.253  -0.000  0.00  0.00     0.119 A 
HETATM    8  C   UNK N   1       5.621  -0.830  -0.000  0.00  0.00     0.327 A 
HETATM    9  C   UNK N   1       2.110   1.326  -0.000  0.00  0.00    -0.071 C 
HETATM   10  C   UNK N   1       1.071   1.907   0.000  0.00  0.00     0.018 C 
HETATM   11  H   UNK N   1       4.411  -2.482   0.000  0.00  0.00     0.173 HD
HETATM   12  H   UNK N   1       6.522   1.007  -0.000  0.00  0.00     0.170 HD
ENDROOT
TORSDOF 0
