MODEL 1
REMARK VINA RESULT:      -5.1      0.000      0.000
REMARK  0 active torsions:
REMARK  status: ('A' for Active; 'I' for Inactive)
ROOT
HETATM    1  O   UNK N   1      24.792  12.522   9.578  0.00  0.00    -0.266 OA
HETATM    2  O   UNK N   1      23.576  11.896  13.830  0.00  0.00    -0.247 OA
HETATM    3  N   UNK N   1      24.251  12.213  11.725  0.00  0.00    -0.274 N 
HETATM    4  N   UNK N   1      21.958  11.904  12.289  0.00  0.00    -0.317 N 
HETATM    5  C   UNK N   1      22.584  12.233  10.039  0.00  0.00     0.100 A 
HETATM    6  C   UNK N   1      23.921  12.332  10.412  0.00  0.00     0.269 A 
HETATM    7  C   UNK N   1      21.605  12.018  10.992  0.00  0.00     0.119 A 
HETATM    8  C   UNK N   1      23.273  12.000  12.662  0.00  0.00     0.327 A 
HETATM    9  C   UNK N   1      22.219  12.352   8.695  0.00  0.00    -0.071 C 
HETATM   10  C   UNK N   1      21.962  12.460   7.538  0.00  0.00     0.018 C 
HETATM   11  H   UNK N   1      25.192  12.281  12.004  0.00  0.00     0.173 HD
HETATM   12  H   UNK N   1      21.266  11.750  12.973  0.00  0.00     0.170 HD
ENDROOT
TORSDOF 0
ENDMDL
MODEL 2
REMARK VINA RESULT:      -5.0      1.504      2.189
REMARK  0 active torsions:
REMARK  status: ('A' for Active; 'I' for Inactive)
ROOT
HETATM    1  O   UNK N   1      20.129  12.322  10.855  0.00  0.00    -0.266 OA
HETATM    2  O   UNK N   1      23.569  11.778  13.654  0.00  0.00    -0.247 OA
HETATM    3  N   UNK N   1      21.805  12.039  12.308  0.00  0.00    -0.274 N 
HETATM    4  N   UNK N   1      24.043  12.204  11.512  0.00  0.00    -0.317 N 
HETATM    5  C   UNK N   1      22.238  12.494  10.022  0.00  0.00     0.100 A 
HETATM    6  C   UNK N   1      21.333  12.286  11.058  0.00  0.00     0.269 A 
HETATM    7  C   UNK N   1      23.600  12.450  10.262  0.00  0.00     0.119 A 
HETATM    8  C   UNK N   1      23.156  11.998  12.537  0.00  0.00     0.327 A 
HETATM    9  C   UNK N   1      21.778  12.749   8.727  0.00  0.00    -0.071 C 
HETATM   10  C   UNK N   1      21.334  12.963   7.643  0.00  0.00     0.018 C 
HETATM   11  H   UNK N   1      21.177  11.890  13.051  0.00  0.00     0.173 HD
HETATM   12  H   UNK N   1      25.011  12.171  11.690  0.00  0.00     0.170 HD
ENDROOT
TORSDOF 0
ENDMDL
MODEL 3
REMARK VINA RESULT:      -4.7     11.123     11.877
REMARK  0 active torsions:
REMARK  status: ('A' for Active; 'I' for Inactive)
ROOT
HETATM    1  O   UNK N   1      33.949  17.961   5.680  0.00  0.00    -0.266 OA
HETATM    2  O   UNK N   1      35.269  17.447   9.916  0.00  0.00    -0.247 OA
HETATM    3  N   UNK N   1      34.673  17.728   7.782  0.00  0.00    -0.274 N 
HETATM    4  N   UNK N   1      33.163  16.888   9.420  0.00  0.00    -0.317 N 
HETATM    5  C   UNK N   1      32.451  17.154   7.188  0.00  0.00     0.100 A 
HETATM    6  C   UNK N   1      33.708  17.632   6.830  0.00  0.00     0.269 A 
HETATM    7  C   UNK N   1      32.188  16.783   8.494  0.00  0.00     0.119 A 
HETATM    8  C   UNK N   1      34.403  17.358   9.074  0.00  0.00     0.327 A 
HETATM    9  C   UNK N   1      31.441  17.046   6.227  0.00  0.00    -0.071 C 
HETATM   10  C   UNK N   1      30.617  16.973   5.372  0.00  0.00     0.018 C 
HETATM   11  H   UNK N   1      35.567  18.064   7.544  0.00  0.00     0.173 HD
HETATM   12  H   UNK N   1      32.983  16.626  10.352  0.00  0.00     0.170 HD
ENDROOT
TORSDOF 0
ENDMDL
MODEL 4
REMARK VINA RESULT:      -4.7     12.907     14.141
REMARK  0 active torsions:
REMARK  status: ('A' for Active; 'I' for Inactive)
ROOT
HETATM    1  O   UNK N   1      37.393  14.800  15.833  0.00  0.00    -0.266 OA
HETATM    2  O   UNK N   1      36.382  13.257  11.764  0.00  0.00    -0.247 OA
HETATM    3  N   UNK N   1      36.940  14.066  13.769  0.00  0.00    -0.274 N 
HETATM    4  N   UNK N   1      35.130  12.548  13.473  0.00  0.00    -0.317 N 
HETATM    5  C   UNK N   1      35.651  13.354  15.627  0.00  0.00     0.100 A 
HETATM    6  C   UNK N   1      36.698  14.108  15.106  0.00  0.00     0.269 A 
HETATM    7  C   UNK N   1      34.868  12.573  14.796  0.00  0.00     0.119 A 
HETATM    8  C   UNK N   1      36.159  13.289  12.953  0.00  0.00     0.327 A 
HETATM    9  C   UNK N   1      35.381  13.379  16.998  0.00  0.00    -0.071 C 
HETATM   10  C   UNK N   1      35.193  13.436  18.173  0.00  0.00     0.018 C 
HETATM   11  H   UNK N   1      37.677  14.594  13.386  0.00  0.00     0.173 HD
HETATM   12  H   UNK N   1      34.577  11.995  12.875  0.00  0.00     0.170 HD
ENDROOT
TORSDOF 0
ENDMDL
MODEL 5
REMARK VINA RESULT:      -4.7     11.195     12.119
REMARK  0 active torsions:
REMARK  status: ('A' for Active; 'I' for Inactive)
ROOT
HETATM    1  O   UNK N   1      35.719  17.721  10.219  0.00  0.00    -0.266 OA
HETATM    2  O   UNK N   1      34.721  13.937  12.376  0.00  0.00    -0.247 OA
HETATM    3  N   UNK N   1      35.267  15.843  11.348  0.00  0.00    -0.274 N 
HETATM    4  N   UNK N   1      33.614  14.364  10.483  0.00  0.00    -0.317 N 
HETATM    5  C   UNK N   1      34.129  16.358   9.332  0.00  0.00     0.100 A 
HETATM    6  C   UNK N   1      35.072  16.688  10.301  0.00  0.00     0.269 A 
HETATM    7  C   UNK N   1      33.402  15.186   9.434  0.00  0.00     0.119 A 
HETATM    8  C   UNK N   1      34.541  14.684  11.440  0.00  0.00     0.327 A 
HETATM    9  C   UNK N   1      33.910  17.209   8.246  0.00  0.00    -0.071 C 
HETATM   10  C   UNK N   1      33.761  17.969   7.341  0.00  0.00     0.018 C 
HETATM   11  H   UNK N   1      35.930  16.064  12.041  0.00  0.00     0.173 HD
HETATM   12  H   UNK N   1      33.100  13.528  10.561  0.00  0.00     0.170 HD
ENDROOT
TORSDOF 0
ENDMDL
MODEL 6
REMARK VINA RESULT:      -4.6     12.552     13.933
REMARK  0 active torsions:
REMARK  status: ('A' for Active; 'I' for Inactive)
ROOT
HETATM    1  O   UNK N   1      33.961  12.029  14.875  0.00  0.00    -0.266 OA
HETATM    2  O   UNK N   1      36.424  14.383  11.986  0.00  0.00    -0.247 OA
HETATM    3  N   UNK N   1      35.154  13.183  13.376  0.00  0.00    -0.274 N 
HETATM    4  N   UNK N   1      36.966  14.519  14.149  0.00  0.00    -0.317 N 
HETATM    5  C   UNK N   1      35.675  13.282  15.687  0.00  0.00     0.100 A 
HETATM    6  C   UNK N   1      34.885  12.795  14.651  0.00  0.00     0.269 A 
HETATM    7  C   UNK N   1      36.720  14.150  15.423  0.00  0.00     0.119 A 
HETATM    8  C   UNK N   1      36.191  14.043  13.124  0.00  0.00     0.327 A 
HETATM    9  C   UNK N   1      35.419  12.899  17.007  0.00  0.00    -0.071 C 
HETATM   10  C   UNK N   1      35.159  12.541  18.112  0.00  0.00     0.018 C 
HETATM   11  H   UNK N   1      34.604  12.846  12.633  0.00  0.00     0.173 HD
HETATM   12  H   UNK N   1      37.709  15.136  13.954  0.00  0.00     0.170 HD
ENDROOT
TORSDOF 0
ENDMDL
MODEL 7
REMARK VINA RESULT:      -4.6     10.569     11.686
REMARK  0 active torsions:
REMARK  status: ('A' for Active; 'I' for Inactive)
ROOT
HETATM    1  O   UNK N   1      31.974  15.270   9.120  0.00  0.00    -0.266 OA
HETATM    2  O   UNK N   1      35.744  17.340  10.330  0.00  0.00    -0.247 OA
HETATM    3  N   UNK N   1      33.869  16.259   9.777  0.00  0.00    -0.274 N 
HETATM    4  N   UNK N   1      34.616  18.187   8.597  0.00  0.00    -0.317 N 
HETATM    5  C   UNK N   1      32.623  17.106   7.946  0.00  0.00     0.100 A 
HETATM    6  C   UNK N   1      32.787  16.167   8.960  0.00  0.00     0.269 A 
HETATM    7  C   UNK N   1      33.550  18.118   7.773  0.00  0.00     0.119 A 
HETATM    8  C   UNK N   1      34.782  17.265   9.597  0.00  0.00     0.327 A 
HETATM    9  C   UNK N   1      31.519  17.034   7.092  0.00  0.00    -0.071 C 
HETATM   10  C   UNK N   1      30.562  16.928   6.393  0.00  0.00     0.018 C 
HETATM   11  H   UNK N   1      33.998  15.602  10.498  0.00  0.00     0.173 HD
HETATM   12  H   UNK N   1      35.279  18.905   8.480  0.00  0.00     0.170 HD
ENDROOT
TORSDOF 0
ENDMDL
MODEL 8
REMARK VINA RESULT:      -4.5      9.933     11.591
REMARK  0 active torsions:
REMARK  status: ('A' for Active; 'I' for Inactive)
ROOT
HETATM    1  O   UNK N   1      19.685  17.204   2.255  0.00  0.00    -0.266 OA
HETATM    2  O   UNK N   1      21.009  20.853   0.043  0.00  0.00    -0.247 OA
HETATM    3  N   UNK N   1      20.312  19.008   1.091  0.00  0.00    -0.274 N 
HETATM    4  N   UNK N   1      21.693  20.628   2.158  0.00  0.00    -0.317 N 
HETATM    5  C   UNK N   1      21.003  18.706   3.339  0.00  0.00     0.100 A 
HETATM    6  C   UNK N   1      20.302  18.257   2.224  0.00  0.00     0.269 A 
HETATM    7  C   UNK N   1      21.699  19.901   3.295  0.00  0.00     0.119 A 
HETATM    8  C   UNK N   1      21.006  20.190   1.057  0.00  0.00     0.327 A 
HETATM    9  C   UNK N   1      21.008  17.953   4.516  0.00  0.00    -0.071 C 
HETATM   10  C   UNK N   1      20.981  17.273   5.494  0.00  0.00     0.018 C 
HETATM   11  H   UNK N   1      19.822  18.703   0.294  0.00  0.00     0.173 HD
HETATM   12  H   UNK N   1      22.187  21.479   2.120  0.00  0.00     0.170 HD
ENDROOT
TORSDOF 0
ENDMDL
MODEL 9
REMARK VINA RESULT:      -4.4     22.573     23.225
REMARK  0 active torsions:
REMARK  status: ('A' for Active; 'I' for Inactive)
ROOT
HETATM    1  O   UNK N   1      41.762  24.084   1.585  0.00  0.00    -0.266 OA
HETATM    2  O   UNK N   1      44.400  22.520   4.834  0.00  0.00    -0.247 OA
HETATM    3  N   UNK N   1      43.108  23.366   3.220  0.00  0.00    -0.274 N 
HETATM    4  N   UNK N   1      43.046  21.062   3.818  0.00  0.00    -0.317 N 
HETATM    5  C   UNK N   1      41.647  21.872   2.100  0.00  0.00     0.100 A 
HETATM    6  C   UNK N   1      42.157  23.155   2.272  0.00  0.00     0.269 A 
HETATM    7  C   UNK N   1      42.101  20.827   2.884  0.00  0.00     0.119 A 
HETATM    8  C   UNK N   1      43.552  22.323   3.992  0.00  0.00     0.327 A 
HETATM    9  C   UNK N   1      40.668  21.629   1.132  0.00  0.00    -0.071 C 
HETATM   10  C   UNK N   1      39.837  21.476   0.294  0.00  0.00     0.018 C 
HETATM   11  H   UNK N   1      43.479  24.268   3.354  0.00  0.00     0.173 HD
HETATM   12  H   UNK N   1      43.374  20.322   4.379  0.00  0.00     0.170 HD
ENDROOT
TORSDOF 0
ENDMDL
