MODEL 1
REMARK VINA RESULT:      -7.3      0.000      0.000
REMARK  2 active torsions:
REMARK  status: ('A' for Active; 'I' for Inactive)
REMARK    1  A    between atoms: C_7  and  O_1 
REMARK    2  A    between atoms: C_3  and  C_14 
ROOT
HETATM    1  O   UNK N   1      35.614   9.975  21.227  0.00  0.00    -0.293 OA
HETATM    2  C   UNK N   1      35.657  11.764  13.364  0.00  0.00     0.006 C 
HETATM    3  C   UNK N   1      36.071  12.933  14.420  0.00  0.00     0.002 C 
HETATM    4  C   UNK N   1      35.447  12.902  15.833  0.00  0.00    -0.005 C 
HETATM    5  C   UNK N   1      35.936  11.543  16.427  0.00  0.00    -0.002 C 
HETATM    6  C   UNK N   1      36.702  12.278  12.296  0.00  0.00     0.128 C 
HETATM    7  C   UNK N   1      34.934  10.813  14.348  0.00  0.00     0.014 C 
HETATM    8  C   UNK N   1      35.888  14.188  13.620  0.00  0.00     0.010 C 
HETATM    9  C   UNK N   1      35.901  10.411  15.434  0.00  0.00     0.006 C 
HETATM   10  C   UNK N   1      35.021  11.197  17.565  0.00  0.00     0.019 C 
HETATM   11  C   UNK N   1      36.577  13.810  12.317  0.00  0.00     0.052 C 
HETATM   12  C   UNK N   1      35.834  13.998  16.847  0.00  0.00     0.010 C 
HETATM   13  C   UNK N   1      35.168  13.709  18.224  0.00  0.00     0.035 C 
HETATM   14  C   UNK N   1      35.296  12.247  18.620  0.00  0.00    -0.072 C 
HETATM   15  C   UNK N   1      35.175   9.723  18.017  0.00  0.00     0.017 C 
HETATM   16  C   UNK N   1      36.538  11.890  10.877  0.00  0.00    -0.078 C 
HETATM   17  C   UNK N   1      36.278   9.548  19.019  0.00  0.00     0.084 C 
HETATM   18  C   UNK N   1      35.675  11.881  19.856  0.00  0.00     0.053 C 
HETATM   19  C   UNK N   1      35.888  10.444  20.138  0.00  0.00     0.149 C 
HETATM   20  C   UNK N   1      36.395  11.579   9.723  0.00  0.00     0.015 C 
ENDROOT
BRANCH   6  21
HETATM   21  O   UNK N   1      37.991  11.899  12.713  0.00  0.00    -0.377 OA
HETATM   22  H   UNK N   1      38.956  11.978  12.660  0.00  0.00     0.211 HD
ENDBRANCH   6  21
BRANCH   2  23
HETATM   23  C   UNK N   1      35.431  10.345  12.692  0.00  0.00     0.009 C 
HETATM   24  C   UNK N   1      33.980   9.922  12.347  0.00  0.00     0.006 C 
ENDBRANCH   2  23
TORSDOF 2
ENDMDL
MODEL 2
REMARK VINA RESULT:      -7.1     22.066     25.921
REMARK  2 active torsions:
REMARK  status: ('A' for Active; 'I' for Inactive)
REMARK    1  A    between atoms: C_7  and  O_1 
REMARK    2  A    between atoms: C_3  and  C_14 
ROOT
HETATM    1  O   UNK N   1      32.343  21.625  -2.306  0.00  0.00    -0.293 OA
HETATM    2  C   UNK N   1      26.783  24.525  -7.376  0.00  0.00     0.006 C 
HETATM    3  C   UNK N   1      26.797  25.089  -5.848  0.00  0.00     0.002 C 
HETATM    4  C   UNK N   1      27.298  24.154  -4.724  0.00  0.00    -0.005 C 
HETATM    5  C   UNK N   1      28.777  23.850  -5.124  0.00  0.00    -0.002 C 
HETATM    6  C   UNK N   1      26.359  25.934  -7.953  0.00  0.00     0.128 C 
HETATM    7  C   UNK N   1      27.608  23.236  -7.152  0.00  0.00     0.014 C 
HETATM    8  C   UNK N   1      25.424  25.669  -5.691  0.00  0.00     0.010 C 
HETATM    9  C   UNK N   1      28.961  23.614  -6.600  0.00  0.00     0.006 C 
HETATM   10  C   UNK N   1      29.191  22.606  -4.395  0.00  0.00     0.019 C 
HETATM   11  C   UNK N   1      25.289  26.460  -6.984  0.00  0.00     0.052 C 
HETATM   12  C   UNK N   1      27.324  24.674  -3.273  0.00  0.00     0.010 C 
HETATM   13  C   UNK N   1      27.957  23.605  -2.334  0.00  0.00     0.035 C 
HETATM   14  C   UNK N   1      29.216  22.999  -2.933  0.00  0.00    -0.072 C 
HETATM   15  C   UNK N   1      30.502  22.002  -4.958  0.00  0.00     0.017 C 
HETATM   16  C   UNK N   1      25.746  26.012  -9.297  0.00  0.00    -0.078 C 
HETATM   17  C   UNK N   1      31.723  22.617  -4.339  0.00  0.00     0.084 C 
HETATM   18  C   UNK N   1      30.337  22.842  -2.209  0.00  0.00     0.053 C 
HETATM   19  C   UNK N   1      31.557  22.351  -2.887  0.00  0.00     0.149 C 
HETATM   20  C   UNK N   1      25.238  26.068 -10.387  0.00  0.00     0.015 C 
ENDROOT
BRANCH   6  21
HETATM   21  O   UNK N   1      27.483  26.782  -7.929  0.00  0.00    -0.377 OA
HETATM   22  H   UNK N   1      28.179  27.253  -7.445  0.00  0.00     0.211 HD
ENDBRANCH   6  21
BRANCH   2  23
HETATM   23  C   UNK N   1      27.241  23.918  -8.767  0.00  0.00     0.009 C 
HETATM   24  C   UNK N   1      26.666  22.541  -9.189  0.00  0.00     0.006 C 
ENDBRANCH   2  23
TORSDOF 2
ENDMDL
MODEL 3
REMARK VINA RESULT:      -7.1     21.606     25.015
REMARK  2 active torsions:
REMARK  status: ('A' for Active; 'I' for Inactive)
REMARK    1  A    between atoms: C_7  and  O_1 
REMARK    2  A    between atoms: C_3  and  C_14 
ROOT
HETATM    1  O   UNK N   1      33.838  19.797  -4.115  0.00  0.00    -0.293 OA
HETATM    2  C   UNK N   1      28.028  25.339  -4.864  0.00  0.00     0.006 C 
HETATM    3  C   UNK N   1      27.762  23.859  -5.489  0.00  0.00     0.002 C 
HETATM    4  C   UNK N   1      28.976  23.043  -5.990  0.00  0.00    -0.005 C 
HETATM    5  C   UNK N   1      29.854  22.859  -4.711  0.00  0.00    -0.002 C 
HETATM    6  C   UNK N   1      26.513  25.497  -4.444  0.00  0.00     0.128 C 
HETATM    7  C   UNK N   1      29.569  25.262  -4.743  0.00  0.00     0.014 C 
HETATM    8  C   UNK N   1      26.653  24.101  -6.468  0.00  0.00     0.010 C 
HETATM    9  C   UNK N   1      29.929  24.096  -3.855  0.00  0.00     0.006 C 
HETATM   10  C   UNK N   1      31.243  22.520  -5.167  0.00  0.00     0.019 C 
HETATM   11  C   UNK N   1      25.707  24.954  -5.635  0.00  0.00     0.052 C 
HETATM   12  C   UNK N   1      28.742  21.637  -6.578  0.00  0.00     0.010 C 
HETATM   13  C   UNK N   1      30.106  20.968  -6.919  0.00  0.00     0.035 C 
HETATM   14  C   UNK N   1      31.122  21.151  -5.803  0.00  0.00    -0.072 C 
HETATM   15  C   UNK N   1      32.285  22.650  -4.028  0.00  0.00     0.017 C 
HETATM   16  C   UNK N   1      25.970  26.849  -4.185  0.00  0.00    -0.078 C 
HETATM   17  C   UNK N   1      32.388  21.400  -3.206  0.00  0.00     0.084 C 
HETATM   18  C   UNK N   1      31.873  20.130  -5.358  0.00  0.00     0.053 C 
HETATM   19  C   UNK N   1      32.759  20.354  -4.193  0.00  0.00     0.149 C 
HETATM   20  C   UNK N   1      25.532  27.952  -3.985  0.00  0.00     0.015 C 
ENDROOT
BRANCH   6  21
HETATM   21  O   UNK N   1      26.279  24.701  -3.307  0.00  0.00    -0.377 OA
HETATM   22  H   UNK N   1      25.805  23.984  -2.858  0.00  0.00     0.211 HD
ENDBRANCH   6  21
BRANCH   2  23
HETATM   23  C   UNK N   1      28.567  26.521  -3.954  0.00  0.00     0.009 C 
HETATM   24  C   UNK N   1      29.456  27.606  -4.616  0.00  0.00     0.006 C 
ENDBRANCH   2  23
TORSDOF 2
ENDMDL
MODEL 4
REMARK VINA RESULT:      -7.0     11.181     13.710
REMARK  2 active torsions:
REMARK  status: ('A' for Active; 'I' for Inactive)
REMARK    1  A    between atoms: C_7  and  O_1 
REMARK    2  A    between atoms: C_3  and  C_14 
ROOT
HETATM    1  O   UNK N   1      33.498  14.603   7.928  0.00  0.00    -0.293 OA
HETATM    2  C   UNK N   1      27.151  18.637   5.019  0.00  0.00     0.006 C 
HETATM    3  C   UNK N   1      27.972  19.293   6.264  0.00  0.00     0.002 C 
HETATM    4  C   UNK N   1      28.676  18.344   7.260  0.00  0.00    -0.005 C 
HETATM    5  C   UNK N   1      29.707  17.573   6.375  0.00  0.00    -0.002 C 
HETATM    6  C   UNK N   1      26.868  20.056   4.383  0.00  0.00     0.128 C 
HETATM    7  C   UNK N   1      27.654  17.180   5.155  0.00  0.00     0.014 C 
HETATM    8  C   UNK N   1      26.993  20.275   6.833  0.00  0.00     0.010 C 
HETATM    9  C   UNK N   1      29.157  17.172   5.031  0.00  0.00     0.006 C 
HETATM   10  C   UNK N   1      30.088  16.325   7.117  0.00  0.00     0.019 C 
HETATM   11  C   UNK N   1      26.496  20.961   5.568  0.00  0.00     0.052 C 
HETATM   12  C   UNK N   1      29.464  18.949   8.440  0.00  0.00     0.010 C 
HETATM   13  C   UNK N   1      30.169  17.818   9.245  0.00  0.00     0.035 C 
HETATM   14  C   UNK N   1      30.848  16.810   8.333  0.00  0.00    -0.072 C 
HETATM   15  C   UNK N   1      30.828  15.306   6.214  0.00  0.00     0.017 C 
HETATM   16  C   UNK N   1      25.763  20.208   3.410  0.00  0.00    -0.078 C 
HETATM   17  C   UNK N   1      32.304  15.568   6.155  0.00  0.00     0.084 C 
HETATM   18  C   UNK N   1      32.098  16.379   8.565  0.00  0.00     0.053 C 
HETATM   19  C   UNK N   1      32.737  15.485   7.573  0.00  0.00     0.149 C 
HETATM   20  C   UNK N   1      24.857  20.326   2.627  0.00  0.00     0.015 C 
ENDROOT
BRANCH   6  21
HETATM   21  O   UNK N   1      28.054  20.520   3.782  0.00  0.00    -0.377 OA
HETATM   22  H   UNK N   1      28.647  20.586   3.018  0.00  0.00     0.211 HD
ENDBRANCH   6  21
BRANCH   2  23
HETATM   23  C   UNK N   1      26.788  17.807   3.717  0.00  0.00     0.009 C 
HETATM   24  C   UNK N   1      25.744  16.668   3.844  0.00  0.00     0.006 C 
ENDBRANCH   2  23
TORSDOF 2
ENDMDL
MODEL 5
REMARK VINA RESULT:      -6.9      1.433      2.251
REMARK  2 active torsions:
REMARK  status: ('A' for Active; 'I' for Inactive)
REMARK    1  A    between atoms: C_7  and  O_1 
REMARK    2  A    between atoms: C_3  and  C_14 
ROOT
HETATM    1  O   UNK N   1      34.830   7.059  21.705  0.00  0.00    -0.293 OA
HETATM    2  C   UNK N   1      35.545  11.599  15.079  0.00  0.00     0.006 C 
HETATM    3  C   UNK N   1      35.914  12.273  16.514  0.00  0.00     0.002 C 
HETATM    4  C   UNK N   1      35.181  11.764  17.776  0.00  0.00    -0.005 C 
HETATM    5  C   UNK N   1      35.577  10.254  17.853  0.00  0.00    -0.002 C 
HETATM    6  C   UNK N   1      36.687  12.405  14.341  0.00  0.00     0.128 C 
HETATM    7  C   UNK N   1      34.716  10.399  15.596  0.00  0.00     0.014 C 
HETATM    8  C   UNK N   1      35.836  13.742  16.226  0.00  0.00     0.010 C 
HETATM    9  C   UNK N   1      35.581   9.569  16.512  0.00  0.00     0.006 C 
HETATM   10  C   UNK N   1      34.565   9.571  18.726  0.00  0.00     0.019 C 
HETATM   11  C   UNK N   1      36.612  13.827  14.920  0.00  0.00     0.052 C 
HETATM   12  C   UNK N   1      35.524  12.387  19.144  0.00  0.00     0.010 C 
HETATM   13  C   UNK N   1      34.744  11.653  20.274  0.00  0.00     0.035 C 
HETATM   14  C   UNK N   1      34.791  10.143  20.109  0.00  0.00    -0.072 C 
HETATM   15  C   UNK N   1      34.634   8.027  18.609  0.00  0.00     0.017 C 
HETATM   16  C   UNK N   1      36.622  12.574  12.872  0.00  0.00    -0.078 C 
HETATM   17  C   UNK N   1      35.649   7.432  19.540  0.00  0.00     0.084 C 
HETATM   18  C   UNK N   1      35.060   9.328  21.142  0.00  0.00     0.053 C 
HETATM   19  C   UNK N   1      35.203   7.878  20.885  0.00  0.00     0.149 C 
HETATM   20  C   UNK N   1      36.558  12.716  11.679  0.00  0.00     0.015 C 
ENDROOT
BRANCH   6  21
HETATM   21  O   UNK N   1      37.927  11.823  14.666  0.00  0.00    -0.377 OA
HETATM   22  H   UNK N   1      38.470  11.240  15.218  0.00  0.00     0.211 HD
ENDBRANCH   6  21
BRANCH   2  23
HETATM   23  C   UNK N   1      35.326  10.541  13.917  0.00  0.00     0.009 C 
HETATM   24  C   UNK N   1      33.899  10.386  13.330  0.00  0.00     0.006 C 
ENDBRANCH   2  23
TORSDOF 2
ENDMDL
MODEL 6
REMARK VINA RESULT:      -6.9     22.667     26.187
REMARK  2 active torsions:
REMARK  status: ('A' for Active; 'I' for Inactive)
REMARK    1  A    between atoms: C_7  and  O_1 
REMARK    2  A    between atoms: C_3  and  C_14 
ROOT
HETATM    1  O   UNK N   1      26.323  30.909  -3.258  0.00  0.00    -0.293 OA
HETATM    2  C   UNK N   1      28.693  23.384  -4.929  0.00  0.00     0.006 C 
HETATM    3  C   UNK N   1      27.605  24.084  -5.919  0.00  0.00     0.002 C 
HETATM    4  C   UNK N   1      26.642  25.136  -5.326  0.00  0.00    -0.005 C 
HETATM    5  C   UNK N   1      27.593  26.262  -4.806  0.00  0.00    -0.002 C 
HETATM    6  C   UNK N   1      29.383  22.623  -6.129  0.00  0.00     0.128 C 
HETATM    7  C   UNK N   1      28.522  24.317  -3.706  0.00  0.00     0.014 C 
HETATM    8  C   UNK N   1      26.987  22.913  -6.622  0.00  0.00     0.010 C 
HETATM    9  C   UNK N   1      28.829  25.733  -4.128  0.00  0.00     0.006 C 
HETATM   10  C   UNK N   1      26.822  27.074  -3.808  0.00  0.00     0.019 C 
HETATM   11  C   UNK N   1      28.224  22.111  -7.000  0.00  0.00     0.052 C 
HETATM   12  C   UNK N   1      25.611  25.814  -6.251  0.00  0.00     0.010 C 
HETATM   13  C   UNK N   1      24.824  26.904  -5.466  0.00  0.00     0.035 C 
HETATM   14  C   UNK N   1      25.743  27.765  -4.615  0.00  0.00    -0.072 C 
HETATM   15  C   UNK N   1      27.738  27.997  -2.967  0.00  0.00     0.017 C 
HETATM   16  C   UNK N   1      30.220  21.436  -5.850  0.00  0.00    -0.078 C 
HETATM   17  C   UNK N   1      27.996  29.311  -3.643  0.00  0.00     0.084 C 
HETATM   18  C   UNK N   1      25.639  29.104  -4.597  0.00  0.00     0.053 C 
HETATM   19  C   UNK N   1      26.639  29.885  -3.836  0.00  0.00     0.149 C 
HETATM   20  C   UNK N   1      30.893  20.465  -5.617  0.00  0.00     0.015 C 
ENDROOT
BRANCH   6  21
HETATM   21  O   UNK N   1      30.155  23.547  -6.859  0.00  0.00    -0.377 OA
HETATM   22  H   UNK N   1      30.544  24.429  -6.965  0.00  0.00     0.211 HD
ENDBRANCH   6  21
BRANCH   2  23
HETATM   23  C   UNK N   1      29.881  23.166  -3.902  0.00  0.00     0.009 C 
HETATM   24  C   UNK N   1      29.524  22.829  -2.431  0.00  0.00     0.006 C 
ENDBRANCH   2  23
TORSDOF 2
ENDMDL
MODEL 7
REMARK VINA RESULT:      -6.8     21.678     24.914
REMARK  2 active torsions:
REMARK  status: ('A' for Active; 'I' for Inactive)
REMARK    1  A    between atoms: C_7  and  O_1 
REMARK    2  A    between atoms: C_3  and  C_14 
ROOT
HETATM    1  O   UNK N   1      24.471  22.557  -8.270  0.00  0.00    -0.293 OA
HETATM    2  C   UNK N   1      31.964  21.003  -5.727  0.00  0.00     0.006 C 
HETATM    3  C   UNK N   1      30.963  21.802  -4.722  0.00  0.00     0.002 C 
HETATM    4  C   UNK N   1      29.863  22.696  -5.337  0.00  0.00    -0.005 C 
HETATM    5  C   UNK N   1      28.993  21.699  -6.168  0.00  0.00    -0.002 C 
HETATM    6  C   UNK N   1      32.648  20.233  -4.529  0.00  0.00     0.128 C 
HETATM    7  C   UNK N   1      31.200  21.245  -7.051  0.00  0.00     0.014 C 
HETATM    8  C   UNK N   1      31.905  22.449  -3.752  0.00  0.00     0.010 C 
HETATM    9  C   UNK N   1      29.808  20.680  -6.919  0.00  0.00     0.006 C 
HETATM   10  C   UNK N   1      28.217  22.507  -7.166  0.00  0.00     0.019 C 
HETATM   11  C   UNK N   1      32.835  21.289  -3.428  0.00  0.00     0.052 C 
HETATM   12  C   UNK N   1      28.901  23.454  -4.399  0.00  0.00     0.010 C 
HETATM   13  C   UNK N   1      27.822  24.203  -5.233  0.00  0.00     0.035 C 
HETATM   14  C   UNK N   1      27.252  23.329  -6.338  0.00  0.00    -0.072 C 
HETATM   15  C   UNK N   1      27.585  21.626  -8.272  0.00  0.00     0.017 C 
HETATM   16  C   UNK N   1      33.983  19.627  -4.724  0.00  0.00    -0.078 C 
HETATM   17  C   UNK N   1      26.247  21.079  -7.868  0.00  0.00     0.084 C 
HETATM   18  C   UNK N   1      25.930  23.249  -6.564  0.00  0.00     0.053 C 
HETATM   19  C   UNK N   1      25.439  22.292  -7.581  0.00  0.00     0.149 C 
HETATM   20  C   UNK N   1      35.074  19.144  -4.887  0.00  0.00     0.015 C 
ENDROOT
BRANCH   6  21
HETATM   21  O   UNK N   1      31.767  19.230  -4.082  0.00  0.00    -0.377 OA
HETATM   22  H   UNK N   1      31.600  18.330  -3.761  0.00  0.00     0.211 HD
ENDBRANCH   6  21
BRANCH   2  23
HETATM   23  C   UNK N   1      32.517  20.045  -6.864  0.00  0.00     0.009 C 
HETATM   24  C   UNK N   1      33.226  20.690  -8.083  0.00  0.00     0.006 C 
ENDBRANCH   2  23
TORSDOF 2
ENDMDL
MODEL 8
REMARK VINA RESULT:      -6.7      2.293      6.745
REMARK  2 active torsions:
REMARK  status: ('A' for Active; 'I' for Inactive)
REMARK    1  A    between atoms: C_7  and  O_1 
REMARK    2  A    between atoms: C_3  and  C_14 
ROOT
HETATM    1  O   UNK N   1      33.131   9.282   8.151  0.00  0.00    -0.293 OA
HETATM    2  C   UNK N   1      35.439  11.621  15.515  0.00  0.00     0.006 C 
HETATM    3  C   UNK N   1      35.738  12.620  14.264  0.00  0.00     0.002 C 
HETATM    4  C   UNK N   1      35.971  11.999  12.867  0.00  0.00    -0.005 C 
HETATM    5  C   UNK N   1      34.631  11.256  12.562  0.00  0.00    -0.002 C 
HETATM    6  C   UNK N   1      35.158  12.833  16.490  0.00  0.00     0.128 C 
HETATM    7  C   UNK N   1      35.209  10.316  14.716  0.00  0.00     0.014 C 
HETATM    8  C   UNK N   1      36.812  13.517  14.799  0.00  0.00     0.010 C 
HETATM    9  C   UNK N   1      34.066  10.530  13.754  0.00  0.00     0.006 C 
HETATM   10  C   UNK N   1      34.915  10.245  11.489  0.00  0.00     0.019 C 
HETATM   11  C   UNK N   1      36.248  13.868  16.168  0.00  0.00     0.052 C 
HETATM   12  C   UNK N   1      36.248  12.931  11.671  0.00  0.00     0.010 C 
HETATM   13  C   UNK N   1      36.348  12.099  10.359  0.00  0.00     0.035 C 
HETATM   14  C   UNK N   1      35.240  11.064  10.258  0.00  0.00    -0.072 C 
HETATM   15  C   UNK N   1      33.771   9.212  11.337  0.00  0.00     0.017 C 
HETATM   16  C   UNK N   1      35.238  12.620  17.952  0.00  0.00    -0.078 C 
HETATM   17  C   UNK N   1      32.688   9.695  10.417  0.00  0.00     0.084 C 
HETATM   18  C   UNK N   1      34.535  10.892   9.127  0.00  0.00     0.053 C 
HETATM   19  C   UNK N   1      33.397   9.947   9.135  0.00  0.00     0.149 C 
HETATM   20  C   UNK N   1      35.313  12.443  19.140  0.00  0.00     0.015 C 
ENDROOT
BRANCH   6  21
HETATM   21  O   UNK N   1      33.891  13.365  16.188  0.00  0.00    -0.377 OA
HETATM   22  H   UNK N   1      33.005  13.278  15.801  0.00  0.00     0.211 HD
ENDBRANCH   6  21
BRANCH   2  23
HETATM   23  C   UNK N   1      34.780  10.517  16.444  0.00  0.00     0.009 C 
HETATM   24  C   UNK N   1      35.603   9.241  16.759  0.00  0.00     0.006 C 
ENDBRANCH   2  23
TORSDOF 2
ENDMDL
MODEL 9
REMARK VINA RESULT:      -6.7      6.179     10.755
REMARK  2 active torsions:
REMARK  status: ('A' for Active; 'I' for Inactive)
REMARK    1  A    between atoms: C_7  and  O_1 
REMARK    2  A    between atoms: C_3  and  C_14 
ROOT
HETATM    1  O   UNK N   1      30.170  15.100   2.720  0.00  0.00    -0.293 OA
HETATM    2  C   UNK N   1      34.618  14.514   9.421  0.00  0.00     0.006 C 
HETATM    3  C   UNK N   1      34.176  16.000   8.921  0.00  0.00     0.002 C 
HETATM    4  C   UNK N   1      33.970  16.235   7.408  0.00  0.00    -0.005 C 
HETATM    5  C   UNK N   1      32.815  15.252   7.032  0.00  0.00    -0.002 C 
HETATM    6  C   UNK N   1      34.487  14.924  10.942  0.00  0.00     0.128 C 
HETATM    7  C   UNK N   1      34.383  13.748   8.098  0.00  0.00     0.014 C 
HETATM    8  C   UNK N   1      35.151  16.896   9.624  0.00  0.00     0.010 C 
HETATM    9  C   UNK N   1      32.937  13.906   7.695  0.00  0.00     0.006 C 
HETATM   10  C   UNK N   1      32.867  15.049   5.546  0.00  0.00     0.019 C 
HETATM   11  C   UNK N   1      35.108  16.327  11.035  0.00  0.00     0.052 C 
HETATM   12  C   UNK N   1      33.544  17.634   6.918  0.00  0.00     0.010 C 
HETATM   13  C   UNK N   1      33.299  17.609   5.381  0.00  0.00     0.035 C 
HETATM   14  C   UNK N   1      32.494  16.392   4.954  0.00  0.00    -0.072 C 
HETATM   15  C   UNK N   1      32.010  13.843   5.087  0.00  0.00     0.017 C 
HETATM   16  C   UNK N   1      35.179  14.118  11.972  0.00  0.00    -0.078 C 
HETATM   17  C   UNK N   1      30.576  14.219   4.856  0.00  0.00     0.084 C 
HETATM   18  C   UNK N   1      31.458  16.493   4.106  0.00  0.00     0.053 C 
HETATM   19  C   UNK N   1      30.650  15.285   3.824  0.00  0.00     0.149 C 
HETATM   20  C   UNK N   1      35.752  13.464  12.805  0.00  0.00     0.015 C 
ENDROOT
BRANCH   6  21
HETATM   21  O   UNK N   1      33.120  14.985  11.272  0.00  0.00    -0.377 OA
HETATM   22  H   UNK N   1      32.394  14.855  11.901  0.00  0.00     0.211 HD
ENDBRANCH   6  21
BRANCH   2  23
HETATM   23  C   UNK N   1      34.636  12.950   9.682  0.00  0.00     0.009 C 
HETATM   24  C   UNK N   1      35.781  12.117   9.050  0.00  0.00     0.006 C 
ENDBRANCH   2  23
TORSDOF 2
ENDMDL
