REMARK  2 active torsions:
REMARK  status: ('A' for Active; 'I' for Inactive)
REMARK    1  A    between atoms: C_7  and  O_1 
REMARK    2  A    between atoms: C_3  and  C_14 
ROOT
HETATM    1  O   UNK N   1      -0.565  -2.086  -0.349  0.00  0.00    -0.293 OA
HETATM    2  C   UNK N   1       7.012   0.571   0.399  0.00  0.00     0.006 C 
HETATM    3  C   UNK N   1       6.761  -0.810  -0.427  0.00  0.00     0.002 C 
HETATM    4  C   UNK N   1       5.554  -1.692  -0.035  0.00  0.00    -0.005 C 
HETATM    5  C   UNK N   1       4.320  -0.767  -0.285  0.00  0.00    -0.002 C 
HETATM    6  C   UNK N   1       8.193   0.998  -0.560  0.00  0.00     0.128 C 
HETATM    7  C   UNK N   1       5.667   0.629   1.162  0.00  0.00     0.014 C 
HETATM    8  C   UNK N   1       8.112  -1.459  -0.416  0.00  0.00     0.010 C 
HETATM    9  C   UNK N   1       4.540   0.655   0.159  0.00  0.00     0.006 C 
HETATM   10  C   UNK N   1       3.172  -1.331   0.500  0.00  0.00     0.019 C 
HETATM   11  C   UNK N   1       9.005  -0.286  -0.794  0.00  0.00     0.052 C 
HETATM   12  C   UNK N   1       5.298  -2.999  -0.812  0.00  0.00     0.010 C 
HETATM   13  C   UNK N   1       3.981  -3.665  -0.316  0.00  0.00     0.035 C 
HETATM   14  C   UNK N   1       2.856  -2.654  -0.165  0.00  0.00    -0.072 C 
HETATM   15  C   UNK N   1       1.994  -0.332   0.620  0.00  0.00     0.017 C 
HETATM   16  C   UNK N   1       9.174   2.005  -0.098  0.00  0.00    -0.078 C 
HETATM   17  C   UNK N   1       1.062  -0.409  -0.553  0.00  0.00     0.084 C 
HETATM   18  C   UNK N   1       1.621  -2.897  -0.634  0.00  0.00     0.053 C 
HETATM   19  C   UNK N   1       0.606  -1.823  -0.553  0.00  0.00     0.149 C 
HETATM   20  C   UNK N   1       9.974   2.818   0.287  0.00  0.00     0.015 C 
ENDROOT
BRANCH   6  21
HETATM   21  O   UNK N   1       7.642   1.442  -1.777  0.00  0.00    -0.377 OA
HETATM   22  H   UNK N   1       7.717   1.924  -2.615  0.00  0.00     0.211 HD
ENDBRANCH   6  21
BRANCH   2  23
HETATM   23  C   UNK N   1       6.807   2.006   1.043  0.00  0.00     0.009 C 
HETATM   24  C   UNK N   1       6.230   3.133   0.148  0.00  0.00     0.006 C 
ENDBRANCH   2  23
TORSDOF 2
