MODEL 1
REMARK VINA RESULT:      -9.0      0.000      0.000
REMARK  6 active torsions:
REMARK  status: ('A' for Active; 'I' for Inactive)
REMARK    1  A    between atoms: O_5  and  C_18 
REMARK    2  A    between atoms: O_5  and  C_27 
REMARK    3  A    between atoms: N_8  and  C_13 
REMARK       I    between atoms: N_8  and  C_25 
REMARK    4  A    between atoms: N_9  and  C_16 
REMARK       I    between atoms: N_9  and  C_25 
REMARK       I    between atoms: N_12  and  C_32 
REMARK    5  A    between atoms: C_14  and  C_26 
REMARK    6  A    between atoms: C_29  and  C_32 
ROOT
HETATM    1  C   UNK N   1      34.526  15.748   9.213  0.00  0.00     0.036 A 
HETATM    2  C   UNK N   1      32.162  16.604   8.008  0.00  0.00     0.076 A 
HETATM    3  C   UNK N   1      34.279  17.121   9.058  0.00  0.00     0.032 A 
HETATM    4  C   UNK N   1      33.563  14.816   8.824  0.00  0.00     0.032 A 
HETATM    5  C   UNK N   1      33.111  17.545   8.434  0.00  0.00     0.039 A 
HETATM    6  C   UNK N   1      32.389  15.240   8.213  0.00  0.00     0.039 A 
ENDROOT
BRANCH   1   7
HETATM    7  N   UNK N   1      35.634  15.291   9.956  0.00  0.00    -0.309 N 
HETATM    8  C   UNK N   1      35.481  15.028  11.270  0.00  0.00     0.325 C 
HETATM    9  O   UNK N   1      34.420  15.288  11.823  0.00  0.00    -0.247 OA
HETATM   10  N   UNK N   1      36.440  14.326  11.923  0.00  0.00    -0.309 N 
HETATM   11  H   UNK N   1      37.358  14.324  11.568  0.00  0.00     0.170 HD
HETATM   12  H   UNK N   1      36.508  15.165   9.520  0.00  0.00     0.170 HD
BRANCH  10  13
HETATM   13  C   UNK N   1      36.151  13.594  13.107  0.00  0.00     0.037 A 
HETATM   14  C   UNK N   1      35.301  12.492  13.058  0.00  0.00     0.047 A 
HETATM   15  C   UNK N   1      34.939  11.824  14.241  0.00  0.00     0.071 A 
HETATM   16  C   UNK N   1      35.426  12.296  15.483  0.00  0.00     0.049 A 
HETATM   17 Cl   UNK N   1      35.012  11.526  17.006  0.00  0.00    -0.083 Cl
HETATM   18  C   UNK N   1      36.260  13.406  15.526  0.00  0.00     0.027 A 
HETATM   19  C   UNK N   1      36.612  14.050  14.353  0.00  0.00     0.031 A 
BRANCH  15  20
HETATM   20  C   UNK N   1      34.040  10.625  14.169  0.00  0.00     0.419 C 
HETATM   21  F   UNK N   1      33.664  10.407  12.856  0.00  0.00    -0.166 F 
HETATM   22  F   UNK N   1      34.680   9.492  14.641  0.00  0.00    -0.166 F 
HETATM   23  F   UNK N   1      32.914  10.850  14.940  0.00  0.00    -0.166 F 
ENDBRANCH  15  20
ENDBRANCH  10  13
ENDBRANCH   1   7
BRANCH   2  24
HETATM   24  O   UNK N   1      31.203  16.981   7.138  0.00  0.00    -0.311 OA
BRANCH  24  25
HETATM   25  C   UNK N   1      30.074  17.535   7.658  0.00  0.00     0.079 A 
HETATM   26  C   UNK N   1      29.253  18.324   6.842  0.00  0.00     0.072 A 
HETATM   27  C   UNK N   1      28.113  18.917   7.329  0.00  0.00     0.103 A 
HETATM   28  N   UNK N   1      27.768  18.727   8.634  0.00  0.00    -0.361 N 
HETATM   29  C   UNK N   1      28.535  17.955   9.463  0.00  0.00     0.091 A 
ATOM     30  HN  UNK N   1      26.924  19.169   8.998  1.00  0.00     0.165 HD
HETATM   31  C   UNK N   1      29.709  17.343   8.989  0.00  0.00     0.054 A 
BRANCH  27  32
HETATM   32  C   UNK N   1      27.319  19.758   6.411  0.00  0.00     0.267 C 
HETATM   33  O   UNK N   1      27.577  20.953   6.312  0.00  0.00    -0.266 OA
HETATM   34  N   UNK N   1      26.305  19.222   5.696  0.00  0.00    -0.360 N 
HETATM   35  C   UNK N   1      25.504  20.032   4.812  0.00  0.00     0.149 C 
HETATM   36  H   UNK N   1      26.110  18.261   5.779  0.00  0.00     0.162 HD
ENDBRANCH  27  32
ENDBRANCH  24  25
ENDBRANCH   2  24
TORSDOF 6
ENDMDL
MODEL 2
REMARK VINA RESULT:      -8.6      2.382      3.039
REMARK  6 active torsions:
REMARK  status: ('A' for Active; 'I' for Inactive)
REMARK    1  A    between atoms: O_5  and  C_18 
REMARK    2  A    between atoms: O_5  and  C_27 
REMARK    3  A    between atoms: N_8  and  C_13 
REMARK       I    between atoms: N_8  and  C_25 
REMARK    4  A    between atoms: N_9  and  C_16 
REMARK       I    between atoms: N_9  and  C_25 
REMARK       I    between atoms: N_12  and  C_32 
REMARK    5  A    between atoms: C_14  and  C_26 
REMARK    6  A    between atoms: C_29  and  C_32 
ROOT
HETATM    1  C   UNK N   1      34.706  15.817   9.242  0.00  0.00     0.036 A 
HETATM    2  C   UNK N   1      32.785  16.813   7.485  0.00  0.00     0.076 A 
HETATM    3  C   UNK N   1      33.911  14.929   8.502  0.00  0.00     0.032 A 
HETATM    4  C   UNK N   1      34.580  17.194   9.051  0.00  0.00     0.032 A 
HETATM    5  C   UNK N   1      32.935  15.428   7.644  0.00  0.00     0.039 A 
HETATM    6  C   UNK N   1      33.615  17.693   8.185  0.00  0.00     0.039 A 
ENDROOT
BRANCH   1   7
HETATM    7  N   UNK N   1      35.787  15.347  10.017  0.00  0.00    -0.309 N 
HETATM    8  C   UNK N   1      35.586  15.060  11.319  0.00  0.00     0.325 C 
HETATM    9  O   UNK N   1      34.506  15.310  11.838  0.00  0.00    -0.247 OA
HETATM   10  N   UNK N   1      36.522  14.348  11.994  0.00  0.00    -0.309 N 
HETATM   11  H   UNK N   1      37.453  14.352  11.672  0.00  0.00     0.170 HD
HETATM   12  H   UNK N   1      36.676  15.229   9.610  0.00  0.00     0.170 HD
BRANCH  10  13
HETATM   13  C   UNK N   1      36.192  13.594  13.153  0.00  0.00     0.037 A 
HETATM   14  C   UNK N   1      35.347  12.491  13.053  0.00  0.00     0.047 A 
HETATM   15  C   UNK N   1      34.943  11.802  14.210  0.00  0.00     0.071 A 
HETATM   16  C   UNK N   1      35.383  12.253  15.478  0.00  0.00     0.049 A 
HETATM   17 Cl   UNK N   1      34.914  11.456  16.970  0.00  0.00    -0.083 Cl
HETATM   18  C   UNK N   1      36.210  13.364  15.571  0.00  0.00     0.027 A 
HETATM   19  C   UNK N   1      36.604  14.030  14.424  0.00  0.00     0.031 A 
BRANCH  15  20
HETATM   20  C   UNK N   1      34.051  10.602  14.085  0.00  0.00     0.419 C 
HETATM   21  F   UNK N   1      33.719  10.411  12.756  0.00  0.00    -0.166 F 
HETATM   22  F   UNK N   1      34.680   9.461  14.553  0.00  0.00    -0.166 F 
HETATM   23  F   UNK N   1      32.901  10.808  14.824  0.00  0.00    -0.166 F 
ENDBRANCH  15  20
ENDBRANCH  10  13
ENDBRANCH   1   7
BRANCH   2  24
HETATM   24  O   UNK N   1      31.659  17.293   6.917  0.00  0.00    -0.311 OA
BRANCH  24  25
HETATM   25  C   UNK N   1      31.548  17.180   5.565  0.00  0.00     0.079 A 
HETATM   26  C   UNK N   1      30.322  16.800   5.003  0.00  0.00     0.072 A 
HETATM   27  C   UNK N   1      30.168  16.656   3.645  0.00  0.00     0.103 A 
HETATM   28  N   UNK N   1      31.229  16.895   2.825  0.00  0.00    -0.361 N 
HETATM   29  C   UNK N   1      32.442  17.278   3.331  0.00  0.00     0.091 A 
ATOM     30  HN  UNK N   1      31.118  16.785   1.817  1.00  0.00     0.165 HD
HETATM   31  C   UNK N   1      32.625  17.426   4.716  0.00  0.00     0.054 A 
BRANCH  27  32
HETATM   32  C   UNK N   1      28.850  16.224   3.135  0.00  0.00     0.267 C 
HETATM   33  O   UNK N   1      28.792  15.337   2.290  0.00  0.00    -0.266 OA
HETATM   34  N   UNK N   1      27.718  16.809   3.583  0.00  0.00    -0.360 N 
HETATM   35  C   UNK N   1      26.425  16.416   3.080  0.00  0.00     0.149 C 
HETATM   36  H   UNK N   1      27.776  17.516   4.265  0.00  0.00     0.162 HD
ENDBRANCH  27  32
ENDBRANCH  24  25
ENDBRANCH   2  24
TORSDOF 6
ENDMDL
MODEL 3
REMARK VINA RESULT:      -8.5      6.079     11.354
REMARK  6 active torsions:
REMARK  status: ('A' for Active; 'I' for Inactive)
REMARK    1  A    between atoms: O_5  and  C_18 
REMARK    2  A    between atoms: O_5  and  C_27 
REMARK    3  A    between atoms: N_8  and  C_13 
REMARK       I    between atoms: N_8  and  C_25 
REMARK    4  A    between atoms: N_9  and  C_16 
REMARK       I    between atoms: N_9  and  C_25 
REMARK       I    between atoms: N_12  and  C_32 
REMARK    5  A    between atoms: C_14  and  C_26 
REMARK    6  A    between atoms: C_29  and  C_32 
ROOT
HETATM    1  C   UNK N   1      32.228  16.437   8.834  0.00  0.00     0.036 A 
HETATM    2  C   UNK N   1      34.685  15.120   8.837  0.00  0.00     0.076 A 
HETATM    3  C   UNK N   1      32.268  15.034   8.847  0.00  0.00     0.032 A 
HETATM    4  C   UNK N   1      33.414  17.171   8.889  0.00  0.00     0.032 A 
HETATM    5  C   UNK N   1      33.495  14.379   8.823  0.00  0.00     0.039 A 
HETATM    6  C   UNK N   1      34.640  16.517   8.879  0.00  0.00     0.039 A 
ENDROOT
BRANCH   1   7
HETATM    7  N   UNK N   1      31.009  17.127   8.991  0.00  0.00    -0.309 N 
HETATM    8  C   UNK N   1      30.354  17.562   7.895  0.00  0.00     0.325 C 
HETATM    9  O   UNK N   1      30.873  17.449   6.792  0.00  0.00    -0.247 OA
HETATM   10  N   UNK N   1      29.064  17.965   8.008  0.00  0.00    -0.309 N 
HETATM   11  H   UNK N   1      28.733  18.274   8.882  0.00  0.00     0.170 HD
HETATM   12  H   UNK N   1      30.640  17.289   9.889  0.00  0.00     0.170 HD
BRANCH  10  13
HETATM   13  C   UNK N   1      28.179  17.950   6.896  0.00  0.00     0.037 A 
HETATM   14  C   UNK N   1      27.850  19.137   6.247  0.00  0.00     0.047 A 
HETATM   15  C   UNK N   1      26.902  19.138   5.209  0.00  0.00     0.071 A 
HETATM   16  C   UNK N   1      26.268  17.926   4.845  0.00  0.00     0.049 A 
HETATM   17 Cl   UNK N   1      25.065  17.844   3.569  0.00  0.00    -0.083 Cl
HETATM   18  C   UNK N   1      26.587  16.748   5.508  0.00  0.00     0.027 A 
HETATM   19  C   UNK N   1      27.526  16.762   6.525  0.00  0.00     0.031 A 
BRANCH  15  20
HETATM   20  C   UNK N   1      26.575  20.422   4.504  0.00  0.00     0.419 C 
HETATM   21  F   UNK N   1      27.018  20.355   3.196  0.00  0.00    -0.166 F 
HETATM   22  F   UNK N   1      25.211  20.656   4.500  0.00  0.00    -0.166 F 
HETATM   23  F   UNK N   1      27.202  21.471   5.151  0.00  0.00    -0.166 F 
ENDBRANCH  15  20
ENDBRANCH  10  13
ENDBRANCH   1   7
BRANCH   2  24
HETATM   24  O   UNK N   1      35.843  14.516   8.498  0.00  0.00    -0.311 OA
BRANCH  24  25
HETATM   25  C   UNK N   1      36.600  14.011   9.509  0.00  0.00     0.079 A 
HETATM   26  C   UNK N   1      36.093  14.006  10.815  0.00  0.00     0.072 A 
HETATM   27  C   UNK N   1      36.829  13.521  11.870  0.00  0.00     0.103 A 
HETATM   28  N   UNK N   1      38.079  13.028  11.641  0.00  0.00    -0.361 N 
HETATM   29  C   UNK N   1      38.609  13.005  10.379  0.00  0.00     0.091 A 
ATOM     30  HN  UNK N   1      38.628  12.672  12.422  1.00  0.00     0.165 HD
HETATM   31  C   UNK N   1      37.877  13.499   9.285  0.00  0.00     0.054 A 
BRANCH  27  32
HETATM   32  C   UNK N   1      36.233  13.579  13.220  0.00  0.00     0.267 C 
HETATM   33  O   UNK N   1      35.013  13.612  13.340  0.00  0.00    -0.266 OA
HETATM   34  N   UNK N   1      37.023  13.609  14.316  0.00  0.00    -0.360 N 
HETATM   35  C   UNK N   1      36.459  13.689  15.641  0.00  0.00     0.149 C 
HETATM   36  H   UNK N   1      38.000  13.577  14.209  0.00  0.00     0.162 HD
ENDBRANCH  27  32
ENDBRANCH  24  25
ENDBRANCH   2  24
TORSDOF 6
ENDMDL
MODEL 4
REMARK VINA RESULT:      -8.3     15.283     19.375
REMARK  6 active torsions:
REMARK  status: ('A' for Active; 'I' for Inactive)
REMARK    1  A    between atoms: O_5  and  C_18 
REMARK    2  A    between atoms: O_5  and  C_27 
REMARK    3  A    between atoms: N_8  and  C_13 
REMARK       I    between atoms: N_8  and  C_25 
REMARK    4  A    between atoms: N_9  and  C_16 
REMARK       I    between atoms: N_9  and  C_25 
REMARK       I    between atoms: N_12  and  C_32 
REMARK    5  A    between atoms: C_14  and  C_26 
REMARK    6  A    between atoms: C_29  and  C_32 
ROOT
HETATM    1  C   UNK N   1      31.105  21.544  -3.546  0.00  0.00     0.036 A 
HETATM    2  C   UNK N   1      33.316  20.223  -4.612  0.00  0.00     0.076 A 
HETATM    3  C   UNK N   1      30.957  20.749  -4.693  0.00  0.00     0.032 A 
HETATM    4  C   UNK N   1      32.342  21.622  -2.904  0.00  0.00     0.032 A 
HETATM    5  C   UNK N   1      32.066  20.110  -5.238  0.00  0.00     0.039 A 
HETATM    6  C   UNK N   1      33.448  20.974  -3.440  0.00  0.00     0.039 A 
ENDROOT
BRANCH   1   7
HETATM    7  N   UNK N   1      29.981  22.094  -2.896  0.00  0.00    -0.309 N 
HETATM    8  C   UNK N   1      29.453  23.246  -3.359  0.00  0.00     0.325 C 
HETATM    9  O   UNK N   1      30.013  23.853  -4.262  0.00  0.00    -0.247 OA
HETATM   10  N   UNK N   1      28.223  23.629  -2.935  0.00  0.00    -0.309 N 
HETATM   11  H   UNK N   1      27.886  23.295  -2.073  0.00  0.00     0.170 HD
HETATM   12  H   UNK N   1      29.586  21.641  -2.116  0.00  0.00     0.170 HD
BRANCH  10  13
HETATM   13  C   UNK N   1      27.408  24.502  -3.706  0.00  0.00     0.037 A 
HETATM   14  C   UNK N   1      27.487  25.880  -3.520  0.00  0.00     0.047 A 
HETATM   15  C   UNK N   1      26.615  26.739  -4.212  0.00  0.00     0.071 A 
HETATM   16  C   UNK N   1      25.642  26.190  -5.081  0.00  0.00     0.049 A 
HETATM   17 Cl   UNK N   1      24.509  27.192  -5.972  0.00  0.00    -0.083 Cl
HETATM   18  C   UNK N   1      25.557  24.814  -5.249  0.00  0.00     0.027 A 
HETATM   19  C   UNK N   1      26.425  23.981  -4.564  0.00  0.00     0.031 A 
BRANCH  15  20
HETATM   20  C   UNK N   1      26.727  28.223  -4.018  0.00  0.00     0.419 C 
HETATM   21  F   UNK N   1      27.818  28.501  -3.214  0.00  0.00    -0.166 F 
HETATM   22  F   UNK N   1      26.890  28.874  -5.228  0.00  0.00    -0.166 F 
HETATM   23  F   UNK N   1      25.576  28.693  -3.414  0.00  0.00    -0.166 F 
ENDBRANCH  15  20
ENDBRANCH  10  13
ENDBRANCH   1   7
BRANCH   2  24
HETATM   24  O   UNK N   1      34.428  19.882  -5.295  0.00  0.00    -0.311 OA
BRANCH  24  25
HETATM   25  C   UNK N   1      34.678  18.553  -5.453  0.00  0.00     0.079 A 
HETATM   26  C   UNK N   1      34.792  17.733  -4.322  0.00  0.00     0.072 A 
HETATM   27  C   UNK N   1      35.060  16.390  -4.433  0.00  0.00     0.103 A 
HETATM   28  N   UNK N   1      35.213  15.840  -5.670  0.00  0.00    -0.361 N 
HETATM   29  C   UNK N   1      35.099  16.602  -6.801  0.00  0.00     0.091 A 
ATOM     30  HN  UNK N   1      35.415  14.844  -5.755  1.00  0.00     0.165 HD
HETATM   31  C   UNK N   1      34.831  17.979  -6.714  0.00  0.00     0.054 A 
BRANCH  27  32
HETATM   32  C   UNK N   1      35.194  15.602  -3.191  0.00  0.00     0.267 C 
HETATM   33  O   UNK N   1      34.219  15.003  -2.748  0.00  0.00    -0.266 OA
HETATM   34  N   UNK N   1      36.375  15.551  -2.537  0.00  0.00    -0.360 N 
HETATM   35  C   UNK N   1      36.518  14.805  -1.310  0.00  0.00     0.149 C 
HETATM   36  H   UNK N   1      37.152  16.031  -2.903  0.00  0.00     0.162 HD
ENDBRANCH  27  32
ENDBRANCH  24  25
ENDBRANCH   2  24
TORSDOF 6
ENDMDL
MODEL 5
REMARK VINA RESULT:      -8.3      6.570     10.083
REMARK  6 active torsions:
REMARK  status: ('A' for Active; 'I' for Inactive)
REMARK    1  A    between atoms: O_5  and  C_18 
REMARK    2  A    between atoms: O_5  and  C_27 
REMARK    3  A    between atoms: N_8  and  C_13 
REMARK       I    between atoms: N_8  and  C_25 
REMARK    4  A    between atoms: N_9  and  C_16 
REMARK       I    between atoms: N_9  and  C_25 
REMARK       I    between atoms: N_12  and  C_32 
REMARK    5  A    between atoms: C_14  and  C_26 
REMARK    6  A    between atoms: C_29  and  C_32 
ROOT
HETATM    1  C   UNK N   1      26.082  17.370   3.577  0.00  0.00     0.036 A 
HETATM    2  C   UNK N   1      23.671  18.175   4.722  0.00  0.00     0.076 A 
HETATM    3  C   UNK N   1      25.642  18.693   3.420  0.00  0.00     0.032 A 
HETATM    4  C   UNK N   1      25.347  16.477   4.358  0.00  0.00     0.032 A 
HETATM    5  C   UNK N   1      24.426  19.086   3.971  0.00  0.00     0.039 A 
HETATM    6  C   UNK N   1      24.139  16.873   4.920  0.00  0.00     0.039 A 
ENDROOT
BRANCH   1   7
HETATM    7  N   UNK N   1      27.365  16.978   3.146  0.00  0.00    -0.309 N 
HETATM    8  C   UNK N   1      28.451  17.491   3.760  0.00  0.00     0.325 C 
HETATM    9  O   UNK N   1      28.314  18.365   4.606  0.00  0.00    -0.247 OA
HETATM   10  N   UNK N   1      29.662  16.917   3.557  0.00  0.00    -0.309 N 
HETATM   11  H   UNK N   1      29.815  16.396   2.736  0.00  0.00     0.170 HD
HETATM   12  H   UNK N   1      27.467  16.336   2.406  0.00  0.00     0.170 HD
BRANCH  10  13
HETATM   13  C   UNK N   1      30.717  17.049   4.502  0.00  0.00     0.037 A 
HETATM   14  C   UNK N   1      30.443  17.005   5.867  0.00  0.00     0.047 A 
HETATM   15  C   UNK N   1      31.469  17.230   6.801  0.00  0.00     0.071 A 
HETATM   16  C   UNK N   1      32.775  17.524   6.344  0.00  0.00     0.049 A 
HETATM   17 Cl   UNK N   1      34.108  17.829   7.446  0.00  0.00    -0.083 Cl
HETATM   18  C   UNK N   1      33.037  17.584   4.981  0.00  0.00     0.027 A 
HETATM   19  C   UNK N   1      32.019  17.355   4.073  0.00  0.00     0.031 A 
BRANCH  15  20
HETATM   20  C   UNK N   1      31.163  17.157   8.269  0.00  0.00     0.419 C 
HETATM   21  F   UNK N   1      31.470  18.368   8.864  0.00  0.00    -0.166 F 
HETATM   22  F   UNK N   1      29.824  16.882   8.487  0.00  0.00    -0.166 F 
HETATM   23  F   UNK N   1      31.920  16.154   8.845  0.00  0.00    -0.166 F 
ENDBRANCH  15  20
ENDBRANCH  10  13
ENDBRANCH   1   7
BRANCH   2  24
HETATM   24  O   UNK N   1      22.375  18.447   4.980  0.00  0.00    -0.311 OA
BRANCH  24  25
HETATM   25  C   UNK N   1      21.565  18.685   3.912  0.00  0.00     0.079 A 
HETATM   26  C   UNK N   1      21.192  17.623   3.078  0.00  0.00     0.072 A 
HETATM   27  C   UNK N   1      20.391  17.819   1.979  0.00  0.00     0.103 A 
HETATM   28  N   UNK N   1      19.943  19.074   1.696  0.00  0.00    -0.361 N 
HETATM   29  C   UNK N   1      20.274  20.139   2.490  0.00  0.00     0.091 A 
ATOM     30  HN  UNK N   1      19.351  19.223   0.879  1.00  0.00     0.165 HD
HETATM   31  C   UNK N   1      21.097  19.964   3.616  0.00  0.00     0.054 A 
BRANCH  27  32
HETATM   32  C   UNK N   1      20.068  16.651   1.135  0.00  0.00     0.267 C 
HETATM   33  O   UNK N   1      20.126  16.753  -0.086  0.00  0.00    -0.266 OA
HETATM   34  N   UNK N   1      19.695  15.481   1.700  0.00  0.00    -0.360 N 
HETATM   35  C   UNK N   1      19.354  14.336   0.891  0.00  0.00     0.149 C 
HETATM   36  H   UNK N   1      19.657  15.408   2.680  0.00  0.00     0.162 HD
ENDBRANCH  27  32
ENDBRANCH  24  25
ENDBRANCH   2  24
TORSDOF 6
ENDMDL
MODEL 6
REMARK VINA RESULT:      -8.2      4.961     10.463
REMARK  6 active torsions:
REMARK  status: ('A' for Active; 'I' for Inactive)
REMARK    1  A    between atoms: O_5  and  C_18 
REMARK    2  A    between atoms: O_5  and  C_27 
REMARK    3  A    between atoms: N_8  and  C_13 
REMARK       I    between atoms: N_8  and  C_25 
REMARK    4  A    between atoms: N_9  and  C_16 
REMARK       I    between atoms: N_9  and  C_25 
REMARK       I    between atoms: N_12  and  C_32 
REMARK    5  A    between atoms: C_14  and  C_26 
REMARK    6  A    between atoms: C_29  and  C_32 
ROOT
HETATM    1  C   UNK N   1      35.849  15.872  10.709  0.00  0.00     0.036 A 
HETATM    2  C   UNK N   1      36.447  13.593  12.198  0.00  0.00     0.076 A 
HETATM    3  C   UNK N   1      36.702  14.894  10.175  0.00  0.00     0.032 A 
HETATM    4  C   UNK N   1      35.251  15.674  11.954  0.00  0.00     0.032 A 
HETATM    5  C   UNK N   1      37.019  13.769  10.930  0.00  0.00     0.039 A 
HETATM    6  C   UNK N   1      35.557  14.545  12.704  0.00  0.00     0.039 A 
ENDROOT
BRANCH   1   7
HETATM    7  N   UNK N   1      35.406  16.953   9.920  0.00  0.00    -0.309 N 
HETATM    8  C   UNK N   1      34.417  16.752   9.025  0.00  0.00     0.325 C 
HETATM    9  O   UNK N   1      33.993  15.620   8.831  0.00  0.00    -0.247 OA
HETATM   10  N   UNK N   1      33.791  17.822   8.475  0.00  0.00    -0.309 N 
HETATM   11  H   UNK N   1      34.261  18.687   8.440  0.00  0.00     0.170 HD
HETATM   12  H   UNK N   1      35.812  17.844  10.024  0.00  0.00     0.170 HD
BRANCH  10  13
HETATM   13  C   UNK N   1      32.474  17.726   7.949  0.00  0.00     0.037 A 
HETATM   14  C   UNK N   1      31.377  18.043   8.747  0.00  0.00     0.047 A 
HETATM   15  C   UNK N   1      30.071  17.857   8.261  0.00  0.00     0.071 A 
HETATM   16  C   UNK N   1      29.881  17.324   6.964  0.00  0.00     0.049 A 
HETATM   17 Cl   UNK N   1      28.283  17.050   6.289  0.00  0.00    -0.083 Cl
HETATM   18  C   UNK N   1      30.979  16.993   6.181  0.00  0.00     0.027 A 
HETATM   19  C   UNK N   1      32.258  17.186   6.670  0.00  0.00     0.031 A 
BRANCH  15  20
HETATM   20  C   UNK N   1      28.900  18.225   9.124  0.00  0.00     0.419 C 
HETATM   21  F   UNK N   1      29.354  18.796  10.299  0.00  0.00    -0.166 F 
HETATM   22  F   UNK N   1      28.071  19.129   8.483  0.00  0.00    -0.166 F 
HETATM   23  F   UNK N   1      28.171  17.086   9.415  0.00  0.00    -0.166 F 
ENDBRANCH  15  20
ENDBRANCH  10  13
ENDBRANCH   1   7
BRANCH   2  24
HETATM   24  O   UNK N   1      36.986  12.691  13.045  0.00  0.00    -0.311 OA
BRANCH  24  25
HETATM   25  C   UNK N   1      36.131  12.019  13.863  0.00  0.00     0.079 A 
HETATM   26  C   UNK N   1      36.054  12.368  15.218  0.00  0.00     0.072 A 
HETATM   27  C   UNK N   1      35.217  11.705  16.084  0.00  0.00     0.103 A 
HETATM   28  N   UNK N   1      34.440  10.689  15.615  0.00  0.00    -0.361 N 
HETATM   29  C   UNK N   1      34.476  10.323  14.297  0.00  0.00     0.091 A 
ATOM     30  HN  UNK N   1      33.821  10.194  16.256  1.00  0.00     0.165 HD
HETATM   31  C   UNK N   1      35.327  10.982  13.392  0.00  0.00     0.054 A 
BRANCH  27  32
HETATM   32  C   UNK N   1      35.217  12.115  17.503  0.00  0.00     0.267 C 
HETATM   33  O   UNK N   1      35.128  13.305  17.787  0.00  0.00    -0.266 OA
HETATM   34  N   UNK N   1      35.330  11.191  18.483  0.00  0.00    -0.360 N 
HETATM   35  C   UNK N   1      35.355  11.575  19.873  0.00  0.00     0.149 C 
HETATM   36  H   UNK N   1      35.396  10.239  18.244  0.00  0.00     0.162 HD
ENDBRANCH  27  32
ENDBRANCH  24  25
ENDBRANCH   2  24
TORSDOF 6
ENDMDL
MODEL 7
REMARK VINA RESULT:      -8.2      2.012      2.453
REMARK  6 active torsions:
REMARK  status: ('A' for Active; 'I' for Inactive)
REMARK    1  A    between atoms: O_5  and  C_18 
REMARK    2  A    between atoms: O_5  and  C_27 
REMARK    3  A    between atoms: N_8  and  C_13 
REMARK       I    between atoms: N_8  and  C_25 
REMARK    4  A    between atoms: N_9  and  C_16 
REMARK       I    between atoms: N_9  and  C_25 
REMARK       I    between atoms: N_12  and  C_32 
REMARK    5  A    between atoms: C_14  and  C_26 
REMARK    6  A    between atoms: C_29  and  C_32 
ROOT
HETATM    1  C   UNK N   1      34.465  15.544   9.183  0.00  0.00     0.036 A 
HETATM    2  C   UNK N   1      32.307  16.851   7.997  0.00  0.00     0.076 A 
HETATM    3  C   UNK N   1      34.478  16.941   9.060  0.00  0.00     0.032 A 
HETATM    4  C   UNK N   1      33.347  14.816   8.772  0.00  0.00     0.032 A 
HETATM    5  C   UNK N   1      33.412  17.590   8.445  0.00  0.00     0.039 A 
HETATM    6  C   UNK N   1      32.275  15.465   8.170  0.00  0.00     0.039 A 
ENDROOT
BRANCH   1   7
HETATM    7  N   UNK N   1      35.465  14.872   9.916  0.00  0.00    -0.309 N 
HETATM    8  C   UNK N   1      35.210  14.500  11.187  0.00  0.00     0.325 C 
HETATM    9  O   UNK N   1      34.163  14.842  11.723  0.00  0.00    -0.247 OA
HETATM   10  N   UNK N   1      36.036  13.616  11.799  0.00  0.00    -0.309 N 
HETATM   11  H   UNK N   1      36.964  13.528  11.482  0.00  0.00     0.170 HD
HETATM   12  H   UNK N   1      36.337  14.675   9.504  0.00  0.00     0.170 HD
BRANCH  10  13
HETATM   13  C   UNK N   1      35.595  12.813  12.886  0.00  0.00     0.037 A 
HETATM   14  C   UNK N   1      35.708  13.281  14.193  0.00  0.00     0.047 A 
HETATM   15  C   UNK N   1      35.361  12.452  15.273  0.00  0.00     0.071 A 
HETATM   16  C   UNK N   1      34.919  11.130  15.023  0.00  0.00     0.049 A 
HETATM   17 Cl   UNK N   1      34.478  10.028  16.317  0.00  0.00    -0.083 Cl
HETATM   18  C   UNK N   1      34.825  10.664  13.718  0.00  0.00     0.027 A 
HETATM   19  C   UNK N   1      35.166  11.494  12.664  0.00  0.00     0.031 A 
BRANCH  15  20
HETATM   20  C   UNK N   1      35.466  12.977  16.675  0.00  0.00     0.419 C 
HETATM   21  F   UNK N   1      36.034  12.013  17.488  0.00  0.00    -0.166 F 
HETATM   22  F   UNK N   1      36.252  14.117  16.723  0.00  0.00    -0.166 F 
HETATM   23  F   UNK N   1      34.203  13.291  17.142  0.00  0.00    -0.166 F 
ENDBRANCH  15  20
ENDBRANCH  10  13
ENDBRANCH   1   7
BRANCH   2  24
HETATM   24  O   UNK N   1      31.440  17.420   7.135  0.00  0.00    -0.311 OA
BRANCH  24  25
HETATM   25  C   UNK N   1      30.145  17.534   7.539  0.00  0.00     0.079 A 
HETATM   26  C   UNK N   1      29.133  16.914   6.796  0.00  0.00     0.072 A 
HETATM   27  C   UNK N   1      27.811  17.016   7.157  0.00  0.00     0.103 A 
HETATM   28  N   UNK N   1      27.476  17.731   8.268  0.00  0.00    -0.361 N 
HETATM   29  C   UNK N   1      28.435  18.343   9.029  0.00  0.00     0.091 A 
ATOM     30  HN  UNK N   1      26.496  17.811   8.536  1.00  0.00     0.165 HD
HETATM   31  C   UNK N   1      29.793  18.258   8.677  0.00  0.00     0.054 A 
BRANCH  27  32
HETATM   32  C   UNK N   1      26.802  16.357   6.303  0.00  0.00     0.267 C 
HETATM   33  O   UNK N   1      26.874  15.149   6.106  0.00  0.00    -0.266 OA
HETATM   34  N   UNK N   1      25.815  17.080   5.728  0.00  0.00    -0.360 N 
HETATM   35  C   UNK N   1      24.835  16.458   4.872  0.00  0.00     0.149 C 
HETATM   36  H   UNK N   1      25.763  18.048   5.897  0.00  0.00     0.162 HD
ENDBRANCH  27  32
ENDBRANCH  24  25
ENDBRANCH   2  24
TORSDOF 6
ENDMDL
MODEL 8
REMARK VINA RESULT:      -7.9      2.270      2.779
REMARK  6 active torsions:
REMARK  status: ('A' for Active; 'I' for Inactive)
REMARK    1  A    between atoms: O_5  and  C_18 
REMARK    2  A    between atoms: O_5  and  C_27 
REMARK    3  A    between atoms: N_8  and  C_13 
REMARK       I    between atoms: N_8  and  C_25 
REMARK    4  A    between atoms: N_9  and  C_16 
REMARK       I    between atoms: N_9  and  C_25 
REMARK       I    between atoms: N_12  and  C_32 
REMARK    5  A    between atoms: C_14  and  C_26 
REMARK    6  A    between atoms: C_29  and  C_32 
ROOT
HETATM    1  C   UNK N   1      34.581  16.709   8.921  0.00  0.00     0.036 A 
HETATM    2  C   UNK N   1      33.615  17.035   6.326  0.00  0.00     0.076 A 
HETATM    3  C   UNK N   1      35.055  15.883   7.890  0.00  0.00     0.032 A 
HETATM    4  C   UNK N   1      33.676  17.733   8.635  0.00  0.00     0.032 A 
HETATM    5  C   UNK N   1      34.554  16.031   6.601  0.00  0.00     0.039 A 
HETATM    6  C   UNK N   1      33.185  17.890   7.345  0.00  0.00     0.039 A 
ENDROOT
BRANCH   1   7
HETATM    7  N   UNK N   1      35.163  16.672  10.204  0.00  0.00    -0.309 N 
HETATM    8  C   UNK N   1      34.992  15.577  10.973  0.00  0.00     0.325 C 
HETATM    9  O   UNK N   1      34.251  14.679  10.595  0.00  0.00    -0.247 OA
HETATM   10  N   UNK N   1      35.770  15.408  12.071  0.00  0.00    -0.309 N 
HETATM   11  H   UNK N   1      36.177  16.197  12.496  0.00  0.00     0.170 HD
HETATM   12  H   UNK N   1      35.689  17.436  10.534  0.00  0.00     0.170 HD
BRANCH  10  13
HETATM   13  C   UNK N   1      36.012  14.120  12.621  0.00  0.00     0.037 A 
HETATM   14  C   UNK N   1      35.421  13.752  13.827  0.00  0.00     0.047 A 
HETATM   15  C   UNK N   1      35.734  12.517  14.421  0.00  0.00     0.071 A 
HETATM   16  C   UNK N   1      36.672  11.662  13.795  0.00  0.00     0.049 A 
HETATM   17 Cl   UNK N   1      37.127  10.109  14.477  0.00  0.00    -0.083 Cl
HETATM   18  C   UNK N   1      37.271  12.043  12.601  0.00  0.00     0.027 A 
HETATM   19  C   UNK N   1      36.950  13.259  12.026  0.00  0.00     0.031 A 
BRANCH  15  20
HETATM   20  C   UNK N   1      35.072  12.125  15.709  0.00  0.00     0.419 C 
HETATM   21  F   UNK N   1      36.033  11.960  16.690  0.00  0.00    -0.166 F 
HETATM   22  F   UNK N   1      34.175  13.094  16.126  0.00  0.00    -0.166 F 
HETATM   23  F   UNK N   1      34.387  10.937  15.529  0.00  0.00    -0.166 F 
ENDBRANCH  15  20
ENDBRANCH  10  13
ENDBRANCH   1   7
BRANCH   2  24
HETATM   24  O   UNK N   1      32.904  16.977   5.181  0.00  0.00    -0.311 OA
BRANCH  24  25
HETATM   25  C   UNK N   1      31.619  16.538   5.269  0.00  0.00     0.079 A 
HETATM   26  C   UNK N   1      30.566  17.449   5.111  0.00  0.00     0.072 A 
HETATM   27  C   UNK N   1      29.253  17.053   5.209  0.00  0.00     0.103 A 
HETATM   28  N   UNK N   1      28.968  15.744   5.459  0.00  0.00    -0.361 N 
HETATM   29  C   UNK N   1      29.965  14.820   5.609  0.00  0.00     0.091 A 
ATOM     30  HN  UNK N   1      27.995  15.449   5.535  1.00  0.00     0.165 HD
HETATM   31  C   UNK N   1      31.315  15.201   5.519  0.00  0.00     0.054 A 
BRANCH  27  32
HETATM   32  C   UNK N   1      28.203  18.081   5.059  0.00  0.00     0.267 C 
HETATM   33  O   UNK N   1      27.297  18.143   5.884  0.00  0.00    -0.266 OA
HETATM   34  N   UNK N   1      28.228  18.938   4.014  0.00  0.00    -0.360 N 
HETATM   35  C   UNK N   1      27.199  19.933   3.839  0.00  0.00     0.149 C 
HETATM   36  H   UNK N   1      28.962  18.882   3.361  0.00  0.00     0.162 HD
ENDBRANCH  27  32
ENDBRANCH  24  25
ENDBRANCH   2  24
TORSDOF 6
ENDMDL
MODEL 9
REMARK VINA RESULT:      -7.7      2.794      4.338
REMARK  6 active torsions:
REMARK  status: ('A' for Active; 'I' for Inactive)
REMARK    1  A    between atoms: O_5  and  C_18 
REMARK    2  A    between atoms: O_5  and  C_27 
REMARK    3  A    between atoms: N_8  and  C_13 
REMARK       I    between atoms: N_8  and  C_25 
REMARK    4  A    between atoms: N_9  and  C_16 
REMARK       I    between atoms: N_9  and  C_25 
REMARK       I    between atoms: N_12  and  C_32 
REMARK    5  A    between atoms: C_14  and  C_26 
REMARK    6  A    between atoms: C_29  and  C_32 
ROOT
HETATM    1  C   UNK N   1      31.402  17.288   7.805  0.00  0.00     0.036 A 
HETATM    2  C   UNK N   1      29.356  17.358   5.912  0.00  0.00     0.076 A 
HETATM    3  C   UNK N   1      31.707  17.146   6.443  0.00  0.00     0.032 A 
HETATM    4  C   UNK N   1      30.087  17.528   8.206  0.00  0.00     0.032 A 
HETATM    5  C   UNK N   1      30.682  17.157   5.502  0.00  0.00     0.039 A 
HETATM    6  C   UNK N   1      29.064  17.552   7.266  0.00  0.00     0.039 A 
ENDROOT
BRANCH   1   7
HETATM    7  N   UNK N   1      32.426  17.414   8.767  0.00  0.00    -0.309 N 
HETATM    8  C   UNK N   1      32.935  16.301   9.334  0.00  0.00     0.325 C 
HETATM    9  O   UNK N   1      32.434  15.211   9.092  0.00  0.00    -0.247 OA
HETATM   10  N   UNK N   1      34.094  16.383  10.032  0.00  0.00    -0.309 N 
HETATM   11  H   UNK N   1      34.362  17.248  10.419  0.00  0.00     0.170 HD
HETATM   12  H   UNK N   1      32.765  18.303   9.019  0.00  0.00     0.170 HD
BRANCH  10  13
HETATM   13  C   UNK N   1      34.934  15.250  10.218  0.00  0.00     0.037 A 
HETATM   14  C   UNK N   1      34.972  14.602  11.450  0.00  0.00     0.047 A 
HETATM   15  C   UNK N   1      35.870  13.542  11.664  0.00  0.00     0.071 A 
HETATM   16  C   UNK N   1      36.752  13.156  10.626  0.00  0.00     0.049 A 
HETATM   17 Cl   UNK N   1      37.911  11.852  10.818  0.00  0.00    -0.083 Cl
HETATM   18  C   UNK N   1      36.721  13.819   9.406  0.00  0.00     0.027 A 
HETATM   19  C   UNK N   1      35.828  14.857   9.208  0.00  0.00     0.031 A 
BRANCH  15  20
HETATM   20  C   UNK N   1      35.884  12.839  12.990  0.00  0.00     0.419 C 
HETATM   21  F   UNK N   1      37.143  12.938  13.552  0.00  0.00    -0.166 F 
HETATM   22  F   UNK N   1      34.964  13.397  13.861  0.00  0.00    -0.166 F 
HETATM   23  F   UNK N   1      35.565  11.506  12.803  0.00  0.00    -0.166 F 
ENDBRANCH  15  20
ENDBRANCH  10  13
ENDBRANCH   1   7
BRANCH   2  24
HETATM   24  O   UNK N   1      28.351  17.056   5.066  0.00  0.00    -0.311 OA
BRANCH  24  25
HETATM   25  C   UNK N   1      27.468  18.048   4.769  0.00  0.00     0.079 A 
HETATM   26  C   UNK N   1      26.094  17.818   4.917  0.00  0.00     0.072 A 
HETATM   27  C   UNK N   1      25.167  18.785   4.613  0.00  0.00     0.103 A 
HETATM   28  N   UNK N   1      25.591  19.999   4.163  0.00  0.00    -0.361 N 
HETATM   29  C   UNK N   1      26.924  20.270   4.014  0.00  0.00     0.091 A 
ATOM     30  HN  UNK N   1      24.905  20.716   3.933  1.00  0.00     0.165 HD
HETATM   31  C   UNK N   1      27.892  19.295   4.313  0.00  0.00     0.054 A 
BRANCH  27  32
HETATM   32  C   UNK N   1      23.736  18.451   4.769  0.00  0.00     0.267 C 
HETATM   33  O   UNK N   1      22.908  18.988   4.040  0.00  0.00    -0.266 OA
HETATM   34  N   UNK N   1      23.338  17.574   5.717  0.00  0.00    -0.360 N 
HETATM   35  C   UNK N   1      21.943  17.254   5.900  0.00  0.00     0.149 C 
HETATM   36  H   UNK N   1      24.010  17.146   6.293  0.00  0.00     0.162 HD
ENDBRANCH  27  32
ENDBRANCH  24  25
ENDBRANCH   2  24
TORSDOF 6
ENDMDL
