MODEL 1
REMARK VINA RESULT:      -7.4      0.000      0.000
REMARK  1 active torsions:
REMARK  status: ('A' for Active; 'I' for Inactive)
REMARK    1  A    between atoms: C_12  and  C_17 
ROOT
HETATM    1 Cl   UNK N   1      28.714  14.863   2.125  0.00  0.00    -0.084 Cl
HETATM    2  N   UNK N   1      30.351  17.326   7.355  0.00  0.00    -0.286 N 
HETATM    3  N   UNK N   1      27.602  18.647   7.158  0.00  0.00    -0.381 N 
ATOM      4  HN  UNK N   1      27.035  19.478   7.332  1.00  0.00     0.160 HD
HETATM    5  N   UNK N   1      30.407  18.336   9.328  0.00  0.00    -0.286 N 
ATOM      6  HN  UNK N   1      30.097  18.827  10.167  1.00  0.00     0.188 HD
HETATM    7  N   UNK N   1      31.646  17.965   9.048  0.00  0.00    -0.287 N 
ATOM      8  HN  UNK N   1      32.472  18.123   9.626  1.00  0.00     0.188 HD
HETATM    9  C   UNK N   1      29.873  16.744   6.122  0.00  0.00     0.054 A 
HETATM   10  C   UNK N   1      28.667  17.172   5.457  0.00  0.00     0.020 A 
HETATM   11  C   UNK N   1      29.632  17.944   8.298  0.00  0.00     0.122 A 
HETATM   12  C   UNK N   1      27.730  18.291   5.919  0.00  0.00     0.051 C 
HETATM   13  C   UNK N   1      28.166  18.009   8.311  0.00  0.00     0.198 C 
HETATM   14  C   UNK N   1      31.610  17.338   7.858  0.00  0.00     0.100 A 
HETATM   15  C   UNK N   1      30.671  15.758   5.512  0.00  0.00     0.033 A 
HETATM   16  C   UNK N   1      28.360  16.557   4.229  0.00  0.00     0.040 A 
HETATM   17  C   UNK N   1      30.319  15.172   4.302  0.00  0.00     0.026 A 
HETATM   18  C   UNK N   1      29.159  15.572   3.661  0.00  0.00     0.035 A 
HETATM   19  C   UNK N   1      32.823  16.753   7.214  0.00  0.00     0.091 C 
ENDROOT
BRANCH  12  20
HETATM   20  C   UNK N   1      26.816  18.995   4.944  0.00  0.00    -0.009 A 
HETATM   21  C   UNK N   1      27.268  19.993   4.061  0.00  0.00     0.014 A 
HETATM   22  C   UNK N   1      26.398  20.592   3.144  0.00  0.00     0.001 A 
HETATM   23  C   UNK N   1      25.060  20.201   3.094  0.00  0.00     0.000 A 
HETATM   24  C   UNK N   1      24.589  19.221   3.969  0.00  0.00     0.001 A 
HETATM   25  C   UNK N   1      25.458  18.627   4.888  0.00  0.00     0.014 A 
ENDBRANCH  12  20
TORSDOF 1
ENDMDL
MODEL 2
REMARK VINA RESULT:      -7.0      2.889      5.947
REMARK  1 active torsions:
REMARK  status: ('A' for Active; 'I' for Inactive)
REMARK    1  A    between atoms: C_12  and  C_17 
ROOT
HETATM    1 Cl   UNK N   1      31.238  16.712   9.062  0.00  0.00    -0.084 Cl
HETATM    2  N   UNK N   1      27.369  19.177   5.183  0.00  0.00    -0.286 N 
HETATM    3  N   UNK N   1      28.545  17.098   3.276  0.00  0.00    -0.381 N 
ATOM      4  HN  UNK N   1      28.834  16.874   2.323  1.00  0.00     0.160 HD
HETATM    5  N   UNK N   1      26.034  19.614   3.468  0.00  0.00    -0.286 N 
ATOM      6  HN  UNK N   1      25.545  19.511   2.577  1.00  0.00     0.188 HD
HETATM    7  N   UNK N   1      25.928  20.630   4.309  0.00  0.00    -0.287 N 
ATOM      8  HN  UNK N   1      25.350  21.461   4.186  1.00  0.00     0.188 HD
HETATM    9  C   UNK N   1      28.296  18.510   6.068  0.00  0.00     0.054 A 
HETATM   10  C   UNK N   1      29.262  17.538   5.620  0.00  0.00     0.020 A 
HETATM   11  C   UNK N   1      26.907  18.741   4.006  0.00  0.00     0.122 A 
HETATM   12  C   UNK N   1      29.477  17.077   4.176  0.00  0.00     0.051 C 
HETATM   13  C   UNK N   1      27.157  17.399   3.465  0.00  0.00     0.198 C 
HETATM   14  C   UNK N   1      26.727  20.358   5.357  0.00  0.00     0.100 A 
HETATM   15  C   UNK N   1      28.292  18.888   7.424  0.00  0.00     0.033 A 
HETATM   16  C   UNK N   1      30.143  17.017   6.587  0.00  0.00     0.040 A 
HETATM   17  C   UNK N   1      29.176  18.337   8.343  0.00  0.00     0.026 A 
HETATM   18  C   UNK N   1      30.102  17.398   7.923  0.00  0.00     0.035 A 
HETATM   19  C   UNK N   1      26.858  21.269   6.532  0.00  0.00     0.091 C 
ENDROOT
BRANCH  12  20
HETATM   20  C   UNK N   1      30.790  16.474   3.737  0.00  0.00    -0.009 A 
HETATM   21  C   UNK N   1      31.934  17.251   3.473  0.00  0.00     0.014 A 
HETATM   22  C   UNK N   1      33.143  16.651   3.108  0.00  0.00     0.001 A 
HETATM   23  C   UNK N   1      33.231  15.264   3.002  0.00  0.00     0.000 A 
HETATM   24  C   UNK N   1      32.105  14.475   3.248  0.00  0.00     0.001 A 
HETATM   25  C   UNK N   1      30.895  15.076   3.608  0.00  0.00     0.014 A 
ENDBRANCH  12  20
TORSDOF 1
ENDMDL
MODEL 3
REMARK VINA RESULT:      -6.9     11.476     14.481
REMARK  1 active torsions:
REMARK  status: ('A' for Active; 'I' for Inactive)
REMARK    1  A    between atoms: C_12  and  C_17 
ROOT
HETATM    1 Cl   UNK N   1      37.465  15.947  16.525  0.00  0.00    -0.084 Cl
HETATM    2  N   UNK N   1      35.052  11.713  13.012  0.00  0.00    -0.286 N 
HETATM    3  N   UNK N   1      34.215  10.504  15.691  0.00  0.00    -0.381 N 
ATOM      4  HN  UNK N   1      34.062   9.658  16.240  1.00  0.00     0.160 HD
HETATM    5  N   UNK N   1      33.876  10.028  12.180  0.00  0.00    -0.286 N 
ATOM      6  HN  UNK N   1      33.221   9.246  12.123  1.00  0.00     0.188 HD
HETATM    7  N   UNK N   1      34.617  10.506  11.194  0.00  0.00    -0.287 N 
ATOM      8  HN  UNK N   1      34.649  10.158  10.235  1.00  0.00     0.188 HD
HETATM    9  C   UNK N   1      35.573  12.710  13.919  0.00  0.00     0.054 A 
HETATM   10  C   UNK N   1      35.608  12.541  15.350  0.00  0.00     0.020 A 
HETATM   11  C   UNK N   1      34.146  10.765  13.274  0.00  0.00     0.122 A 
HETATM   12  C   UNK N   1      35.133  11.310  16.125  0.00  0.00     0.051 C 
HETATM   13  C   UNK N   1      33.392  10.667  14.530  0.00  0.00     0.198 C 
HETATM   14  C   UNK N   1      35.320  11.538  11.695  0.00  0.00     0.100 A 
HETATM   15  C   UNK N   1      36.136  13.873  13.359  0.00  0.00     0.033 A 
HETATM   16  C   UNK N   1      36.202  13.572  16.103  0.00  0.00     0.040 A 
HETATM   17  C   UNK N   1      36.702  14.868  14.145  0.00  0.00     0.026 A 
HETATM   18  C   UNK N   1      36.733  14.716  15.521  0.00  0.00     0.035 A 
HETATM   19  C   UNK N   1      36.261  12.352  10.870  0.00  0.00     0.091 C 
ENDROOT
BRANCH  12  20
HETATM   20  C   UNK N   1      35.656  11.011  17.510  0.00  0.00    -0.009 A 
HETATM   21  C   UNK N   1      35.293  11.766  18.641  0.00  0.00     0.014 A 
HETATM   22  C   UNK N   1      35.766  11.432  19.913  0.00  0.00     0.001 A 
HETATM   23  C   UNK N   1      36.611  10.334  20.078  0.00  0.00     0.000 A 
HETATM   24  C   UNK N   1      36.993   9.578  18.968  0.00  0.00     0.001 A 
HETATM   25  C   UNK N   1      36.523   9.916  17.696  0.00  0.00     0.014 A 
ENDBRANCH  12  20
TORSDOF 1
ENDMDL
MODEL 4
REMARK VINA RESULT:      -6.9      7.161     11.214
REMARK  1 active torsions:
REMARK  status: ('A' for Active; 'I' for Inactive)
REMARK    1  A    between atoms: C_12  and  C_17 
ROOT
HETATM    1 Cl   UNK N   1      34.300   9.044  10.625  0.00  0.00    -0.084 Cl
HETATM    2  N   UNK N   1      34.437  15.036  10.208  0.00  0.00    -0.286 N 
HETATM    3  N   UNK N   1      36.243  14.785  12.661  0.00  0.00    -0.381 N 
ATOM      4  HN  UNK N   1      36.532  15.179  13.556  1.00  0.00     0.160 HD
HETATM    5  N   UNK N   1      34.935  17.189  10.384  0.00  0.00    -0.286 N 
ATOM      6  HN  UNK N   1      35.408  18.048  10.669  1.00  0.00     0.188 HD
HETATM    7  N   UNK N   1      33.888  17.099   9.580  0.00  0.00    -0.287 N 
ATOM      8  HN  UNK N   1      33.397  17.874   9.134  1.00  0.00     0.188 HD
HETATM    9  C   UNK N   1      34.482  13.599  10.349  0.00  0.00     0.054 A 
HETATM   10  C   UNK N   1      35.068  12.930  11.484  0.00  0.00     0.020 A 
HETATM   11  C   UNK N   1      35.259  15.937  10.758  0.00  0.00     0.122 A 
HETATM   12  C   UNK N   1      35.704  13.607  12.701  0.00  0.00     0.051 C 
HETATM   13  C   UNK N   1      36.477  15.597  11.504  0.00  0.00     0.198 C 
HETATM   14  C   UNK N   1      33.595  15.791   9.461  0.00  0.00     0.100 A 
HETATM   15  C   UNK N   1      33.856  12.824   9.354  0.00  0.00     0.033 A 
HETATM   16  C   UNK N   1      34.984  11.525  11.515  0.00  0.00     0.040 A 
HETATM   17  C   UNK N   1      33.807  11.438   9.425  0.00  0.00     0.026 A 
HETATM   18  C   UNK N   1      34.374  10.788  10.508  0.00  0.00     0.035 A 
HETATM   19  C   UNK N   1      32.478  15.286   8.609  0.00  0.00     0.091 C 
ENDROOT
BRANCH  12  20
HETATM   20  C   UNK N   1      35.822  12.885  14.022  0.00  0.00    -0.009 A 
HETATM   21  C   UNK N   1      34.861  13.003  15.043  0.00  0.00     0.014 A 
HETATM   22  C   UNK N   1      34.985  12.286  16.237  0.00  0.00     0.001 A 
HETATM   23  C   UNK N   1      36.073  11.435  16.430  0.00  0.00     0.000 A 
HETATM   24  C   UNK N   1      37.045  11.312  15.435  0.00  0.00     0.001 A 
HETATM   25  C   UNK N   1      36.921  12.033  14.244  0.00  0.00     0.014 A 
ENDBRANCH  12  20
TORSDOF 1
ENDMDL
MODEL 5
REMARK VINA RESULT:      -6.8      5.366      8.455
REMARK  1 active torsions:
REMARK  status: ('A' for Active; 'I' for Inactive)
REMARK    1  A    between atoms: C_12  and  C_17 
ROOT
HETATM    1 Cl   UNK N   1      26.891  20.350   4.151  0.00  0.00    -0.084 Cl
HETATM    2  N   UNK N   1      21.229  18.590   3.181  0.00  0.00    -0.286 N 
HETATM    3  N   UNK N   1      22.020  16.307   5.053  0.00  0.00    -0.381 N 
ATOM      4  HN  UNK N   1      21.931  15.317   5.284  1.00  0.00     0.160 HD
HETATM    5  N   UNK N   1      19.232  17.632   3.280  0.00  0.00    -0.286 N 
ATOM      6  HN  UNK N   1      18.464  17.037   3.595  1.00  0.00     0.188 HD
HETATM    7  N   UNK N   1      19.211  18.464   2.251  0.00  0.00    -0.287 N 
ATOM      8  HN  UNK N   1      18.428  18.625   1.618  1.00  0.00     0.188 HD
HETATM    9  C   UNK N   1      22.588  18.970   3.491  0.00  0.00     0.054 A 
HETATM   10  C   UNK N   1      23.504  18.123   4.214  0.00  0.00     0.020 A 
HETATM   11  C   UNK N   1      20.456  17.716   3.836  0.00  0.00     0.122 A 
HETATM   12  C   UNK N   1      23.209  16.716   4.740  0.00  0.00     0.051 C 
HETATM   13  C   UNK N   1      20.818  17.085   5.110  0.00  0.00     0.198 C 
HETATM   14  C   UNK N   1      20.418  19.056   2.200  0.00  0.00     0.100 A 
HETATM   15  C   UNK N   1      23.051  20.204   2.998  0.00  0.00     0.033 A 
HETATM   16  C   UNK N   1      24.817  18.600   4.388  0.00  0.00     0.040 A 
HETATM   17  C   UNK N   1      24.354  20.637   3.204  0.00  0.00     0.026 A 
HETATM   18  C   UNK N   1      25.239  19.832   3.903  0.00  0.00     0.035 A 
HETATM   19  C   UNK N   1      20.772  20.084   1.177  0.00  0.00     0.091 C 
ENDROOT
BRANCH  12  20
HETATM   20  C   UNK N   1      24.326  15.736   5.015  0.00  0.00    -0.009 A 
HETATM   21  C   UNK N   1      24.799  15.466   6.312  0.00  0.00     0.014 A 
HETATM   22  C   UNK N   1      25.807  14.521   6.530  0.00  0.00     0.001 A 
HETATM   23  C   UNK N   1      26.358  13.828   5.453  0.00  0.00     0.000 A 
HETATM   24  C   UNK N   1      25.911  14.089   4.156  0.00  0.00     0.001 A 
HETATM   25  C   UNK N   1      24.907  15.037   3.940  0.00  0.00     0.014 A 
ENDBRANCH  12  20
TORSDOF 1
ENDMDL
MODEL 6
REMARK VINA RESULT:      -6.7      2.328      6.462
REMARK  1 active torsions:
REMARK  status: ('A' for Active; 'I' for Inactive)
REMARK    1  A    between atoms: C_12  and  C_17 
ROOT
HETATM    1 Cl   UNK N   1      33.423  15.937   3.089  0.00  0.00    -0.084 Cl
HETATM    2  N   UNK N   1      29.435  17.860   7.151  0.00  0.00    -0.286 N 
HETATM    3  N   UNK N   1      31.692  17.219   9.109  0.00  0.00    -0.381 N 
ATOM      4  HN  UNK N   1      31.954  16.869  10.031  1.00  0.00     0.160 HD
HETATM    5  N   UNK N   1      28.418  18.610   8.972  0.00  0.00    -0.286 N 
ATOM      6  HN  UNK N   1      28.273  18.935   9.929  1.00  0.00     0.188 HD
HETATM    7  N   UNK N   1      27.491  18.480   8.037  0.00  0.00    -0.287 N 
ATOM      8  HN  UNK N   1      26.495  18.678   8.139  1.00  0.00     0.188 HD
HETATM    9  C   UNK N   1      30.458  17.420   6.230  0.00  0.00     0.054 A 
HETATM   10  C   UNK N   1      31.700  16.820   6.651  0.00  0.00     0.020 A 
HETATM   11  C   UNK N   1      29.590  18.233   8.426  0.00  0.00     0.122 A 
HETATM   12  C   UNK N   1      32.123  16.538   8.094  0.00  0.00     0.051 C 
HETATM   13  C   UNK N   1      30.891  18.406   9.084  0.00  0.00     0.198 C 
HETATM   14  C   UNK N   1      28.110  18.039   6.927  0.00  0.00     0.100 A 
HETATM   15  C   UNK N   1      30.188  17.525   4.853  0.00  0.00     0.033 A 
HETATM   16  C   UNK N   1      32.576  16.382   5.639  0.00  0.00     0.040 A 
HETATM   17  C   UNK N   1      31.089  17.087   3.891  0.00  0.00     0.026 A 
HETATM   18  C   UNK N   1      32.287  16.516   4.286  0.00  0.00     0.035 A 
HETATM   19  C   UNK N   1      27.391  17.792   5.643  0.00  0.00     0.091 C 
ENDROOT
BRANCH  12  20
HETATM   20  C   UNK N   1      33.159  15.486   8.412  0.00  0.00    -0.009 A 
HETATM   21  C   UNK N   1      34.513  15.794   8.637  0.00  0.00     0.014 A 
HETATM   22  C   UNK N   1      35.434  14.795   8.970  0.00  0.00     0.001 A 
HETATM   23  C   UNK N   1      35.016  13.470   9.086  0.00  0.00     0.000 A 
HETATM   24  C   UNK N   1      33.679  13.141   8.855  0.00  0.00     0.001 A 
HETATM   25  C   UNK N   1      32.760  14.139   8.518  0.00  0.00     0.014 A 
ENDBRANCH  12  20
TORSDOF 1
ENDMDL
MODEL 7
REMARK VINA RESULT:      -6.7     10.993     13.939
REMARK  1 active torsions:
REMARK  status: ('A' for Active; 'I' for Inactive)
REMARK    1  A    between atoms: C_12  and  C_17 
ROOT
HETATM    1 Cl   UNK N   1      38.960   8.273  15.613  0.00  0.00    -0.084 Cl
HETATM    2  N   UNK N   1      35.568  11.802  12.130  0.00  0.00    -0.286 N 
HETATM    3  N   UNK N   1      35.423  13.513  14.658  0.00  0.00    -0.381 N 
ATOM      4  HN  UNK N   1      34.860  14.127  15.247  1.00  0.00     0.160 HD
HETATM    5  N   UNK N   1      34.429  13.483  11.240  0.00  0.00    -0.286 N 
ATOM      6  HN  UNK N   1      34.015  14.408  11.119  1.00  0.00     0.188 HD
HETATM    7  N   UNK N   1      34.323  12.460  10.407  0.00  0.00    -0.287 N 
ATOM      8  HN  UNK N   1      33.806  12.446   9.527  1.00  0.00     0.188 HD
HETATM    9  C   UNK N   1      36.404  11.025  13.016  0.00  0.00     0.054 A 
HETATM   10  C   UNK N   1      36.535  11.296  14.425  0.00  0.00     0.020 A 
HETATM   11  C   UNK N   1      35.183  13.075  12.278  0.00  0.00     0.122 A 
HETATM   12  C   UNK N   1      35.820  12.405  15.201  0.00  0.00     0.051 C 
HETATM   13  C   UNK N   1      35.683  13.972  13.326  0.00  0.00     0.198 C 
HETATM   14  C   UNK N   1      35.027  11.445  10.939  0.00  0.00     0.100 A 
HETATM   15  C   UNK N   1      37.064   9.904  12.476  0.00  0.00     0.033 A 
HETATM   16  C   UNK N   1      37.336  10.415  15.176  0.00  0.00     0.040 A 
HETATM   17  C   UNK N   1      37.853   9.069  13.257  0.00  0.00     0.026 A 
HETATM   18  C   UNK N   1      37.990   9.328  14.610  0.00  0.00     0.035 A 
HETATM   19  C   UNK N   1      35.163  10.117  10.271  0.00  0.00     0.091 C 
ENDROOT
BRANCH  12  20
HETATM   20  C   UNK N   1      35.617  12.306  16.695  0.00  0.00    -0.009 A 
HETATM   21  C   UNK N   1      35.668  11.084  17.390  0.00  0.00     0.014 A 
HETATM   22  C   UNK N   1      35.515  11.038  18.780  0.00  0.00     0.001 A 
HETATM   23  C   UNK N   1      35.310  12.216  19.498  0.00  0.00     0.000 A 
HETATM   24  C   UNK N   1      35.245  13.438  18.826  0.00  0.00     0.001 A 
HETATM   25  C   UNK N   1      35.393  13.481  17.438  0.00  0.00     0.014 A 
ENDBRANCH  12  20
TORSDOF 1
ENDMDL
MODEL 8
REMARK VINA RESULT:      -6.6      2.930      5.966
REMARK  1 active torsions:
REMARK  status: ('A' for Active; 'I' for Inactive)
REMARK    1  A    between atoms: C_12  and  C_17 
ROOT
HETATM    1 Cl   UNK N   1      33.310  16.374   2.813  0.00  0.00    -0.084 Cl
HETATM    2  N   UNK N   1      28.215  16.068   5.982  0.00  0.00    -0.286 N 
HETATM    3  N   UNK N   1      29.891  17.503   8.097  0.00  0.00    -0.381 N 
ATOM      4  HN  UNK N   1      30.103  17.623   9.088  1.00  0.00     0.160 HD
HETATM    5  N   UNK N   1      26.584  16.352   7.456  0.00  0.00    -0.286 N 
ATOM      6  HN  UNK N   1      26.065  16.705   8.262  1.00  0.00     0.188 HD
HETATM    7  N   UNK N   1      26.165  15.448   6.586  0.00  0.00    -0.287 N 
ATOM      8  HN  UNK N   1      25.266  14.966   6.598  1.00  0.00     0.188 HD
HETATM    9  C   UNK N   1      29.463  16.213   5.268  0.00  0.00     0.054 A 
HETATM   10  C   UNK N   1      30.681  16.677   5.884  0.00  0.00     0.020 A 
HETATM   11  C   UNK N   1      27.824  16.721   7.082  0.00  0.00     0.122 A 
HETATM   12  C   UNK N   1      30.859  17.066   7.354  0.00  0.00     0.051 C 
HETATM   13  C   UNK N   1      28.560  17.838   7.686  0.00  0.00     0.198 C 
HETATM   14  C   UNK N   1      27.149  15.287   5.682  0.00  0.00     0.100 A 
HETATM   15  C   UNK N   1      29.495  15.809   3.920  0.00  0.00     0.033 A 
HETATM   16  C   UNK N   1      31.836  16.707   5.078  0.00  0.00     0.040 A 
HETATM   17  C   UNK N   1      30.658  15.866   3.163  0.00  0.00     0.026 A 
HETATM   18  C   UNK N   1      31.831  16.318   3.744  0.00  0.00     0.035 A 
HETATM   19  C   UNK N   1      27.037  14.356   4.521  0.00  0.00     0.091 C 
ENDROOT
BRANCH  12  20
HETATM   20  C   UNK N   1      32.220  17.046   8.007  0.00  0.00    -0.009 A 
HETATM   21  C   UNK N   1      32.687  15.953   8.761  0.00  0.00     0.014 A 
HETATM   22  C   UNK N   1      33.971  15.956   9.316  0.00  0.00     0.001 A 
HETATM   23  C   UNK N   1      34.811  17.052   9.124  0.00  0.00     0.000 A 
HETATM   24  C   UNK N   1      34.364  18.151   8.389  0.00  0.00     0.001 A 
HETATM   25  C   UNK N   1      33.079  18.149   7.839  0.00  0.00     0.014 A 
ENDBRANCH  12  20
TORSDOF 1
ENDMDL
MODEL 9
REMARK VINA RESULT:      -6.5     13.252     14.489
REMARK  1 active torsions:
REMARK  status: ('A' for Active; 'I' for Inactive)
REMARK    1  A    between atoms: C_12  and  C_17 
ROOT
HETATM    1 Cl   UNK N   1      31.280  23.966  -4.299  0.00  0.00    -0.084 Cl
HETATM    2  N   UNK N   1      27.859  28.880  -3.811  0.00  0.00    -0.286 N 
HETATM    3  N   UNK N   1      25.629  26.942  -4.593  0.00  0.00    -0.381 N 
ATOM      4  HN  UNK N   1      24.758  26.798  -5.104  1.00  0.00     0.160 HD
HETATM    5  N   UNK N   1      26.184  30.318  -3.608  0.00  0.00    -0.286 N 
ATOM      6  HN  UNK N   1      25.235  30.684  -3.522  1.00  0.00     0.188 HD
HETATM    7  N   UNK N   1      27.300  31.027  -3.639  0.00  0.00    -0.287 N 
ATOM      8  HN  UNK N   1      27.374  32.044  -3.590  1.00  0.00     0.188 HD
HETATM    9  C   UNK N   1      28.610  27.650  -3.911  0.00  0.00     0.054 A 
HETATM   10  C   UNK N   1      28.061  26.425  -4.437  0.00  0.00     0.020 A 
HETATM   11  C   UNK N   1      26.533  29.021  -3.713  0.00  0.00     0.122 A 
HETATM   12  C   UNK N   1      26.642  26.231  -4.977  0.00  0.00     0.051 C 
HETATM   13  C   UNK N   1      25.594  27.907  -3.535  0.00  0.00     0.198 C 
HETATM   14  C   UNK N   1      28.318  30.154  -3.747  0.00  0.00     0.100 A 
HETATM   15  C   UNK N   1      29.967  27.680  -3.538  0.00  0.00     0.033 A 
HETATM   16  C   UNK N   1      28.930  25.321  -4.532  0.00  0.00     0.040 A 
HETATM   17  C   UNK N   1      30.783  26.561  -3.642  0.00  0.00     0.026 A 
HETATM   18  C   UNK N   1      30.261  25.378  -4.139  0.00  0.00     0.035 A 
HETATM   19  C   UNK N   1      29.748  30.579  -3.790  0.00  0.00     0.091 C 
ENDROOT
BRANCH  12  20
HETATM   20  C   UNK N   1      26.321  25.114  -5.942  0.00  0.00    -0.009 A 
HETATM   21  C   UNK N   1      25.995  23.812  -5.519  0.00  0.00     0.014 A 
HETATM   22  C   UNK N   1      25.664  22.815  -6.442  0.00  0.00     0.001 A 
HETATM   23  C   UNK N   1      25.650  23.104  -7.806  0.00  0.00     0.000 A 
HETATM   24  C   UNK N   1      25.982  24.386  -8.249  0.00  0.00     0.001 A 
HETATM   25  C   UNK N   1      26.318  25.380  -7.325  0.00  0.00     0.014 A 
ENDBRANCH  12  20
TORSDOF 1
ENDMDL
