MODEL 1
REMARK VINA RESULT:      -6.2      0.000      0.000
REMARK  4 active torsions:
REMARK  status: ('A' for Active; 'I' for Inactive)
REMARK    1  A    between atoms: O_1  and  C_11 
REMARK    2  A    between atoms: C_4  and  C_6 
REMARK    3  A    between atoms: C_6  and  C_10 
REMARK    4  A    between atoms: C_6  and  C_11 
ROOT
HETATM    1  C   UNK N   1      33.207  17.150   8.125  0.00  0.00     0.140 C 
ENDROOT
BRANCH   1   2
HETATM    2  C   UNK N   1      33.869  16.287   9.230  0.00  0.00     0.094 C 
HETATM    3  N   UNK N   1      34.728  17.123  10.078  0.00  0.00    -0.416 N 
HETATM    4  C   UNK N   1      35.253  16.332  11.189  0.00  0.00     0.114 C 
HETATM    5  H   UNK N   1      34.928  18.110   9.917  0.00  0.00     0.153 HD
HETATM    6  C   UNK N   1      36.157  15.224  10.659  0.00  0.00     0.019 C 
HETATM    7  C   UNK N   1      35.344  14.321   9.741  0.00  0.00     0.004 C 
HETATM    8  C   UNK N   1      34.711  15.153   8.632  0.00  0.00     0.026 C 
ENDBRANCH   1   2
BRANCH   1   9
HETATM    9  C   UNK N   1      31.721  17.471   8.111  0.00  0.00    -0.043 A 
HETATM   10  C   UNK N   1      30.855  16.766   7.256  0.00  0.00     0.008 A 
HETATM   11  C   UNK N   1      29.479  17.007   7.277  0.00  0.00     0.001 A 
HETATM   12  C   UNK N   1      28.948  17.945   8.165  0.00  0.00     0.000 A 
HETATM   13  C   UNK N   1      29.795  18.652   9.019  0.00  0.00     0.001 A 
HETATM   14  C   UNK N   1      31.173  18.417   8.991  0.00  0.00     0.008 A 
ENDBRANCH   1   9
BRANCH   1  15
HETATM   15  C   UNK N   1      34.112  17.995   7.258  0.00  0.00     0.269 C 
HETATM   16  O   UNK N   1      34.865  18.792   7.785  0.00  0.00    -0.264 OA
BRANCH  15  17
HETATM   17  O   UNK N   1      34.102  17.834   5.909  0.00  0.00    -0.326 OA
HETATM   18  C   UNK N   1      33.953  16.595   5.328  0.00  0.00     0.213 C 
ENDBRANCH  15  17
ENDBRANCH   1  15
TORSDOF 4
ENDMDL
MODEL 2
REMARK VINA RESULT:      -6.0      2.011      4.351
REMARK  4 active torsions:
REMARK  status: ('A' for Active; 'I' for Inactive)
REMARK    1  A    between atoms: O_1  and  C_11 
REMARK    2  A    between atoms: C_4  and  C_6 
REMARK    3  A    between atoms: C_6  and  C_10 
REMARK    4  A    between atoms: C_6  and  C_11 
ROOT
HETATM    1  C   UNK N   1      32.368  17.289   6.787  0.00  0.00     0.140 C 
ENDROOT
BRANCH   1   2
HETATM    2  C   UNK N   1      32.354  16.588   5.404  0.00  0.00     0.094 C 
HETATM    3  N   UNK N   1      33.604  15.845   5.201  0.00  0.00    -0.416 N 
HETATM    4  C   UNK N   1      33.537  15.088   3.952  0.00  0.00     0.114 C 
HETATM    5  H   UNK N   1      34.402  15.855   5.837  0.00  0.00     0.153 HD
HETATM    6  C   UNK N   1      33.433  16.043   2.768  0.00  0.00     0.019 C 
HETATM    7  C   UNK N   1      32.168  16.877   2.918  0.00  0.00     0.004 C 
HETATM    8  C   UNK N   1      32.183  17.596   4.261  0.00  0.00     0.026 C 
ENDBRANCH   1   2
BRANCH   1   9
HETATM    9  C   UNK N   1      31.105  17.545   7.593  0.00  0.00    -0.043 A 
HETATM   10  C   UNK N   1      31.155  18.349   8.746  0.00  0.00     0.008 A 
HETATM   11  C   UNK N   1      29.991  18.643   9.461  0.00  0.00     0.001 A 
HETATM   12  C   UNK N   1      28.759  18.152   9.024  0.00  0.00     0.000 A 
HETATM   13  C   UNK N   1      28.695  17.353   7.881  0.00  0.00     0.001 A 
HETATM   14  C   UNK N   1      29.861  17.051   7.171  0.00  0.00     0.008 A 
ENDBRANCH   1   9
BRANCH   1  15
HETATM   15  C   UNK N   1      33.691  17.381   7.513  0.00  0.00     0.269 C 
HETATM   16  O   UNK N   1      34.457  18.284   7.238  0.00  0.00    -0.264 OA
BRANCH  15  17
HETATM   17  O   UNK N   1      33.996  16.480   8.483  0.00  0.00    -0.326 OA
HETATM   18  C   UNK N   1      34.727  16.832   9.595  0.00  0.00     0.213 C 
ENDBRANCH  15  17
ENDBRANCH   1  15
TORSDOF 4
ENDMDL
MODEL 3
REMARK VINA RESULT:      -6.0      1.686      4.895
REMARK  4 active torsions:
REMARK  status: ('A' for Active; 'I' for Inactive)
REMARK    1  A    between atoms: O_1  and  C_11 
REMARK    2  A    between atoms: C_4  and  C_6 
REMARK    3  A    between atoms: C_6  and  C_10 
REMARK    4  A    between atoms: C_6  and  C_11 
ROOT
HETATM    1  C   UNK N   1      32.564  17.324   7.075  0.00  0.00     0.140 C 
ENDROOT
BRANCH   1   2
HETATM    2  C   UNK N   1      31.189  17.826   7.585  0.00  0.00     0.094 C 
HETATM    3  N   UNK N   1      31.238  18.044   9.037  0.00  0.00    -0.416 N 
HETATM    4  C   UNK N   1      29.980  18.631   9.496  0.00  0.00     0.114 C 
HETATM    5  H   UNK N   1      32.031  17.818   9.637  0.00  0.00     0.153 HD
HETATM    6  C   UNK N   1      28.833  17.653   9.267  0.00  0.00     0.019 C 
HETATM    7  C   UNK N   1      28.731  17.351   7.779  0.00  0.00     0.004 C 
HETATM    8  C   UNK N   1      30.069  16.828   7.269  0.00  0.00     0.026 C 
ENDBRANCH   1   2
BRANCH   1   9
HETATM    9  C   UNK N   1      32.780  16.819   5.658  0.00  0.00    -0.043 A 
HETATM   10  C   UNK N   1      32.291  17.555   4.563  0.00  0.00     0.008 A 
HETATM   11  C   UNK N   1      32.536  17.135   3.254  0.00  0.00     0.001 A 
HETATM   12  C   UNK N   1      33.288  15.981   3.020  0.00  0.00     0.000 A 
HETATM   13  C   UNK N   1      33.780  15.241   4.095  0.00  0.00     0.001 A 
HETATM   14  C   UNK N   1      33.526  15.657   5.406  0.00  0.00     0.008 A 
ENDBRANCH   1   9
BRANCH   1  15
HETATM   15  C   UNK N   1      33.788  17.693   7.880  0.00  0.00     0.269 C 
HETATM   16  O   UNK N   1      34.625  18.424   7.387  0.00  0.00    -0.264 OA
BRANCH  15  17
HETATM   17  O   UNK N   1      33.927  17.234   9.151  0.00  0.00    -0.326 OA
HETATM   18  C   UNK N   1      34.309  15.937   9.416  0.00  0.00     0.213 C 
ENDBRANCH  15  17
ENDBRANCH   1  15
TORSDOF 4
ENDMDL
MODEL 4
REMARK VINA RESULT:      -5.7      6.995      9.877
REMARK  4 active torsions:
REMARK  status: ('A' for Active; 'I' for Inactive)
REMARK    1  A    between atoms: O_1  and  C_11 
REMARK    2  A    between atoms: C_4  and  C_6 
REMARK    3  A    between atoms: C_6  and  C_10 
REMARK    4  A    between atoms: C_6  and  C_11 
ROOT
HETATM    1  C   UNK N   1      34.923  11.940  15.232  0.00  0.00     0.140 C 
ENDROOT
BRANCH   1   2
HETATM    2  C   UNK N   1      35.023  13.105  14.214  0.00  0.00     0.094 C 
HETATM    3  N   UNK N   1      34.803  12.604  12.851  0.00  0.00    -0.416 N 
HETATM    4  C   UNK N   1      34.777  13.721  11.908  0.00  0.00     0.114 C 
HETATM    5  H   UNK N   1      34.686  11.623  12.598  0.00  0.00     0.153 HD
HETATM    6  C   UNK N   1      36.137  14.410  11.876  0.00  0.00     0.019 C 
HETATM    7  C   UNK N   1      36.456  14.936  13.268  0.00  0.00     0.004 C 
HETATM    8  C   UNK N   1      36.391  13.795  14.276  0.00  0.00     0.026 C 
ENDBRANCH   1   2
BRANCH   1   9
HETATM    9  C   UNK N   1      35.131  12.133  16.725  0.00  0.00    -0.043 A 
HETATM   10  C   UNK N   1      34.984  13.409  17.299  0.00  0.00     0.008 A 
HETATM   11  C   UNK N   1      35.112  13.590  18.678  0.00  0.00     0.001 A 
HETATM   12  C   UNK N   1      35.371  12.494  19.506  0.00  0.00     0.000 A 
HETATM   13  C   UNK N   1      35.519  11.222  18.950  0.00  0.00     0.001 A 
HETATM   14  C   UNK N   1      35.401  11.044  17.568  0.00  0.00     0.008 A 
ENDBRANCH   1   9
BRANCH   1  15
HETATM   15  C   UNK N   1      34.241  10.669  14.780  0.00  0.00     0.269 C 
HETATM   16  O   UNK N   1      33.051  10.690  14.532  0.00  0.00    -0.264 OA
BRANCH  15  17
HETATM   17  O   UNK N   1      34.966   9.531  14.623  0.00  0.00    -0.326 OA
HETATM   18  C   UNK N   1      36.283   9.559  14.223  0.00  0.00     0.213 C 
ENDBRANCH  15  17
ENDBRANCH   1  15
TORSDOF 4
ENDMDL
MODEL 5
REMARK VINA RESULT:      -5.5     16.635     18.811
REMARK  4 active torsions:
REMARK  status: ('A' for Active; 'I' for Inactive)
REMARK    1  A    between atoms: O_1  and  C_11 
REMARK    2  A    between atoms: C_4  and  C_6 
REMARK    3  A    between atoms: C_6  and  C_10 
REMARK    4  A    between atoms: C_6  and  C_11 
ROOT
HETATM    1  C   UNK N   1      26.627  23.010  -7.802  0.00  0.00     0.140 C 
ENDROOT
BRANCH   1   2
HETATM    2  C   UNK N   1      26.492  24.285  -6.932  0.00  0.00     0.094 C 
HETATM    3  N   UNK N   1      25.526  24.059  -5.849  0.00  0.00    -0.416 N 
HETATM    4  C   UNK N   1      25.492  25.219  -4.960  0.00  0.00     0.114 C 
HETATM    5  H   UNK N   1      24.963  23.217  -5.732  0.00  0.00     0.153 HD
HETATM    6  C   UNK N   1      24.979  26.440  -5.716  0.00  0.00     0.019 C 
HETATM    7  C   UNK N   1      25.916  26.728  -6.881  0.00  0.00     0.004 C 
HETATM    8  C   UNK N   1      26.034  25.491  -7.762  0.00  0.00     0.026 C 
ENDBRANCH   1   2
BRANCH   1   9
HETATM    9  C   UNK N   1      27.725  21.980  -7.589  0.00  0.00    -0.043 A 
HETATM   10  C   UNK N   1      28.734  22.212  -6.637  0.00  0.00     0.008 A 
HETATM   11  C   UNK N   1      29.714  21.249  -6.387  0.00  0.00     0.001 A 
HETATM   12  C   UNK N   1      29.689  20.032  -7.073  0.00  0.00     0.000 A 
HETATM   13  C   UNK N   1      28.693  19.788  -8.020  0.00  0.00     0.001 A 
HETATM   14  C   UNK N   1      27.718  20.757  -8.277  0.00  0.00     0.008 A 
ENDBRANCH   1   9
BRANCH   1  15
HETATM   15  C   UNK N   1      25.431  22.595  -8.629  0.00  0.00     0.269 C 
HETATM   16  O   UNK N   1      24.372  22.378  -8.074  0.00  0.00    -0.264 OA
BRANCH  15  17
HETATM   17  O   UNK N   1      25.541  22.502  -9.980  0.00  0.00    -0.326 OA
HETATM   18  C   UNK N   1      26.252  23.425 -10.715  0.00  0.00     0.213 C 
ENDBRANCH  15  17
ENDBRANCH   1  15
TORSDOF 4
ENDMDL
MODEL 6
REMARK VINA RESULT:      -5.4     14.985     17.175
REMARK  4 active torsions:
REMARK  status: ('A' for Active; 'I' for Inactive)
REMARK    1  A    between atoms: O_1  and  C_11 
REMARK    2  A    between atoms: C_4  and  C_6 
REMARK    3  A    between atoms: C_6  and  C_10 
REMARK    4  A    between atoms: C_6  and  C_11 
ROOT
HETATM    1  C   UNK N   1      27.181  24.327  -4.765  0.00  0.00     0.140 C 
ENDROOT
BRANCH   1   2
HETATM    2  C   UNK N   1      26.849  25.813  -5.057  0.00  0.00     0.094 C 
HETATM    3  N   UNK N   1      27.377  26.669  -3.987  0.00  0.00    -0.416 N 
HETATM    4  C   UNK N   1      27.169  28.075  -4.326  0.00  0.00     0.114 C 
HETATM    5  H   UNK N   1      27.824  26.333  -3.134  0.00  0.00     0.153 HD
HETATM    6  C   UNK N   1      25.677  28.381  -4.394  0.00  0.00     0.019 C 
HETATM    7  C   UNK N   1      25.043  27.508  -5.468  0.00  0.00     0.004 C 
HETATM    8  C   UNK N   1      25.337  26.041  -5.176  0.00  0.00     0.026 C 
ENDBRANCH   1   2
BRANCH   1   9
HETATM    9  C   UNK N   1      27.325  23.285  -5.862  0.00  0.00    -0.043 A 
HETATM   10  C   UNK N   1      26.197  22.868  -6.592  0.00  0.00     0.008 A 
HETATM   11  C   UNK N   1      26.325  21.957  -7.643  0.00  0.00     0.001 A 
HETATM   12  C   UNK N   1      27.584  21.463  -7.991  0.00  0.00     0.000 A 
HETATM   13  C   UNK N   1      28.712  21.868  -7.276  0.00  0.00     0.001 A 
HETATM   14  C   UNK N   1      28.582  22.772  -6.216  0.00  0.00     0.008 A 
ENDBRANCH   1   9
BRANCH   1  15
HETATM   15  C   UNK N   1      27.738  23.988  -3.401  0.00  0.00     0.269 C 
HETATM   16  O   UNK N   1      26.971  23.776  -2.482  0.00  0.00    -0.264 OA
BRANCH  15  17
HETATM   17  O   UNK N   1      29.082  23.892  -3.223  0.00  0.00    -0.326 OA
HETATM   18  C   UNK N   1      29.629  23.061  -2.271  0.00  0.00     0.213 C 
ENDBRANCH  15  17
ENDBRANCH   1  15
TORSDOF 4
ENDMDL
MODEL 7
REMARK VINA RESULT:      -5.3      4.505      7.249
REMARK  4 active torsions:
REMARK  status: ('A' for Active; 'I' for Inactive)
REMARK    1  A    between atoms: O_1  and  C_11 
REMARK    2  A    between atoms: C_4  and  C_6 
REMARK    3  A    between atoms: C_6  and  C_10 
REMARK    4  A    between atoms: C_6  and  C_11 
ROOT
HETATM    1  C   UNK N   1      28.344  17.653   7.122  0.00  0.00     0.140 C 
ENDROOT
BRANCH   1   2
HETATM    2  C   UNK N   1      28.064  18.986   6.383  0.00  0.00     0.094 C 
HETATM    3  N   UNK N   1      27.102  19.794   7.143  0.00  0.00    -0.416 N 
HETATM    4  C   UNK N   1      26.934  21.099   6.507  0.00  0.00     0.114 C 
HETATM    5  H   UNK N   1      26.621  19.490   7.990  0.00  0.00     0.153 HD
HETATM    6  C   UNK N   1      26.320  20.930   5.122  0.00  0.00     0.019 C 
HETATM    7  C   UNK N   1      27.249  20.074   4.272  0.00  0.00     0.004 C 
HETATM    8  C   UNK N   1      27.508  18.746   4.974  0.00  0.00     0.026 C 
ENDBRANCH   1   2
BRANCH   1   9
HETATM    9  C   UNK N   1      29.218  16.556   6.537  0.00  0.00    -0.043 A 
HETATM   10  C   UNK N   1      28.638  15.508   5.801  0.00  0.00     0.008 A 
HETATM   11  C   UNK N   1      29.434  14.527   5.206  0.00  0.00     0.001 A 
HETATM   12  C   UNK N   1      30.825  14.589   5.325  0.00  0.00     0.000 A 
HETATM   13  C   UNK N   1      31.415  15.623   6.053  0.00  0.00     0.001 A 
HETATM   14  C   UNK N   1      30.616  16.599   6.656  0.00  0.00     0.008 A 
ENDBRANCH   1   9
BRANCH   1  15
HETATM   15  C   UNK N   1      28.049  17.597   8.603  0.00  0.00     0.269 C 
HETATM   16  O   UNK N   1      27.368  16.689   9.040  0.00  0.00    -0.264 OA
BRANCH  15  17
HETATM   17  O   UNK N   1      28.571  18.537   9.434  0.00  0.00    -0.326 OA
HETATM   18  C   UNK N   1      29.925  18.623   9.671  0.00  0.00     0.213 C 
ENDBRANCH  15  17
ENDBRANCH   1  15
TORSDOF 4
ENDMDL
MODEL 8
REMARK VINA RESULT:      -5.3     14.838     16.535
REMARK  4 active torsions:
REMARK  status: ('A' for Active; 'I' for Inactive)
REMARK    1  A    between atoms: O_1  and  C_11 
REMARK    2  A    between atoms: C_4  and  C_6 
REMARK    3  A    between atoms: C_6  and  C_10 
REMARK    4  A    between atoms: C_6  and  C_11 
ROOT
HETATM    1  C   UNK N   1      27.033  24.160  -5.082  0.00  0.00     0.140 C 
ENDROOT
BRANCH   1   2
HETATM    2  C   UNK N   1      28.425  23.813  -4.495  0.00  0.00     0.094 C 
HETATM    3  N   UNK N   1      29.015  22.685  -5.227  0.00  0.00    -0.416 N 
HETATM    4  C   UNK N   1      30.376  22.440  -4.751  0.00  0.00     0.114 C 
HETATM    5  H   UNK N   1      28.547  22.152  -5.960  0.00  0.00     0.153 HD
HETATM    6  C   UNK N   1      30.348  22.007  -3.290  0.00  0.00     0.019 C 
HETATM    7  C   UNK N   1      29.719  23.117  -2.459  0.00  0.00     0.004 C 
HETATM    8  C   UNK N   1      28.336  23.449  -3.008  0.00  0.00     0.026 C 
ENDBRANCH   1   2
BRANCH   1   9
HETATM    9  C   UNK N   1      26.342  25.491  -4.831  0.00  0.00    -0.043 A 
HETATM   10  C   UNK N   1      26.617  26.218  -3.659  0.00  0.00     0.008 A 
HETATM   11  C   UNK N   1      26.037  27.470  -3.443  0.00  0.00     0.001 A 
HETATM   12  C   UNK N   1      25.188  28.021  -4.406  0.00  0.00     0.000 A 
HETATM   13  C   UNK N   1      24.907  27.312  -5.574  0.00  0.00     0.001 A 
HETATM   14  C   UNK N   1      25.480  26.053  -5.784  0.00  0.00     0.008 A 
ENDBRANCH   1   9
BRANCH   1  15
HETATM   15  C   UNK N   1      26.523  23.313  -6.225  0.00  0.00     0.269 C 
HETATM   16  O   UNK N   1      25.434  22.780  -6.130  0.00  0.00    -0.264 OA
BRANCH  15  17
HETATM   17  O   UNK N   1      27.266  23.182  -7.355  0.00  0.00    -0.326 OA
HETATM   18  C   UNK N   1      27.388  24.208  -8.266  0.00  0.00     0.213 C 
ENDBRANCH  15  17
ENDBRANCH   1  15
TORSDOF 4
ENDMDL
MODEL 9
REMARK VINA RESULT:      -5.3     15.011     17.202
REMARK  4 active torsions:
REMARK  status: ('A' for Active; 'I' for Inactive)
REMARK    1  A    between atoms: O_1  and  C_11 
REMARK    2  A    between atoms: C_4  and  C_6 
REMARK    3  A    between atoms: C_6  and  C_10 
REMARK    4  A    between atoms: C_6  and  C_11 
ROOT
HETATM    1  C   UNK N   1      27.523  24.571  -5.308  0.00  0.00     0.140 C 
ENDROOT
BRANCH   1   2
HETATM    2  C   UNK N   1      27.321  26.009  -4.766  0.00  0.00     0.094 C 
HETATM    3  N   UNK N   1      26.242  26.028  -3.771  0.00  0.00    -0.416 N 
HETATM    4  C   UNK N   1      26.136  27.358  -3.175  0.00  0.00     0.114 C 
HETATM    5  H   UNK N   1      25.653  25.230  -3.529  0.00  0.00     0.153 HD
HETATM    6  C   UNK N   1      25.729  28.374  -4.237  0.00  0.00     0.019 C 
HETATM    7  C   UNK N   1      26.788  28.397  -5.329  0.00  0.00     0.004 C 
HETATM    8  C   UNK N   1      26.976  26.993  -5.891  0.00  0.00     0.026 C 
ENDBRANCH   1   2
BRANCH   1   9
HETATM    9  C   UNK N   1      28.550  23.611  -4.730  0.00  0.00    -0.043 A 
HETATM   10  C   UNK N   1      28.817  23.611  -3.348  0.00  0.00     0.008 A 
HETATM   11  C   UNK N   1      29.713  22.693  -2.795  0.00  0.00     0.001 A 
HETATM   12  C   UNK N   1      30.342  21.751  -3.612  0.00  0.00     0.000 A 
HETATM   13  C   UNK N   1      30.087  21.739  -4.984  0.00  0.00     0.001 A 
HETATM   14  C   UNK N   1      29.198  22.665  -5.539  0.00  0.00     0.008 A 
ENDBRANCH   1   9
BRANCH   1  15
HETATM   15  C   UNK N   1      26.430  23.986  -6.172  0.00  0.00     0.269 C 
HETATM   16  O   UNK N   1      25.373  23.669  -5.660  0.00  0.00    -0.264 OA
BRANCH  15  17
HETATM   17  O   UNK N   1      26.623  23.852  -7.510  0.00  0.00    -0.326 OA
HETATM   18  C   UNK N   1      25.684  24.276  -8.424  0.00  0.00     0.213 C 
ENDBRANCH  15  17
ENDBRANCH   1  15
TORSDOF 4
ENDMDL
