MODEL 1
REMARK VINA RESULT:      -6.9      0.000      0.000
REMARK  4 active torsions:
REMARK  status: ('A' for Active; 'I' for Inactive)
REMARK    1  A    between atoms: C_13  and  O_1 
REMARK    2  A    between atoms: O_2  and  C_16 
REMARK    3  A    between atoms: C_11  and  N_4 
REMARK       I    between atoms: N_10  and  C_22 
REMARK    4  A    between atoms: C_12  and  C_16 
ROOT
HETATM    1  O   UNK N   1      34.656  13.293   8.087  0.00  0.00    -0.265 OA
HETATM    2  N   UNK N   1      31.403  16.336   7.720  0.00  0.00    -0.318 N 
HETATM    3  N   UNK N   1      33.240  16.842   9.230  0.00  0.00    -0.174 N 
HETATM    4  N   UNK N   1      32.164  14.319   7.064  0.00  0.00    -0.345 N 
ATOM      5  HN  UNK N   1      32.238  13.415   6.598  1.00  0.00     0.167 HD
HETATM    6  N   UNK N   1      34.913  15.153   9.339  0.00  0.00    -0.154 N 
ATOM      7  HN  UNK N   1      35.800  14.820   9.715  1.00  0.00     0.187 HD
HETATM    8  N   UNK N   1      35.163  17.168  10.633  0.00  0.00    -0.234 N 
HETATM    9  C   UNK N   1      32.557  16.062   8.356  0.00  0.00     0.157 A 
HETATM   10  C   UNK N   1      31.183  15.255   6.925  0.00  0.00     0.186 A 
HETATM   11  C   UNK N   1      33.013  14.857   7.957  0.00  0.00     0.147 A 
HETATM   12  C   UNK N   1      34.216  14.370   8.445  0.00  0.00     0.290 A 
HETATM   13  C   UNK N   1      34.428  16.379   9.728  0.00  0.00     0.680 A 
HETATM   14  H   UNK N   1      32.889  17.720   9.501  0.00  0.00     0.186 HD
HETATM   15  H   UNK N   1      34.752  17.966  11.037  0.00  0.00     0.174 HD
HETATM   16  H   UNK N   1      36.088  16.921  10.862  0.00  0.00     0.174 HD
ENDROOT
BRANCH   2  17
HETATM   17  C   UNK N   1      30.576  17.558   7.755  0.00  0.00     0.123 C 
HETATM   18  C   UNK N   1      29.762  17.668   9.041  0.00  0.00     0.062 C 
HETATM   19  C   UNK N   1      28.481  18.394   8.666  0.00  0.00     0.130 C 
HETATM   20  C   UNK N   1      28.188  18.067   7.210  0.00  0.00     0.068 C 
HETATM   21  C   UNK N   1      29.518  17.625   6.702  0.00  0.00    -0.057 C 
HETATM   22  C   UNK N   1      29.774  17.472   5.400  0.00  0.00     0.017 C 
BRANCH  19  23
HETATM   23  O   UNK N   1      27.424  17.997   9.483  0.00  0.00    -0.395 OA
HETATM   24  H   UNK N   1      27.270  18.098  10.435  0.00  0.00     0.210 HD
ENDBRANCH  19  23
BRANCH  20  25
HETATM   25  C   UNK N   1      27.726  19.348   6.514  0.00  0.00     0.175 C 
BRANCH  25  26
HETATM   26  O   UNK N   1      26.931  20.113   7.370  0.00  0.00    -0.400 OA
HETATM   27  H   UNK N   1      26.289  20.755   7.028  0.00  0.00     0.209 HD
ENDBRANCH  25  26
ENDBRANCH  20  25
ENDBRANCH   2  17
TORSDOF 4
ENDMDL
MODEL 2
REMARK VINA RESULT:      -6.7      8.086     11.144
REMARK  4 active torsions:
REMARK  status: ('A' for Active; 'I' for Inactive)
REMARK    1  A    between atoms: C_13  and  O_1 
REMARK    2  A    between atoms: O_2  and  C_16 
REMARK    3  A    between atoms: C_11  and  N_4 
REMARK       I    between atoms: N_10  and  C_22 
REMARK    4  A    between atoms: C_12  and  C_16 
ROOT
HETATM    1  O   UNK N   1      37.162  13.832  11.481  0.00  0.00    -0.265 OA
HETATM    2  N   UNK N   1      35.621  12.972  15.588  0.00  0.00    -0.318 N 
HETATM    3  N   UNK N   1      34.599  11.771  13.737  0.00  0.00    -0.174 N 
HETATM    4  N   UNK N   1      37.071  14.166  14.343  0.00  0.00    -0.345 N 
ATOM      5  HN  UNK N   1      37.803  14.821  14.068  1.00  0.00     0.167 HD
HETATM    6  N   UNK N   1      35.504  12.306  11.603  0.00  0.00    -0.154 N 
ATOM      7  HN  UNK N   1      35.515  12.162  10.592  1.00  0.00     0.187 HD
HETATM    8  N   UNK N   1      33.756  10.660  11.781  0.00  0.00    -0.234 N 
HETATM    9  C   UNK N   1      35.452  12.671  14.287  0.00  0.00     0.157 A 
HETATM   10  C   UNK N   1      36.626  13.888  15.601  0.00  0.00     0.186 A 
HETATM   11  C   UNK N   1      36.325  13.382  13.545  0.00  0.00     0.147 A 
HETATM   12  C   UNK N   1      36.371  13.213  12.170  0.00  0.00     0.290 A 
HETATM   13  C   UNK N   1      34.625  11.591  12.380  0.00  0.00     0.680 A 
HETATM   14  H   UNK N   1      33.975  11.259  14.301  0.00  0.00     0.186 HD
HETATM   15  H   UNK N   1      33.021  10.266  12.303  0.00  0.00     0.174 HD
HETATM   16  H   UNK N   1      33.884  10.404  10.838  0.00  0.00     0.174 HD
ENDROOT
BRANCH   2  17
HETATM   17  C   UNK N   1      34.969  12.395  16.780  0.00  0.00     0.123 C 
HETATM   18  C   UNK N   1      35.062  13.316  17.993  0.00  0.00     0.062 C 
HETATM   19  C   UNK N   1      35.124  12.407  19.207  0.00  0.00     0.130 C 
HETATM   20  C   UNK N   1      35.784  11.109  18.766  0.00  0.00     0.068 C 
HETATM   21  C   UNK N   1      35.598  11.138  17.287  0.00  0.00    -0.057 C 
HETATM   22  C   UNK N   1      35.816  10.069  16.515  0.00  0.00     0.017 C 
BRANCH  19  23
HETATM   23  O   UNK N   1      35.848  13.000  20.240  0.00  0.00    -0.395 OA
HETATM   24  H   UNK N   1      36.797  13.011  20.440  0.00  0.00     0.210 HD
ENDBRANCH  19  23
BRANCH  20  25
HETATM   25  C   UNK N   1      35.023   9.944  19.398  0.00  0.00     0.175 C 
BRANCH  25  26
HETATM   26  O   UNK N   1      34.357  10.361  20.553  0.00  0.00    -0.400 OA
HETATM   27  H   UNK N   1      34.085   9.730  21.238  0.00  0.00     0.209 HD
ENDBRANCH  25  26
ENDBRANCH  20  25
ENDBRANCH   2  17
TORSDOF 4
ENDMDL
MODEL 3
REMARK VINA RESULT:      -6.7      2.032      3.153
REMARK  4 active torsions:
REMARK  status: ('A' for Active; 'I' for Inactive)
REMARK    1  A    between atoms: C_13  and  O_1 
REMARK    2  A    between atoms: O_2  and  C_16 
REMARK    3  A    between atoms: C_11  and  N_4 
REMARK       I    between atoms: N_10  and  C_22 
REMARK    4  A    between atoms: C_12  and  C_16 
ROOT
HETATM    1  O   UNK N   1      36.321  16.809  10.684  0.00  0.00    -0.265 OA
HETATM    2  N   UNK N   1      32.745  16.751   8.003  0.00  0.00    -0.318 N 
HETATM    3  N   UNK N   1      33.312  14.686   9.154  0.00  0.00    -0.174 N 
HETATM    4  N   UNK N   1      34.444  17.977   8.835  0.00  0.00    -0.345 N 
ATOM      5  HN  UNK N   1      35.076  18.753   9.026  1.00  0.00     0.167 HD
HETATM    6  N   UNK N   1      35.228  14.839  10.556  0.00  0.00    -0.154 N 
ATOM      7  HN  UNK N   1      35.874  14.398  11.212  1.00  0.00     0.187 HD
HETATM    8  N   UNK N   1      34.013  12.765  10.415  0.00  0.00    -0.234 N 
HETATM    9  C   UNK N   1      33.501  15.984   8.810  0.00  0.00     0.157 A 
HETATM   10  C   UNK N   1      33.337  17.975   8.038  0.00  0.00     0.186 A 
HETATM   11  C   UNK N   1      34.513  16.721   9.311  0.00  0.00     0.147 A 
HETATM   12  C   UNK N   1      35.410  16.159  10.206  0.00  0.00     0.290 A 
HETATM   13  C   UNK N   1      34.188  14.109  10.034  0.00  0.00     0.680 A 
HETATM   14  H   UNK N   1      32.561  14.170   8.780  0.00  0.00     0.186 HD
HETATM   15  H   UNK N   1      33.375  12.195   9.930  0.00  0.00     0.174 HD
HETATM   16  H   UNK N   1      34.531  12.396  11.167  0.00  0.00     0.174 HD
ENDROOT
BRANCH   2  17
HETATM   17  C   UNK N   1      31.489  16.425   7.300  0.00  0.00     0.123 C 
HETATM   18  C   UNK N   1      31.554  16.762   5.813  0.00  0.00     0.062 C 
HETATM   19  C   UNK N   1      30.143  17.148   5.408  0.00  0.00     0.130 C 
HETATM   20  C   UNK N   1      29.467  17.741   6.635  0.00  0.00     0.068 C 
HETATM   21  C   UNK N   1      30.300  17.210   7.751  0.00  0.00    -0.057 C 
HETATM   22  C   UNK N   1      29.919  17.286   9.030  0.00  0.00     0.017 C 
BRANCH  19  23
HETATM   23  O   UNK N   1      30.157  18.069   4.361  0.00  0.00    -0.395 OA
HETATM   24  H   UNK N   1      29.444  18.557   3.920  0.00  0.00     0.210 HD
ENDBRANCH  19  23
BRANCH  20  25
HETATM   25  C   UNK N   1      28.038  17.202   6.703  0.00  0.00     0.175 C 
BRANCH  25  26
HETATM   26  O   UNK N   1      27.134  18.237   6.949  0.00  0.00    -0.400 OA
HETATM   27  H   UNK N   1      26.513  18.203   7.694  0.00  0.00     0.209 HD
ENDBRANCH  25  26
ENDBRANCH  20  25
ENDBRANCH   2  17
TORSDOF 4
ENDMDL
MODEL 4
REMARK VINA RESULT:      -6.5     15.849     17.582
REMARK  4 active torsions:
REMARK  status: ('A' for Active; 'I' for Inactive)
REMARK    1  A    between atoms: C_13  and  O_1 
REMARK    2  A    between atoms: O_2  and  C_16 
REMARK    3  A    between atoms: C_11  and  N_4 
REMARK       I    between atoms: N_10  and  C_22 
REMARK    4  A    between atoms: C_12  and  C_16 
ROOT
HETATM    1  O   UNK N   1      26.363  21.083 -10.415  0.00  0.00    -0.265 OA
HETATM    2  N   UNK N   1      27.410  24.206  -7.393  0.00  0.00    -0.318 N 
HETATM    3  N   UNK N   1      25.520  22.760  -6.895  0.00  0.00    -0.174 N 
HETATM    4  N   UNK N   1      27.905  23.295  -9.394  0.00  0.00    -0.345 N 
ATOM      5  HN  UNK N   1      28.354  23.108 -10.290  1.00  0.00     0.167 HD
HETATM    6  N   UNK N   1      25.062  21.135  -8.571  0.00  0.00    -0.154 N 
ATOM      7  HN  UNK N   1      24.501  20.350  -8.904  1.00  0.00     0.187 HD
HETATM    8  N   UNK N   1      23.719  21.204  -6.575  0.00  0.00    -0.234 N 
HETATM    9  C   UNK N   1      26.536  23.221  -7.667  0.00  0.00     0.157 A 
HETATM   10  C   UNK N   1      28.249  24.230  -8.464  0.00  0.00     0.186 A 
HETATM   11  C   UNK N   1      26.838  22.673  -8.862  0.00  0.00     0.147 A 
HETATM   12  C   UNK N   1      26.099  21.604  -9.346  0.00  0.00     0.290 A 
HETATM   13  C   UNK N   1      24.775  21.708  -7.356  0.00  0.00     0.680 A 
HETATM   14  H   UNK N   1      25.324  23.172  -6.024  0.00  0.00     0.186 HD
HETATM   15  H   UNK N   1      23.407  21.704  -5.787  0.00  0.00     0.174 HD
HETATM   16  H   UNK N   1      23.291  20.350  -6.817  0.00  0.00     0.174 HD
ENDROOT
BRANCH   2  17
HETATM   17  C   UNK N   1      27.545  25.034  -6.178  0.00  0.00     0.123 C 
HETATM   18  C   UNK N   1      27.754  24.190  -4.924  0.00  0.00     0.062 C 
HETATM   19  C   UNK N   1      27.108  24.961  -3.787  0.00  0.00     0.130 C 
HETATM   20  C   UNK N   1      25.966  25.771  -4.382  0.00  0.00     0.068 C 
HETATM   21  C   UNK N   1      26.329  25.829  -5.827  0.00  0.00    -0.057 C 
HETATM   22  C   UNK N   1      25.723  26.652  -6.687  0.00  0.00     0.017 C 
BRANCH  19  23
HETATM   23  O   UNK N   1      26.635  24.095  -2.801  0.00  0.00    -0.395 OA
HETATM   24  H   UNK N   1      27.094  23.477  -2.211  0.00  0.00     0.210 HD
ENDBRANCH  19  23
BRANCH  20  25
HETATM   25  C   UNK N   1      25.983  27.162  -3.749  0.00  0.00     0.175 C 
BRANCH  25  26
HETATM   26  O   UNK N   1      25.952  27.069  -2.356  0.00  0.00    -0.400 OA
HETATM   27  H   UNK N   1      26.247  27.801  -1.792  0.00  0.00     0.209 HD
ENDBRANCH  25  26
ENDBRANCH  20  25
ENDBRANCH   2  17
TORSDOF 4
ENDMDL
MODEL 5
REMARK VINA RESULT:      -6.5      2.713      6.001
REMARK  4 active torsions:
REMARK  status: ('A' for Active; 'I' for Inactive)
REMARK    1  A    between atoms: C_13  and  O_1 
REMARK    2  A    between atoms: O_2  and  C_16 
REMARK    3  A    between atoms: C_11  and  N_4 
REMARK       I    between atoms: N_10  and  C_22 
REMARK    4  A    between atoms: C_12  and  C_16 
ROOT
HETATM    1  O   UNK N   1      27.296  18.867   4.816  0.00  0.00    -0.265 OA
HETATM    2  N   UNK N   1      31.192  16.990   5.948  0.00  0.00    -0.318 N 
HETATM    3  N   UNK N   1      29.584  17.385   7.728  0.00  0.00    -0.174 N 
HETATM    4  N   UNK N   1      29.933  17.834   4.280  0.00  0.00    -0.345 N 
ATOM      5  HN  UNK N   1      29.623  18.136   3.357  1.00  0.00     0.167 HD
HETATM    6  N   UNK N   1      27.548  18.382   7.006  0.00  0.00    -0.154 N 
ATOM      7  HN  UNK N   1      26.617  18.736   7.227  1.00  0.00     0.187 HD
HETATM    8  N   UNK N   1      27.846  17.820   9.328  0.00  0.00    -0.234 N 
HETATM    9  C   UNK N   1      30.025  17.438   6.447  0.00  0.00     0.157 A 
HETATM   10  C   UNK N   1      31.112  17.235   4.612  0.00  0.00     0.186 A 
HETATM   11  C   UNK N   1      29.272  17.937   5.446  0.00  0.00     0.147 A 
HETATM   12  C   UNK N   1      28.001  18.426   5.706  0.00  0.00     0.290 A 
HETATM   13  C   UNK N   1      28.333  17.866   8.008  0.00  0.00     0.680 A 
HETATM   14  H   UNK N   1      30.151  17.010   8.440  0.00  0.00     0.186 HD
HETATM   15  H   UNK N   1      28.454  17.603  10.071  0.00  0.00     0.174 HD
HETATM   16  H   UNK N   1      26.895  18.004   9.508  0.00  0.00     0.174 HD
ENDROOT
BRANCH   2  17
HETATM   17  C   UNK N   1      32.297  16.285   6.626  0.00  0.00     0.123 C 
HETATM   18  C   UNK N   1      31.871  14.922   7.163  0.00  0.00     0.062 C 
HETATM   19  C   UNK N   1      32.701  14.684   8.412  0.00  0.00     0.130 C 
HETATM   20  C   UNK N   1      33.013  16.047   9.012  0.00  0.00     0.068 C 
HETATM   21  C   UNK N   1      32.808  16.965   7.856  0.00  0.00    -0.057 C 
HETATM   22  C   UNK N   1      33.207  18.239   7.872  0.00  0.00     0.017 C 
BRANCH  19  23
HETATM   23  O   UNK N   1      32.011  13.890   9.327  0.00  0.00    -0.395 OA
HETATM   24  H   UNK N   1      31.190  14.041   9.823  0.00  0.00     0.210 HD
ENDBRANCH  19  23
BRANCH  20  25
HETATM   25  C   UNK N   1      34.471  16.047   9.470  0.00  0.00     0.175 C 
BRANCH  25  26
HETATM   26  O   UNK N   1      34.638  16.877  10.580  0.00  0.00    -0.400 OA
HETATM   27  H   UNK N   1      35.405  16.792  11.168  0.00  0.00     0.209 HD
ENDBRANCH  25  26
ENDBRANCH  20  25
ENDBRANCH   2  17
TORSDOF 4
ENDMDL
MODEL 6
REMARK VINA RESULT:      -6.4      2.782      6.158
REMARK  4 active torsions:
REMARK  status: ('A' for Active; 'I' for Inactive)
REMARK    1  A    between atoms: C_13  and  O_1 
REMARK    2  A    between atoms: O_2  and  C_16 
REMARK    3  A    between atoms: C_11  and  N_4 
REMARK       I    between atoms: N_10  and  C_22 
REMARK    4  A    between atoms: C_12  and  C_16 
ROOT
HETATM    1  O   UNK N   1      27.365  16.300   4.899  0.00  0.00    -0.265 OA
HETATM    2  N   UNK N   1      31.108  16.636   7.319  0.00  0.00    -0.318 N 
HETATM    3  N   UNK N   1      29.271  18.123   7.891  0.00  0.00    -0.174 N 
HETATM    4  N   UNK N   1      30.068  15.596   5.612  0.00  0.00    -0.345 N 
ATOM      5  HN  UNK N   1      29.878  14.973   4.827  1.00  0.00     0.167 HD
HETATM    6  N   UNK N   1      27.332  17.849   6.540  0.00  0.00    -0.154 N 
ATOM      7  HN  UNK N   1      26.374  18.118   6.314  1.00  0.00     0.187 HD
HETATM    8  N   UNK N   1      27.328  19.468   8.322  0.00  0.00    -0.234 N 
HETATM    9  C   UNK N   1      29.878  17.157   7.157  0.00  0.00     0.157 A 
HETATM   10  C   UNK N   1      31.202  15.672   6.364  0.00  0.00     0.186 A 
HETATM   11  C   UNK N   1      29.256  16.529   6.139  0.00  0.00     0.147 A 
HETATM   12  C   UNK N   1      27.953  16.865   5.803  0.00  0.00     0.290 A 
HETATM   13  C   UNK N   1      27.986  18.473   7.575  0.00  0.00     0.680 A 
HETATM   14  H   UNK N   1      29.744  18.562   8.634  0.00  0.00     0.186 HD
HETATM   15  H   UNK N   1      27.836  20.026   8.953  0.00  0.00     0.174 HD
HETATM   16  H   UNK N   1      26.359  19.605   8.213  0.00  0.00     0.174 HD
ENDROOT
BRANCH   2  17
HETATM   17  C   UNK N   1      32.125  16.927   8.348  0.00  0.00     0.123 C 
HETATM   18  C   UNK N   1      32.889  18.216   8.058  0.00  0.00     0.062 C 
HETATM   19  C   UNK N   1      34.288  18.010   8.611  0.00  0.00     0.130 C 
HETATM   20  C   UNK N   1      34.587  16.520   8.534  0.00  0.00     0.068 C 
HETATM   21  C   UNK N   1      33.226  15.920   8.439  0.00  0.00    -0.057 C 
HETATM   22  C   UNK N   1      33.006  14.612   8.595  0.00  0.00     0.017 C 
BRANCH  19  23
HETATM   23  O   UNK N   1      35.226  18.738   7.882  0.00  0.00    -0.395 OA
HETATM   24  H   UNK N   1      35.231  19.047   6.962  0.00  0.00     0.210 HD
ENDBRANCH  19  23
BRANCH  20  25
HETATM   25  C   UNK N   1      35.288  16.104   9.828  0.00  0.00     0.175 C 
BRANCH  25  26
HETATM   26  O   UNK N   1      35.744  17.226  10.523  0.00  0.00    -0.400 OA
HETATM   27  H   UNK N   1      35.160  17.978  10.714  0.00  0.00     0.209 HD
ENDBRANCH  25  26
ENDBRANCH  20  25
ENDBRANCH   2  17
TORSDOF 4
ENDMDL
MODEL 7
REMARK VINA RESULT:      -6.4      3.342      6.303
REMARK  4 active torsions:
REMARK  status: ('A' for Active; 'I' for Inactive)
REMARK    1  A    between atoms: C_13  and  O_1 
REMARK    2  A    between atoms: O_2  and  C_16 
REMARK    3  A    between atoms: C_11  and  N_4 
REMARK       I    between atoms: N_10  and  C_22 
REMARK    4  A    between atoms: C_12  and  C_16 
ROOT
HETATM    1  O   UNK N   1      27.905  17.835   9.474  0.00  0.00    -0.265 OA
HETATM    2  N   UNK N   1      31.512  17.136   6.928  0.00  0.00    -0.318 N 
HETATM    3  N   UNK N   1      29.340  16.657   5.944  0.00  0.00    -0.174 N 
HETATM    4  N   UNK N   1      30.737  17.792   8.940  0.00  0.00    -0.345 N 
ATOM      5  HN  UNK N   1      30.700  18.123   9.904  1.00  0.00     0.167 HD
HETATM    6  N   UNK N   1      27.497  17.072   7.390  0.00  0.00    -0.154 N 
ATOM      7  HN  UNK N   1      26.489  17.080   7.547  1.00  0.00     0.187 HD
HETATM    8  N   UNK N   1      27.105  16.288   5.148  0.00  0.00    -0.234 N 
HETATM    9  C   UNK N   1      30.170  17.038   6.948  0.00  0.00     0.157 A 
HETATM   10  C   UNK N   1      31.840  17.610   8.160  0.00  0.00     0.186 A 
HETATM   11  C   UNK N   1      29.709  17.437   8.150  0.00  0.00     0.147 A 
HETATM   12  C   UNK N   1      28.345  17.463   8.402  0.00  0.00     0.290 A 
HETATM   13  C   UNK N   1      27.991  16.672   6.172  0.00  0.00     0.680 A 
HETATM   14  H   UNK N   1      29.701  16.376   5.073  0.00  0.00     0.186 HD
HETATM   15  H   UNK N   1      27.450  15.852   4.336  0.00  0.00     0.174 HD
HETATM   16  H   UNK N   1      26.139  16.456   5.244  0.00  0.00     0.174 HD
ENDROOT
BRANCH   2  17
HETATM   17  C   UNK N   1      32.457  16.902   5.818  0.00  0.00     0.123 C 
HETATM   18  C   UNK N   1      32.122  17.741   4.588  0.00  0.00     0.062 C 
HETATM   19  C   UNK N   1      32.554  16.916   3.388  0.00  0.00     0.130 C 
HETATM   20  C   UNK N   1      32.432  15.451   3.780  0.00  0.00     0.068 C 
HETATM   21  C   UNK N   1      32.441  15.513   5.269  0.00  0.00    -0.057 C 
HETATM   22  C   UNK N   1      32.596  14.426   6.031  0.00  0.00     0.017 C 
BRANCH  19  23
HETATM   23  O   UNK N   1      31.760  17.196   2.277  0.00  0.00    -0.395 OA
HETATM   24  H   UNK N   1      30.797  17.204   2.157  0.00  0.00     0.210 HD
ENDBRANCH  19  23
BRANCH  20  25
HETATM   25  C   UNK N   1      33.656  14.708   3.247  0.00  0.00     0.175 C 
BRANCH  25  26
HETATM   26  O   UNK N   1      34.010  15.186   1.983  0.00  0.00    -0.400 OA
HETATM   27  H   UNK N   1      33.340  15.431   1.326  0.00  0.00     0.209 HD
ENDBRANCH  25  26
ENDBRANCH  20  25
ENDBRANCH   2  17
TORSDOF 4
ENDMDL
MODEL 8
REMARK VINA RESULT:      -6.3      3.848      8.088
REMARK  4 active torsions:
REMARK  status: ('A' for Active; 'I' for Inactive)
REMARK    1  A    between atoms: C_13  and  O_1 
REMARK    2  A    between atoms: O_2  and  C_16 
REMARK    3  A    between atoms: C_11  and  N_4 
REMARK       I    between atoms: N_10  and  C_22 
REMARK    4  A    between atoms: C_12  and  C_16 
ROOT
HETATM    1  O   UNK N   1      33.637  18.379   8.105  0.00  0.00    -0.265 OA
HETATM    2  N   UNK N   1      34.907  15.080  10.840  0.00  0.00    -0.318 N 
HETATM    3  N   UNK N   1      33.417  14.501   9.008  0.00  0.00    -0.174 N 
HETATM    4  N   UNK N   1      35.042  17.280  10.369  0.00  0.00    -0.345 N 
ATOM      5  HN  UNK N   1      35.289  18.268  10.415  1.00  0.00     0.167 HD
HETATM    6  N   UNK N   1      32.814  16.335   7.618  0.00  0.00    -0.154 N 
ATOM      7  HN  UNK N   1      32.309  16.693   6.807  1.00  0.00     0.187 HD
HETATM    8  N   UNK N   1      31.985  14.131   7.115  0.00  0.00    -0.234 N 
HETATM    9  C   UNK N   1      34.144  15.358   9.767  0.00  0.00     0.157 A 
HETATM   10  C   UNK N   1      35.457  16.274  11.190  0.00  0.00     0.186 A 
HETATM   11  C   UNK N   1      34.231  16.674   9.484  0.00  0.00     0.147 A 
HETATM   12  C   UNK N   1      33.560  17.198   8.389  0.00  0.00     0.290 A 
HETATM   13  C   UNK N   1      32.743  14.998   7.925  0.00  0.00     0.680 A 
HETATM   14  H   UNK N   1      33.374  13.543   9.232  0.00  0.00     0.186 HD
HETATM   15  H   UNK N   1      31.799  13.213   7.416  0.00  0.00     0.174 HD
HETATM   16  H   UNK N   1      31.639  14.445   6.248  0.00  0.00     0.174 HD
ENDROOT
BRANCH   2  17
HETATM   17  C   UNK N   1      35.205  13.779  11.471  0.00  0.00     0.123 C 
HETATM   18  C   UNK N   1      35.504  13.916  12.962  0.00  0.00     0.062 C 
HETATM   19  C   UNK N   1      36.501  12.818  13.292  0.00  0.00     0.130 C 
HETATM   20  C   UNK N   1      37.312  12.552  12.033  0.00  0.00     0.068 C 
HETATM   21  C   UNK N   1      36.437  13.106  10.960  0.00  0.00    -0.057 C 
HETATM   22  C   UNK N   1      36.654  12.868   9.664  0.00  0.00     0.017 C 
BRANCH  19  23
HETATM   23  O   UNK N   1      37.334  13.199  14.343  0.00  0.00    -0.395 OA
HETATM   24  H   UNK N   1      37.447  14.046  14.803  0.00  0.00     0.210 HD
ENDBRANCH  19  23
BRANCH  20  25
HETATM   25  C   UNK N   1      37.485  11.041  11.884  0.00  0.00     0.175 C 
BRANCH  25  26
HETATM   26  O   UNK N   1      37.612  10.434  13.135  0.00  0.00    -0.400 OA
HETATM   27  H   UNK N   1      36.894   9.905  13.518  0.00  0.00     0.209 HD
ENDBRANCH  25  26
ENDBRANCH  20  25
ENDBRANCH   2  17
TORSDOF 4
ENDMDL
MODEL 9
REMARK VINA RESULT:      -6.3      4.489      7.950
REMARK  4 active torsions:
REMARK  status: ('A' for Active; 'I' for Inactive)
REMARK    1  A    between atoms: C_13  and  O_1 
REMARK    2  A    between atoms: O_2  and  C_16 
REMARK    3  A    between atoms: C_11  and  N_4 
REMARK       I    between atoms: N_10  and  C_22 
REMARK    4  A    between atoms: C_12  and  C_16 
ROOT
HETATM    1  O   UNK N   1      24.988  20.769   2.276  0.00  0.00    -0.265 OA
HETATM    2  N   UNK N   1      27.519  18.897   5.449  0.00  0.00    -0.318 N 
HETATM    3  N   UNK N   1      25.153  18.337   5.433  0.00  0.00    -0.174 N 
HETATM    4  N   UNK N   1      27.460  20.291   3.679  0.00  0.00    -0.345 N 
ATOM      5  HN  UNK N   1      27.744  20.944   2.949  1.00  0.00     0.167 HD
HETATM    6  N   UNK N   1      23.909  19.387   3.698  0.00  0.00    -0.154 N 
ATOM      7  HN  UNK N   1      23.020  19.533   3.219  1.00  0.00     0.187 HD
HETATM    8  N   UNK N   1      22.805  17.881   5.217  0.00  0.00    -0.234 N 
HETATM    9  C   UNK N   1      26.258  18.986   4.988  0.00  0.00     0.157 A 
HETATM   10  C   UNK N   1      28.244  19.701   4.625  0.00  0.00     0.186 A 
HETATM   11  C   UNK N   1      26.227  19.815   3.925  0.00  0.00     0.147 A 
HETATM   12  C   UNK N   1      25.037  20.037   3.248  0.00  0.00     0.290 A 
HETATM   13  C   UNK N   1      23.967  18.545   4.781  0.00  0.00     0.680 A 
HETATM   14  H   UNK N   1      25.203  17.731   6.207  0.00  0.00     0.186 HD
HETATM   15  H   UNK N   1      22.802  17.407   6.079  0.00  0.00     0.174 HD
HETATM   16  H   UNK N   1      21.994  17.892   4.658  0.00  0.00     0.174 HD
ENDROOT
BRANCH   2  17
HETATM   17  C   UNK N   1      28.069  18.054   6.529  0.00  0.00     0.123 C 
HETATM   18  C   UNK N   1      28.273  18.835   7.824  0.00  0.00     0.062 C 
HETATM   19  C   UNK N   1      29.472  18.203   8.510  0.00  0.00     0.130 C 
HETATM   20  C   UNK N   1      30.370  17.640   7.420  0.00  0.00     0.068 C 
HETATM   21  C   UNK N   1      29.438  17.517   6.263  0.00  0.00    -0.057 C 
HETATM   22  C   UNK N   1      29.752  16.835   5.158  0.00  0.00     0.017 C 
BRANCH  19  23
HETATM   23  O   UNK N   1      30.159  19.142   9.279  0.00  0.00    -0.395 OA
HETATM   24  H   UNK N   1      30.347  19.185  10.229  0.00  0.00     0.210 HD
ENDBRANCH  19  23
BRANCH  20  25
HETATM   25  C   UNK N   1      30.876  16.271   7.874  0.00  0.00     0.175 C 
BRANCH  25  26
HETATM   26  O   UNK N   1      31.405  16.345   9.164  0.00  0.00    -0.400 OA
HETATM   27  H   UNK N   1      31.111  15.747   9.869  0.00  0.00     0.209 HD
ENDBRANCH  25  26
ENDBRANCH  20  25
ENDBRANCH   2  17
TORSDOF 4
ENDMDL
