MODEL 1
REMARK VINA RESULT:      -7.6      0.000      0.000
REMARK  6 active torsions:
REMARK  status: ('A' for Active; 'I' for Inactive)
REMARK    1  A    between atoms: S_1  and  C_12 
REMARK    2  A    between atoms: S_1  and  C_15 
REMARK    3  A    between atoms: O_5  and  C_18 
REMARK    4  A    between atoms: O_5  and  C_26 
REMARK    5  A    between atoms: C_12  and  C_13 
REMARK    6  A    between atoms: C_26  and  C_27 
ROOT
HETATM    1  N   UNK N   1      30.805  18.000   9.125  0.00  0.00    -0.368 N 
ATOM      2  HN  UNK N   1      31.536  17.926   9.833  1.00  0.00     0.165 HD
HETATM    3  C   UNK N   1      31.067  17.590   7.854  0.00  0.00     0.029 A 
HETATM    4  C   UNK N   1      30.072  17.690   6.866  0.00  0.00    -0.005 A 
HETATM    5  C   UNK N   1      28.811  18.192   7.210  0.00  0.00     0.078 A 
HETATM    6  C   UNK N   1      30.338  17.239   5.463  0.00  0.00     0.053 C 
HETATM    7  C   UNK N   1      28.571  18.602   8.530  0.00  0.00     0.054 A 
HETATM    8  C   UNK N   1      29.592  18.506   9.476  0.00  0.00     0.091 A 
ENDROOT
BRANCH   3   9
HETATM    9  C   UNK N   1      32.390  16.971   7.549  0.00  0.00     0.175 C 
BRANCH   9  10
HETATM   10  S   UNK N   1      33.666  18.124   8.140  0.00  0.00     0.090 S 
HETATM   11  O   UNK N   1      34.513  17.913   6.876  0.00  0.00    -0.249 OA
BRANCH  10  12
HETATM   12  C   UNK N   1      34.543  16.892   9.106  0.00  0.00     0.176 A 
HETATM   13  N   UNK N   1      34.801  17.017  10.435  0.00  0.00    -0.333 N 
HETATM   14  C   UNK N   1      35.390  15.860  10.755  0.00  0.00     0.061 A 
HETATM   15  H   UNK N   1      34.601  17.780  11.023  0.00  0.00     0.168 HD
HETATM   16  C   UNK N   1      35.477  15.065   9.655  0.00  0.00     0.061 A 
HETATM   17  C   UNK N   1      35.853  15.452  12.002  0.00  0.00     0.032 A 
HETATM   18  N   UNK N   1      34.944  15.698   8.598  0.00  0.00    -0.333 N 
HETATM   19  C   UNK N   1      36.035  13.792   9.702  0.00  0.00     0.032 A 
ATOM     20  HN  UNK N   1      34.860  15.362   7.639  1.00  0.00     0.168 HD
HETATM   21  C   UNK N   1      36.518  13.343  10.948  0.00  0.00     0.002 A 
HETATM   22  C   UNK N   1      36.426  14.170  12.094  0.00  0.00     0.002 A 
ENDBRANCH  10  12
ENDBRANCH   9  10
ENDBRANCH   3   9
BRANCH   5  23
HETATM   23  O   UNK N   1      27.847  18.256   6.262  0.00  0.00    -0.342 OA
BRANCH  23  24
HETATM   24  C   UNK N   1      26.947  19.291   6.130  0.00  0.00     0.293 C 
BRANCH  24  25
HETATM   25  C   UNK N   1      27.567  20.433   5.345  0.00  0.00     0.408 C 
HETATM   26  F   UNK N   1      28.107  21.371   6.209  0.00  0.00    -0.169 F 
HETATM   27  F   UNK N   1      26.601  21.034   4.560  0.00  0.00    -0.169 F 
HETATM   28  F   UNK N   1      28.569  19.935   4.536  0.00  0.00    -0.169 F 
ENDBRANCH  24  25
ENDBRANCH  23  24
ENDBRANCH   5  23
TORSDOF 6
ENDMDL
MODEL 2
REMARK VINA RESULT:      -7.0      6.340      9.856
REMARK  6 active torsions:
REMARK  status: ('A' for Active; 'I' for Inactive)
REMARK    1  A    between atoms: S_1  and  C_12 
REMARK    2  A    between atoms: S_1  and  C_15 
REMARK    3  A    between atoms: O_5  and  C_18 
REMARK    4  A    between atoms: O_5  and  C_26 
REMARK    5  A    between atoms: C_12  and  C_13 
REMARK    6  A    between atoms: C_26  and  C_27 
ROOT
HETATM    1  N   UNK N   1      34.583  12.552  11.824  0.00  0.00    -0.368 N 
ATOM      2  HN  UNK N   1      34.093  12.633  10.934  1.00  0.00     0.165 HD
HETATM    3  C   UNK N   1      35.147  13.661  12.376  0.00  0.00     0.029 A 
HETATM    4  C   UNK N   1      35.831  13.565  13.600  0.00  0.00    -0.005 A 
HETATM    5  C   UNK N   1      35.903  12.326  14.251  0.00  0.00     0.078 A 
HETATM    6  C   UNK N   1      36.454  14.774  14.227  0.00  0.00     0.053 C 
HETATM    7  C   UNK N   1      35.306  11.203  13.659  0.00  0.00     0.054 A 
HETATM    8  C   UNK N   1      34.655  11.337  12.432  0.00  0.00     0.091 A 
ENDROOT
BRANCH   3   9
HETATM    9  C   UNK N   1      34.966  14.979  11.702  0.00  0.00     0.175 C 
BRANCH   9  10
HETATM   10  S   UNK N   1      36.076  14.998  10.261  0.00  0.00     0.090 S 
HETATM   11  O   UNK N   1      36.591  16.401  10.614  0.00  0.00    -0.249 OA
BRANCH  10  12
HETATM   12  C   UNK N   1      34.825  15.589   9.118  0.00  0.00     0.176 A 
HETATM   13  N   UNK N   1      33.551  15.893   9.483  0.00  0.00    -0.333 N 
HETATM   14  C   UNK N   1      33.000  16.358   8.357  0.00  0.00     0.061 A 
HETATM   15  H   UNK N   1      33.132  15.792  10.368  0.00  0.00     0.168 HD
HETATM   16  C   UNK N   1      33.916  16.340   7.351  0.00  0.00     0.061 A 
HETATM   17  C   UNK N   1      31.703  16.825   8.169  0.00  0.00     0.032 A 
HETATM   18  N   UNK N   1      35.081  15.858   7.812  0.00  0.00    -0.333 N 
HETATM   19  C   UNK N   1      33.618  16.786   6.069  0.00  0.00     0.032 A 
ATOM     20  HN  UNK N   1      35.954  15.725   7.302  1.00  0.00     0.168 HD
HETATM   21  C   UNK N   1      32.312  17.265   5.837  0.00  0.00     0.002 A 
HETATM   22  C   UNK N   1      31.359  17.285   6.883  0.00  0.00     0.002 A 
ENDBRANCH  10  12
ENDBRANCH   9  10
ENDBRANCH   3   9
BRANCH   5  23
HETATM   23  O   UNK N   1      36.535  12.246  15.445  0.00  0.00    -0.342 OA
BRANCH  23  24
HETATM   24  C   UNK N   1      35.939  11.842  16.620  0.00  0.00     0.293 C 
BRANCH  24  25
HETATM   25  C   UNK N   1      35.205  13.003  17.267  0.00  0.00     0.408 C 
HETATM   26  F   UNK N   1      34.848  12.681  18.566  0.00  0.00    -0.169 F 
HETATM   27  F   UNK N   1      34.069  13.298  16.538  0.00  0.00    -0.169 F 
HETATM   28  F   UNK N   1      36.035  14.107  17.289  0.00  0.00    -0.169 F 
ENDBRANCH  24  25
ENDBRANCH  23  24
ENDBRANCH   5  23
TORSDOF 6
ENDMDL
MODEL 3
REMARK VINA RESULT:      -6.9      3.934      5.020
REMARK  6 active torsions:
REMARK  status: ('A' for Active; 'I' for Inactive)
REMARK    1  A    between atoms: S_1  and  C_12 
REMARK    2  A    between atoms: S_1  and  C_15 
REMARK    3  A    between atoms: O_5  and  C_18 
REMARK    4  A    between atoms: O_5  and  C_26 
REMARK    5  A    between atoms: C_12  and  C_13 
REMARK    6  A    between atoms: C_26  and  C_27 
ROOT
HETATM    1  N   UNK N   1      34.501  17.308   8.898  0.00  0.00    -0.368 N 
ATOM      2  HN  UNK N   1      34.708  17.654   9.835  1.00  0.00     0.165 HD
HETATM    3  C   UNK N   1      34.590  15.973   8.648  0.00  0.00     0.029 A 
HETATM    4  C   UNK N   1      34.312  15.481   7.361  0.00  0.00    -0.005 A 
HETATM    5  C   UNK N   1      33.924  16.373   6.353  0.00  0.00     0.078 A 
HETATM    6  C   UNK N   1      34.399  14.015   7.067  0.00  0.00     0.053 C 
HETATM    7  C   UNK N   1      33.837  17.743   6.645  0.00  0.00     0.054 A 
HETATM    8  C   UNK N   1      34.141  18.194   7.930  0.00  0.00     0.091 A 
ENDROOT
BRANCH   3   9
HETATM    9  C   UNK N   1      34.912  15.045   9.770  0.00  0.00     0.175 C 
BRANCH   9  10
HETATM   10  S   UNK N   1      35.416  16.072  11.183  0.00  0.00     0.090 S 
HETATM   11  O   UNK N   1      36.882  16.072  10.725  0.00  0.00    -0.249 OA
BRANCH  10  12
HETATM   12  C   UNK N   1      35.618  14.688  12.308  0.00  0.00     0.176 A 
HETATM   13  N   UNK N   1      36.548  14.650  13.300  0.00  0.00    -0.333 N 
HETATM   14  C   UNK N   1      36.297  13.496  13.927  0.00  0.00     0.061 A 
HETATM   15  H   UNK N   1      37.243  15.316  13.507  0.00  0.00     0.168 HD
HETATM   16  C   UNK N   1      35.247  12.866  13.334  0.00  0.00     0.061 A 
HETATM   17  C   UNK N   1      36.952  12.963  15.033  0.00  0.00     0.032 A 
HETATM   18  N   UNK N   1      34.800  13.605  12.307  0.00  0.00    -0.333 N 
HETATM   19  C   UNK N   1      34.759  11.647  13.793  0.00  0.00     0.032 A 
ATOM     20  HN  UNK N   1      34.027  13.401  11.674  1.00  0.00     0.168 HD
HETATM   21  C   UNK N   1      35.397  11.073  14.911  0.00  0.00     0.002 A 
HETATM   22  C   UNK N   1      36.489  11.730  15.529  0.00  0.00     0.002 A 
ENDBRANCH  10  12
ENDBRANCH   9  10
ENDBRANCH   3   9
BRANCH   5  23
HETATM   23  O   UNK N   1      33.627  15.890   5.125  0.00  0.00    -0.342 OA
BRANCH  23  24
HETATM   24  C   UNK N   1      32.370  15.902   4.562  0.00  0.00     0.293 C 
BRANCH  24  25
HETATM   25  C   UNK N   1      32.339  16.825   3.357  0.00  0.00     0.408 C 
HETATM   26  F   UNK N   1      32.363  18.148   3.764  0.00  0.00    -0.169 F 
HETATM   27  F   UNK N   1      31.192  16.591   2.622  0.00  0.00    -0.169 F 
HETATM   28  F   UNK N   1      33.446  16.577   2.569  0.00  0.00    -0.169 F 
ENDBRANCH  24  25
ENDBRANCH  23  24
ENDBRANCH   5  23
TORSDOF 6
ENDMDL
MODEL 4
REMARK VINA RESULT:      -6.9     14.039     17.228
REMARK  6 active torsions:
REMARK  status: ('A' for Active; 'I' for Inactive)
REMARK    1  A    between atoms: S_1  and  C_12 
REMARK    2  A    between atoms: S_1  and  C_15 
REMARK    3  A    between atoms: O_5  and  C_18 
REMARK    4  A    between atoms: O_5  and  C_26 
REMARK    5  A    between atoms: C_12  and  C_13 
REMARK    6  A    between atoms: C_26  and  C_27 
ROOT
HETATM    1  N   UNK N   1      28.047  20.434  -8.159  0.00  0.00    -0.368 N 
ATOM      2  HN  UNK N   1      27.222  20.165  -8.694  1.00  0.00     0.165 HD
HETATM    3  C   UNK N   1      28.223  21.741  -7.821  0.00  0.00     0.029 A 
HETATM    4  C   UNK N   1      29.357  22.129  -7.088  0.00  0.00    -0.005 A 
HETATM    5  C   UNK N   1      30.286  21.157  -6.694  0.00  0.00     0.078 A 
HETATM    6  C   UNK N   1      29.566  23.560  -6.701  0.00  0.00     0.053 C 
HETATM    7  C   UNK N   1      30.074  19.818  -7.055  0.00  0.00     0.054 A 
HETATM    8  C   UNK N   1      28.945  19.477  -7.801  0.00  0.00     0.091 A 
ENDROOT
BRANCH   3   9
HETATM    9  C   UNK N   1      27.164  22.730  -8.174  0.00  0.00     0.175 C 
BRANCH   9  10
HETATM   10  S   UNK N   1      25.722  22.363  -7.129  0.00  0.00     0.090 S 
HETATM   11  O   UNK N   1      24.752  22.912  -8.186  0.00  0.00    -0.249 OA
BRANCH  10  12
HETATM   12  C   UNK N   1      25.812  23.900  -6.206  0.00  0.00     0.176 A 
HETATM   13  N   UNK N   1      25.247  25.064  -6.622  0.00  0.00    -0.333 N 
HETATM   14  C   UNK N   1      25.486  25.911  -5.616  0.00  0.00     0.061 A 
HETATM   15  H   UNK N   1      24.774  25.243  -7.467  0.00  0.00     0.168 HD
HETATM   16  C   UNK N   1      26.166  25.273  -4.625  0.00  0.00     0.061 A 
HETATM   17  C   UNK N   1      25.112  27.248  -5.515  0.00  0.00     0.032 A 
HETATM   18  N   UNK N   1      26.381  23.996  -4.978  0.00  0.00    -0.333 N 
HETATM   19  C   UNK N   1      26.533  25.913  -3.447  0.00  0.00     0.032 A 
ATOM     20  HN  UNK N   1      26.860  23.268  -4.448  1.00  0.00     0.168 HD
HETATM   21  C   UNK N   1      26.174  27.269  -3.307  0.00  0.00     0.002 A 
HETATM   22  C   UNK N   1      25.466  27.933  -4.337  0.00  0.00     0.002 A 
ENDBRANCH  10  12
ENDBRANCH   9  10
ENDBRANCH   3   9
BRANCH   5  23
HETATM   23  O   UNK N   1      31.360  21.532  -5.961  0.00  0.00    -0.342 OA
BRANCH  23  24
HETATM   24  C   UNK N   1      31.807  20.876  -4.835  0.00  0.00     0.293 C 
BRANCH  24  25
HETATM   25  C   UNK N   1      31.229  21.516  -3.586  0.00  0.00     0.408 C 
HETATM   26  F   UNK N   1      32.083  21.330  -2.512  0.00  0.00    -0.169 F 
HETATM   27  F   UNK N   1      30.001  20.950  -3.301  0.00  0.00    -0.169 F 
HETATM   28  F   UNK N   1      31.069  22.871  -3.805  0.00  0.00    -0.169 F 
ENDBRANCH  24  25
ENDBRANCH  23  24
ENDBRANCH   5  23
TORSDOF 6
ENDMDL
MODEL 5
REMARK VINA RESULT:      -6.7      4.574      9.794
REMARK  6 active torsions:
REMARK  status: ('A' for Active; 'I' for Inactive)
REMARK    1  A    between atoms: S_1  and  C_12 
REMARK    2  A    between atoms: S_1  and  C_15 
REMARK    3  A    between atoms: O_5  and  C_18 
REMARK    4  A    between atoms: O_5  and  C_26 
REMARK    5  A    between atoms: C_12  and  C_13 
REMARK    6  A    between atoms: C_26  and  C_27 
ROOT
HETATM    1  N   UNK N   1      27.850  18.102   8.261  0.00  0.00    -0.368 N 
ATOM      2  HN  UNK N   1      26.857  18.285   8.404  1.00  0.00     0.165 HD
HETATM    3  C   UNK N   1      28.292  17.761   7.020  0.00  0.00     0.029 A 
HETATM    4  C   UNK N   1      29.657  17.500   6.808  0.00  0.00    -0.005 A 
HETATM    5  C   UNK N   1      30.552  17.616   7.879  0.00  0.00     0.078 A 
HETATM    6  C   UNK N   1      30.164  17.130   5.449  0.00  0.00     0.053 C 
HETATM    7  C   UNK N   1      30.066  17.974   9.145  0.00  0.00     0.054 A 
HETATM    8  C   UNK N   1      28.701  18.205   9.318  0.00  0.00     0.091 A 
ENDROOT
BRANCH   3   9
HETATM    9  C   UNK N   1      27.324  17.743   5.885  0.00  0.00     0.175 C 
BRANCH   9  10
HETATM   10  S   UNK N   1      27.441  19.358   5.059  0.00  0.00     0.090 S 
HETATM   11  O   UNK N   1      27.236  20.107   6.384  0.00  0.00    -0.249 OA
BRANCH  10  12
HETATM   12  C   UNK N   1      25.708  19.414   4.595  0.00  0.00     0.176 A 
HETATM   13  N   UNK N   1      25.206  20.248   3.646  0.00  0.00    -0.333 N 
HETATM   14  C   UNK N   1      23.916  19.904   3.570  0.00  0.00     0.061 A 
HETATM   15  H   UNK N   1      25.681  20.943   3.135  0.00  0.00     0.168 HD
HETATM   16  C   UNK N   1      23.654  18.892   4.440  0.00  0.00     0.061 A 
HETATM   17  C   UNK N   1      22.935  20.439   2.740  0.00  0.00     0.032 A 
HETATM   18  N   UNK N   1      24.777  18.564   5.099  0.00  0.00    -0.333 N 
HETATM   19  C   UNK N   1      22.391  18.325   4.561  0.00  0.00     0.032 A 
ATOM     20  HN  UNK N   1      24.902  17.845   5.811  1.00  0.00     0.168 HD
HETATM   21  C   UNK N   1      21.369  18.842   3.738  0.00  0.00     0.002 A 
HETATM   22  C   UNK N   1      21.641  19.894   2.831  0.00  0.00     0.002 A 
ENDBRANCH  10  12
ENDBRANCH   9  10
ENDBRANCH   3   9
BRANCH   5  23
HETATM   23  O   UNK N   1      31.870  17.395   7.662  0.00  0.00    -0.342 OA
BRANCH  23  24
HETATM   24  C   UNK N   1      32.821  17.305   8.653  0.00  0.00     0.293 C 
BRANCH  24  25
HETATM   25  C   UNK N   1      34.173  17.760   8.132  0.00  0.00     0.408 C 
HETATM   26  F   UNK N   1      34.301  19.132   8.263  0.00  0.00    -0.169 F 
HETATM   27  F   UNK N   1      34.297  17.411   6.800  0.00  0.00    -0.169 F 
HETATM   28  F   UNK N   1      35.170  17.142   8.861  0.00  0.00    -0.169 F 
ENDBRANCH  24  25
ENDBRANCH  23  24
ENDBRANCH   5  23
TORSDOF 6
ENDMDL
MODEL 6
REMARK VINA RESULT:      -6.7      5.320      8.906
REMARK  6 active torsions:
REMARK  status: ('A' for Active; 'I' for Inactive)
REMARK    1  A    between atoms: S_1  and  C_12 
REMARK    2  A    between atoms: S_1  and  C_15 
REMARK    3  A    between atoms: O_5  and  C_18 
REMARK    4  A    between atoms: O_5  and  C_26 
REMARK    5  A    between atoms: C_12  and  C_13 
REMARK    6  A    between atoms: C_26  and  C_27 
ROOT
HETATM    1  N   UNK N   1      34.603  14.328   8.531  0.00  0.00    -0.368 N 
ATOM      2  HN  UNK N   1      34.254  14.593   7.610  1.00  0.00     0.165 HD
HETATM    3  C   UNK N   1      34.919  15.303   9.428  0.00  0.00     0.029 A 
HETATM    4  C   UNK N   1      35.406  14.955  10.699  0.00  0.00    -0.005 A 
HETATM    5  C   UNK N   1      35.539  13.602  11.037  0.00  0.00     0.078 A 
HETATM    6  C   UNK N   1      35.754  16.011  11.701  0.00  0.00     0.053 C 
HETATM    7  C   UNK N   1      35.200  12.621  10.092  0.00  0.00     0.054 A 
HETATM    8  C   UNK N   1      34.740  13.009   8.834  0.00  0.00     0.091 A 
ENDROOT
BRANCH   3   9
HETATM    9  C   UNK N   1      34.672  16.728   9.066  0.00  0.00     0.175 C 
BRANCH   9  10
HETATM   10  S   UNK N   1      34.175  16.756   7.317  0.00  0.00     0.090 S 
HETATM   11  O   UNK N   1      34.586  18.229   7.172  0.00  0.00    -0.249 OA
BRANCH  10  12
HETATM   12  C   UNK N   1      32.451  17.122   7.658  0.00  0.00     0.176 A 
HETATM   13  N   UNK N   1      32.008  17.642   8.834  0.00  0.00    -0.333 N 
HETATM   14  C   UNK N   1      30.699  17.823   8.628  0.00  0.00     0.061 A 
HETATM   15  H   UNK N   1      32.528  17.837   9.646  0.00  0.00     0.168 HD
HETATM   16  C   UNK N   1      30.370  17.432   7.367  0.00  0.00     0.061 A 
HETATM   17  C   UNK N   1      29.758  18.345   9.510  0.00  0.00     0.032 A 
HETATM   18  N   UNK N   1      31.467  16.986   6.734  0.00  0.00    -0.333 N 
HETATM   19  C   UNK N   1      29.073  17.525   6.876  0.00  0.00     0.032 A 
ATOM     20  HN  UNK N   1      31.543  16.628   5.782  1.00  0.00     0.168 HD
HETATM   21  C   UNK N   1      28.089  18.047   7.741  0.00  0.00     0.002 A 
HETATM   22  C   UNK N   1      28.431  18.456   9.053  0.00  0.00     0.002 A 
ENDBRANCH  10  12
ENDBRANCH   9  10
ENDBRANCH   3   9
BRANCH   5  23
HETATM   23  O   UNK N   1      35.979  13.272  12.274  0.00  0.00    -0.342 OA
BRANCH  23  24
HETATM   24  C   UNK N   1      35.184  12.757  13.274  0.00  0.00     0.293 C 
BRANCH  24  25
HETATM   25  C   UNK N   1      35.697  13.195  14.635  0.00  0.00     0.408 C 
HETATM   26  F   UNK N   1      36.578  12.255  15.142  0.00  0.00    -0.169 F 
HETATM   27  F   UNK N   1      34.633  13.345  15.504  0.00  0.00    -0.169 F 
HETATM   28  F   UNK N   1      36.353  14.403  14.503  0.00  0.00    -0.169 F 
ENDBRANCH  24  25
ENDBRANCH  23  24
ENDBRANCH   5  23
TORSDOF 6
ENDMDL
MODEL 7
REMARK VINA RESULT:      -6.7      3.644      5.335
REMARK  6 active torsions:
REMARK  status: ('A' for Active; 'I' for Inactive)
REMARK    1  A    between atoms: S_1  and  C_12 
REMARK    2  A    between atoms: S_1  and  C_15 
REMARK    3  A    between atoms: O_5  and  C_18 
REMARK    4  A    between atoms: O_5  and  C_26 
REMARK    5  A    between atoms: C_12  and  C_13 
REMARK    6  A    between atoms: C_26  and  C_27 
ROOT
HETATM    1  N   UNK N   1      35.106  14.036   7.987  0.00  0.00    -0.368 N 
ATOM      2  HN  UNK N   1      35.361  13.179   8.476  1.00  0.00     0.165 HD
HETATM    3  C   UNK N   1      34.592  15.078   8.696  0.00  0.00     0.029 A 
HETATM    4  C   UNK N   1      34.231  16.265   8.035  0.00  0.00    -0.005 A 
HETATM    5  C   UNK N   1      34.427  16.369   6.652  0.00  0.00     0.078 A 
HETATM    6  C   UNK N   1      33.669  17.425   8.798  0.00  0.00     0.053 C 
HETATM    7  C   UNK N   1      34.964  15.278   5.951  0.00  0.00     0.054 A 
HETATM    8  C   UNK N   1      35.290  14.110   6.641  0.00  0.00     0.091 A 
ENDROOT
BRANCH   3   9
HETATM    9  C   UNK N   1      34.489  14.965  10.179  0.00  0.00     0.175 C 
BRANCH   9  10
HETATM   10  S   UNK N   1      36.086  15.498  10.866  0.00  0.00     0.090 S 
HETATM   11  O   UNK N   1      36.841  14.412  10.085  0.00  0.00    -0.249 OA
BRANCH  10  12
HETATM   12  C   UNK N   1      35.938  14.519  12.364  0.00  0.00     0.176 A 
HETATM   13  N   UNK N   1      36.586  14.809  13.523  0.00  0.00    -0.333 N 
HETATM   14  C   UNK N   1      36.134  13.887  14.379  0.00  0.00     0.061 A 
HETATM   15  H   UNK N   1      37.236  15.529  13.692  0.00  0.00     0.168 HD
HETATM   16  C   UNK N   1      35.239  13.074  13.755  0.00  0.00     0.061 A 
HETATM   17  C   UNK N   1      36.466  13.729  15.721  0.00  0.00     0.032 A 
HETATM   18  N   UNK N   1      35.097  13.459  12.476  0.00  0.00    -0.333 N 
HETATM   19  C   UNK N   1      34.597  12.033  14.415  0.00  0.00     0.032 A 
ATOM     20  HN  UNK N   1      34.499  13.051  11.758  1.00  0.00     0.168 HD
HETATM   21  C   UNK N   1      34.908  11.839  15.776  0.00  0.00     0.002 A 
HETATM   22  C   UNK N   1      35.839  12.685  16.427  0.00  0.00     0.002 A 
ENDBRANCH  10  12
ENDBRANCH   9  10
ENDBRANCH   3   9
BRANCH   5  23
HETATM   23  O   UNK N   1      34.108  17.526   6.027  0.00  0.00    -0.342 OA
BRANCH  23  24
HETATM   24  C   UNK N   1      33.385  17.609   4.857  0.00  0.00     0.293 C 
BRANCH  24  25
HETATM   25  C   UNK N   1      31.932  17.243   5.106  0.00  0.00     0.408 C 
HETATM   26  F   UNK N   1      31.745  15.881   4.945  0.00  0.00    -0.169 F 
HETATM   27  F   UNK N   1      31.124  17.927   4.218  0.00  0.00    -0.169 F 
HETATM   28  F   UNK N   1      31.593  17.594   6.398  0.00  0.00    -0.169 F 
ENDBRANCH  24  25
ENDBRANCH  23  24
ENDBRANCH   5  23
TORSDOF 6
ENDMDL
MODEL 8
REMARK VINA RESULT:      -6.6      4.828      7.024
REMARK  6 active torsions:
REMARK  status: ('A' for Active; 'I' for Inactive)
REMARK    1  A    between atoms: S_1  and  C_12 
REMARK    2  A    between atoms: S_1  and  C_15 
REMARK    3  A    between atoms: O_5  and  C_18 
REMARK    4  A    between atoms: O_5  and  C_26 
REMARK    5  A    between atoms: C_12  and  C_13 
REMARK    6  A    between atoms: C_26  and  C_27 
ROOT
HETATM    1  N   UNK N   1      35.692  15.159  11.877  0.00  0.00    -0.368 N 
ATOM      2  HN  UNK N   1      36.107  15.058  12.803  1.00  0.00     0.165 HD
HETATM    3  C   UNK N   1      35.163  14.065  11.263  0.00  0.00     0.029 A 
HETATM    4  C   UNK N   1      34.592  14.186   9.985  0.00  0.00    -0.005 A 
HETATM    5  C   UNK N   1      34.554  15.441   9.365  0.00  0.00     0.078 A 
HETATM    6  C   UNK N   1      33.999  12.996   9.295  0.00  0.00     0.053 C 
HETATM    7  C   UNK N   1      35.104  16.550  10.026  0.00  0.00     0.054 A 
HETATM    8  C   UNK N   1      35.680  16.384  11.286  0.00  0.00     0.091 A 
ENDROOT
BRANCH   3   9
HETATM    9  C   UNK N   1      35.135  12.765  11.995  0.00  0.00     0.175 C 
BRANCH   9  10
HETATM   10  S   UNK N   1      36.839  12.413  12.521  0.00  0.00     0.090 S 
HETATM   11  O   UNK N   1      36.647  10.904  12.308  0.00  0.00    -0.249 OA
BRANCH  10  12
HETATM   12  C   UNK N   1      36.447  12.361  14.272  0.00  0.00     0.176 A 
HETATM   13  N   UNK N   1      36.041  13.444  14.987  0.00  0.00    -0.333 N 
HETATM   14  C   UNK N   1      35.788  12.946  16.202  0.00  0.00     0.061 A 
HETATM   15  H   UNK N   1      35.955  14.376  14.682  0.00  0.00     0.168 HD
HETATM   16  C   UNK N   1      36.028  11.606  16.213  0.00  0.00     0.061 A 
HETATM   17  C   UNK N   1      35.329  13.625  17.327  0.00  0.00     0.032 A 
HETATM   18  N   UNK N   1      36.445  11.214  14.998  0.00  0.00    -0.333 N 
HETATM   19  C   UNK N   1      35.832  10.827  17.347  0.00  0.00     0.032 A 
ATOM     20  HN  UNK N   1      36.700  10.276  14.692  1.00  0.00     0.168 HD
HETATM   21  C   UNK N   1      35.370  11.479  18.508  0.00  0.00     0.002 A 
HETATM   22  C   UNK N   1      35.119  12.872  18.498  0.00  0.00     0.002 A 
ENDBRANCH  10  12
ENDBRANCH   9  10
ENDBRANCH   3   9
BRANCH   5  23
HETATM   23  O   UNK N   1      33.974  15.557   8.148  0.00  0.00    -0.342 OA
BRANCH  23  24
HETATM   24  C   UNK N   1      34.443  16.360   7.131  0.00  0.00     0.293 C 
BRANCH  24  25
HETATM   25  C   UNK N   1      33.497  17.525   6.898  0.00  0.00     0.408 C 
HETATM   26  F   UNK N   1      33.894  18.622   7.642  0.00  0.00    -0.169 F 
HETATM   27  F   UNK N   1      32.215  17.161   7.262  0.00  0.00    -0.169 F 
HETATM   28  F   UNK N   1      33.515  17.859   5.558  0.00  0.00    -0.169 F 
ENDBRANCH  24  25
ENDBRANCH  23  24
ENDBRANCH   5  23
TORSDOF 6
ENDMDL
MODEL 9
REMARK VINA RESULT:      -6.5      1.735      2.597
REMARK  6 active torsions:
REMARK  status: ('A' for Active; 'I' for Inactive)
REMARK    1  A    between atoms: S_1  and  C_12 
REMARK    2  A    between atoms: S_1  and  C_15 
REMARK    3  A    between atoms: O_5  and  C_18 
REMARK    4  A    between atoms: O_5  and  C_26 
REMARK    5  A    between atoms: C_12  and  C_13 
REMARK    6  A    between atoms: C_26  and  C_27 
ROOT
HETATM    1  N   UNK N   1      30.873  16.553   6.343  0.00  0.00    -0.368 N 
ATOM      2  HN  UNK N   1      31.624  15.895   6.136  1.00  0.00     0.165 HD
HETATM    3  C   UNK N   1      30.670  16.945   7.631  0.00  0.00     0.029 A 
HETATM    4  C   UNK N   1      29.636  17.847   7.934  0.00  0.00    -0.005 A 
HETATM    5  C   UNK N   1      28.839  18.351   6.898  0.00  0.00     0.078 A 
HETATM    6  C   UNK N   1      29.399  18.295   9.343  0.00  0.00     0.053 C 
HETATM    7  C   UNK N   1      29.077  17.931   5.581  0.00  0.00     0.054 A 
HETATM    8  C   UNK N   1      30.101  17.018   5.325  0.00  0.00     0.091 A 
ENDROOT
BRANCH   3   9
HETATM    9  C   UNK N   1      31.600  16.462   8.692  0.00  0.00     0.175 C 
BRANCH   9  10
HETATM   10  S   UNK N   1      32.890  15.483   7.864  0.00  0.00     0.090 S 
HETATM   11  O   UNK N   1      31.992  14.238   7.826  0.00  0.00    -0.249 OA
BRANCH  10  12
HETATM   12  C   UNK N   1      33.720  15.014   9.385  0.00  0.00     0.176 A 
HETATM   13  N   UNK N   1      33.834  13.731   9.818  0.00  0.00    -0.333 N 
HETATM   14  C   UNK N   1      34.577  13.833  10.925  0.00  0.00     0.061 A 
HETATM   15  H   UNK N   1      33.457  12.917   9.413  0.00  0.00     0.168 HD
HETATM   16  C   UNK N   1      34.904  15.136  11.144  0.00  0.00     0.061 A 
HETATM   17  C   UNK N   1      35.007  12.811  11.766  0.00  0.00     0.032 A 
HETATM   18  N   UNK N   1      34.372  15.902  10.178  0.00  0.00    -0.333 N 
HETATM   19  C   UNK N   1      35.687  15.533  12.222  0.00  0.00     0.032 A 
ATOM     20  HN  UNK N   1      34.442  16.913  10.066  1.00  0.00     0.168 HD
HETATM   21  C   UNK N   1      36.141  14.526  13.098  0.00  0.00     0.002 A 
HETATM   22  C   UNK N   1      35.803  13.170  12.870  0.00  0.00     0.002 A 
ENDBRANCH  10  12
ENDBRANCH   9  10
ENDBRANCH   3   9
BRANCH   5  23
HETATM   23  O   UNK N   1      27.865  19.244   7.193  0.00  0.00    -0.342 OA
BRANCH  23  24
HETATM   24  C   UNK N   1      26.882  19.647   6.315  0.00  0.00     0.293 C 
BRANCH  24  25
HETATM   25  C   UNK N   1      27.043  21.119   5.980  0.00  0.00     0.408 C 
HETATM   26  F   UNK N   1      26.957  21.313   4.612  0.00  0.00    -0.169 F 
HETATM   27  F   UNK N   1      28.271  21.565   6.432  0.00  0.00    -0.169 F 
HETATM   28  F   UNK N   1      26.039  21.836   6.601  0.00  0.00    -0.169 F 
ENDBRANCH  24  25
ENDBRANCH  23  24
ENDBRANCH   5  23
TORSDOF 6
ENDMDL
