MODEL 1
REMARK VINA RESULT:      -6.6      0.000      0.000
REMARK  2 active torsions:
REMARK  status: ('A' for Active; 'I' for Inactive)
REMARK    1  A    between atoms: O_3  and  C_11 
REMARK    2  A    between atoms: O_4  and  C_12 
ROOT
HETATM    1  O   UNK N   1      28.296  18.993   8.895  0.00  0.00    -0.286 OA
HETATM    2  O   UNK N   1      29.827  17.339   4.051  0.00  0.00    -0.287 OA
HETATM    3  C   UNK N   1      27.968  19.144   6.572  0.00  0.00     0.062 A 
HETATM    4  C   UNK N   1      29.751  17.624   7.653  0.00  0.00     0.062 A 
HETATM    5  C   UNK N   1      28.381  18.700   5.294  0.00  0.00     0.032 A 
HETATM    6  C   UNK N   1      30.149  17.193   6.367  0.00  0.00     0.032 A 
HETATM    7  C   UNK N   1      28.646  18.614   7.786  0.00  0.00     0.199 A 
HETATM    8  C   UNK N   1      29.476  17.718   5.161  0.00  0.00     0.194 A 
HETATM    9  C   UNK N   1      26.916  20.085   6.664  0.00  0.00     0.080 A 
HETATM   10  C   UNK N   1      30.415  17.102   8.787  0.00  0.00     0.080 A 
HETATM   11  C   UNK N   1      27.749  19.192   4.146  0.00  0.00     0.017 A 
HETATM   12  C   UNK N   1      31.186  16.262   6.232  0.00  0.00     0.017 A 
HETATM   13  C   UNK N   1      26.300  20.562   5.507  0.00  0.00     0.037 A 
HETATM   14  C   UNK N   1      31.447  16.176   8.630  0.00  0.00     0.037 A 
HETATM   15  C   UNK N   1      26.714  20.119   4.252  0.00  0.00     0.004 A 
HETATM   16  C   UNK N   1      31.832  15.757   7.358  0.00  0.00     0.004 A 
ENDROOT
BRANCH   9  17
HETATM   17  O   UNK N   1      26.490  20.535   7.858  0.00  0.00    -0.360 OA
HETATM   18  H   UNK N   1      25.596  20.793   7.970  0.00  0.00     0.217 HD
ENDBRANCH   9  17
BRANCH  10  19
HETATM   19  O   UNK N   1      30.070  17.484  10.030  0.00  0.00    -0.360 OA
HETATM   20  H   UNK N   1      29.176  17.688  10.226  0.00  0.00     0.217 HD
ENDBRANCH  10  19
TORSDOF 2
ENDMDL
MODEL 2
REMARK VINA RESULT:      -6.6      0.008      4.723
REMARK  2 active torsions:
REMARK  status: ('A' for Active; 'I' for Inactive)
REMARK    1  A    between atoms: O_3  and  C_11 
REMARK    2  A    between atoms: O_4  and  C_12 
ROOT
HETATM    1  O   UNK N   1      28.294  18.996   8.895  0.00  0.00    -0.286 OA
HETATM    2  O   UNK N   1      29.837  17.343   4.054  0.00  0.00    -0.287 OA
HETATM    3  C   UNK N   1      29.752  17.628   7.656  0.00  0.00     0.062 A 
HETATM    4  C   UNK N   1      27.971  19.148   6.569  0.00  0.00     0.062 A 
HETATM    5  C   UNK N   1      30.152  17.197   6.371  0.00  0.00     0.032 A 
HETATM    6  C   UNK N   1      28.387  18.704   5.294  0.00  0.00     0.032 A 
HETATM    7  C   UNK N   1      28.647  18.618   7.787  0.00  0.00     0.199 A 
HETATM    8  C   UNK N   1      29.483  17.722   5.164  0.00  0.00     0.194 A 
HETATM    9  C   UNK N   1      30.413  17.106   8.793  0.00  0.00     0.080 A 
HETATM   10  C   UNK N   1      26.919  20.088   6.660  0.00  0.00     0.080 A 
HETATM   11  C   UNK N   1      31.190  16.267   6.238  0.00  0.00     0.017 A 
HETATM   12  C   UNK N   1      27.758  19.196   4.144  0.00  0.00     0.017 A 
HETATM   13  C   UNK N   1      31.445  16.180   8.637  0.00  0.00     0.037 A 
HETATM   14  C   UNK N   1      26.306  20.566   5.501  0.00  0.00     0.037 A 
HETATM   15  C   UNK N   1      31.833  15.761   7.365  0.00  0.00     0.004 A 
HETATM   16  C   UNK N   1      26.722  20.123   4.248  0.00  0.00     0.004 A 
ENDROOT
BRANCH   9  17
HETATM   17  O   UNK N   1      30.066  17.487  10.035  0.00  0.00    -0.360 OA
HETATM   18  H   UNK N   1      30.575  18.131  10.487  0.00  0.00     0.217 HD
ENDBRANCH   9  17
BRANCH  10  19
HETATM   19  O   UNK N   1      26.491  20.538   7.854  0.00  0.00    -0.360 OA
HETATM   20  H   UNK N   1      26.337  19.934   8.554  0.00  0.00     0.217 HD
ENDBRANCH  10  19
TORSDOF 2
ENDMDL
MODEL 3
REMARK VINA RESULT:      -6.6      2.362      4.693
REMARK  2 active torsions:
REMARK  status: ('A' for Active; 'I' for Inactive)
REMARK    1  A    between atoms: O_3  and  C_11 
REMARK    2  A    between atoms: O_4  and  C_12 
ROOT
HETATM    1  O   UNK N   1      28.461  17.243   4.861  0.00  0.00    -0.286 OA
HETATM    2  O   UNK N   1      32.957  17.499   7.736  0.00  0.00    -0.287 OA
HETATM    3  C   UNK N   1      30.809  17.119   4.853  0.00  0.00     0.062 A 
HETATM    4  C   UNK N   1      29.422  17.556   6.986  0.00  0.00     0.062 A 
HETATM    5  C   UNK N   1      31.993  17.189   5.623  0.00  0.00     0.032 A 
HETATM    6  C   UNK N   1      30.617  17.622   7.737  0.00  0.00     0.032 A 
HETATM    7  C   UNK N   1      29.490  17.302   5.519  0.00  0.00     0.199 A 
HETATM    8  C   UNK N   1      31.926  17.441   7.077  0.00  0.00     0.194 A 
HETATM    9  C   UNK N   1      30.907  16.876   3.463  0.00  0.00     0.080 A 
HETATM   10  C   UNK N   1      28.185  17.734   7.647  0.00  0.00     0.080 A 
HETATM   11  C   UNK N   1      33.237  17.018   5.006  0.00  0.00     0.017 A 
HETATM   12  C   UNK N   1      30.564  17.861   9.115  0.00  0.00     0.017 A 
HETATM   13  C   UNK N   1      32.158  16.709   2.869  0.00  0.00     0.037 A 
HETATM   14  C   UNK N   1      28.154  17.971   9.022  0.00  0.00     0.037 A 
HETATM   15  C   UNK N   1      33.320  16.779   3.636  0.00  0.00     0.004 A 
HETATM   16  C   UNK N   1      29.338  18.034   9.754  0.00  0.00     0.004 A 
ENDROOT
BRANCH   9  17
HETATM   17  O   UNK N   1      29.807  16.802   2.691  0.00  0.00    -0.360 OA
HETATM   18  H   UNK N   1      29.544  15.979   2.330  0.00  0.00     0.217 HD
ENDBRANCH   9  17
BRANCH  10  19
HETATM   19  O   UNK N   1      27.023  17.680   6.971  0.00  0.00    -0.360 OA
HETATM   20  H   UNK N   1      26.722  16.863   6.622  0.00  0.00     0.217 HD
ENDBRANCH  10  19
TORSDOF 2
ENDMDL
MODEL 4
REMARK VINA RESULT:      -6.6      2.359      4.381
REMARK  2 active torsions:
REMARK  status: ('A' for Active; 'I' for Inactive)
REMARK    1  A    between atoms: O_3  and  C_11 
REMARK    2  A    between atoms: O_4  and  C_12 
ROOT
HETATM    1  O   UNK N   1      28.494  17.243   4.870  0.00  0.00    -0.286 OA
HETATM    2  O   UNK N   1      32.979  17.507   7.762  0.00  0.00    -0.287 OA
HETATM    3  C   UNK N   1      29.447  17.575   6.994  0.00  0.00     0.062 A 
HETATM    4  C   UNK N   1      30.843  17.105   4.874  0.00  0.00     0.062 A 
HETATM    5  C   UNK N   1      30.640  17.643   7.750  0.00  0.00     0.032 A 
HETATM    6  C   UNK N   1      32.023  17.177   5.648  0.00  0.00     0.032 A 
HETATM    7  C   UNK N   1      29.521  17.304   5.532  0.00  0.00     0.199 A 
HETATM    8  C   UNK N   1      31.951  17.447   7.099  0.00  0.00     0.194 A 
HETATM    9  C   UNK N   1      28.208  17.768   7.648  0.00  0.00     0.080 A 
HETATM   10  C   UNK N   1      30.946  16.846   3.488  0.00  0.00     0.080 A 
HETATM   11  C   UNK N   1      30.581  17.898   9.125  0.00  0.00     0.017 A 
HETATM   12  C   UNK N   1      33.270  16.992   5.039  0.00  0.00     0.017 A 
HETATM   13  C   UNK N   1      28.172  18.021   9.019  0.00  0.00     0.037 A 
HETATM   14  C   UNK N   1      32.199  16.665   2.901  0.00  0.00     0.037 A 
HETATM   15  C   UNK N   1      29.354  18.086   9.756  0.00  0.00     0.004 A 
HETATM   16  C   UNK N   1      33.357  16.737   3.672  0.00  0.00     0.004 A 
ENDROOT
BRANCH   9  17
HETATM   17  O   UNK N   1      27.048  17.712   6.969  0.00  0.00    -0.360 OA
HETATM   18  H   UNK N   1      26.450  18.432   7.004  0.00  0.00     0.217 HD
ENDBRANCH   9  17
BRANCH  10  19
HETATM   19  O   UNK N   1      29.849  16.769   2.713  0.00  0.00    -0.360 OA
HETATM   20  H   UNK N   1      28.999  16.724   3.107  0.00  0.00     0.217 HD
ENDBRANCH  10  19
TORSDOF 2
ENDMDL
MODEL 5
REMARK VINA RESULT:      -6.4      7.862      8.465
REMARK  2 active torsions:
REMARK  status: ('A' for Active; 'I' for Inactive)
REMARK    1  A    between atoms: O_3  and  C_11 
REMARK    2  A    between atoms: O_4  and  C_12 
ROOT
HETATM    1  O   UNK N   1      25.402  13.422   9.165  0.00  0.00    -0.286 OA
HETATM    2  O   UNK N   1      20.153  13.893   8.287  0.00  0.00    -0.287 OA
HETATM    3  C   UNK N   1      23.711  14.189   7.722  0.00  0.00     0.062 A 
HETATM    4  C   UNK N   1      23.229  13.001   9.962  0.00  0.00     0.062 A 
HETATM    5  C   UNK N   1      22.320  14.309   7.499  0.00  0.00     0.032 A 
HETATM    6  C   UNK N   1      21.843  13.131   9.720  0.00  0.00     0.032 A 
HETATM    7  C   UNK N   1      24.201  13.530   8.964  0.00  0.00     0.199 A 
HETATM    8  C   UNK N   1      21.356  13.785   8.488  0.00  0.00     0.194 A 
HETATM    9  C   UNK N   1      24.608  14.701   6.755  0.00  0.00     0.080 A 
HETATM   10  C   UNK N   1      23.663  12.370  11.150  0.00  0.00     0.080 A 
HETATM   11  C   UNK N   1      21.850  14.927   6.335  0.00  0.00     0.017 A 
HETATM   12  C   UNK N   1      20.922  12.637  10.653  0.00  0.00     0.017 A 
HETATM   13  C   UNK N   1      24.118  15.314   5.601  0.00  0.00     0.037 A 
HETATM   14  C   UNK N   1      22.728  11.885  12.067  0.00  0.00     0.037 A 
HETATM   15  C   UNK N   1      22.744  15.427   5.391  0.00  0.00     0.004 A 
HETATM   16  C   UNK N   1      21.363  12.017  11.820  0.00  0.00     0.004 A 
ENDROOT
BRANCH   9  17
HETATM   17  O   UNK N   1      25.939  14.610   6.925  0.00  0.00    -0.360 OA
HETATM   18  H   UNK N   1      26.316  14.773   7.767  0.00  0.00     0.217 HD
ENDBRANCH   9  17
BRANCH  10  19
HETATM   19  O   UNK N   1      24.972  12.225  11.422  0.00  0.00    -0.360 OA
HETATM   20  H   UNK N   1      25.478  12.964  11.700  0.00  0.00     0.217 HD
ENDBRANCH  10  19
TORSDOF 2
ENDMDL
MODEL 6
REMARK VINA RESULT:      -6.4     10.626     13.178
REMARK  2 active torsions:
REMARK  status: ('A' for Active; 'I' for Inactive)
REMARK    1  A    between atoms: O_3  and  C_11 
REMARK    2  A    between atoms: O_4  and  C_12 
ROOT
HETATM    1  O   UNK N   1      28.489  24.062  -2.463  0.00  0.00    -0.286 OA
HETATM    2  O   UNK N   1      29.283  21.821  -7.247  0.00  0.00    -0.287 OA
HETATM    3  C   UNK N   1      29.851  22.669  -3.779  0.00  0.00     0.062 A 
HETATM    4  C   UNK N   1      27.711  23.805  -4.668  0.00  0.00     0.062 A 
HETATM    5  C   UNK N   1      30.052  22.081  -5.050  0.00  0.00     0.032 A 
HETATM    6  C   UNK N   1      27.930  23.208  -5.930  0.00  0.00     0.032 A 
HETATM    7  C   UNK N   1      28.671  23.549  -3.558  0.00  0.00     0.199 A 
HETATM    8  C   UNK N   1      29.101  22.335  -6.150  0.00  0.00     0.194 A 
HETATM    9  C   UNK N   1      30.780  22.406  -2.746  0.00  0.00     0.080 A 
HETATM   10  C   UNK N   1      26.581  24.636  -4.489  0.00  0.00     0.080 A 
HETATM   11  C   UNK N   1      31.159  21.252  -5.267  0.00  0.00     0.017 A 
HETATM   12  C   UNK N   1      27.034  23.443  -6.980  0.00  0.00     0.017 A 
HETATM   13  C   UNK N   1      31.876  21.577  -2.985  0.00  0.00     0.037 A 
HETATM   14  C   UNK N   1      25.699  24.857  -5.549  0.00  0.00     0.037 A 
HETATM   15  C   UNK N   1      32.066  21.002  -4.241  0.00  0.00     0.004 A 
HETATM   16  C   UNK N   1      25.924  24.264  -6.789  0.00  0.00     0.004 A 
ENDROOT
BRANCH   9  17
HETATM   17  O   UNK N   1      30.629  22.944  -1.522  0.00  0.00    -0.360 OA
HETATM   18  H   UNK N   1      30.645  22.394  -0.764  0.00  0.00     0.217 HD
ENDBRANCH   9  17
BRANCH  10  19
HETATM   19  O   UNK N   1      26.333  25.225  -3.305  0.00  0.00    -0.360 OA
HETATM   20  H   UNK N   1      25.931  24.736  -2.614  0.00  0.00     0.217 HD
ENDBRANCH  10  19
TORSDOF 2
ENDMDL
MODEL 7
REMARK VINA RESULT:      -6.4     10.625     12.326
REMARK  2 active torsions:
REMARK  status: ('A' for Active; 'I' for Inactive)
REMARK    1  A    between atoms: O_3  and  C_11 
REMARK    2  A    between atoms: O_4  and  C_12 
ROOT
HETATM    1  O   UNK N   1      28.488  24.076  -2.467  0.00  0.00    -0.286 OA
HETATM    2  O   UNK N   1      29.271  21.815  -7.244  0.00  0.00    -0.287 OA
HETATM    3  C   UNK N   1      27.708  23.815  -4.670  0.00  0.00     0.062 A 
HETATM    4  C   UNK N   1      29.845  22.672  -3.780  0.00  0.00     0.062 A 
HETATM    5  C   UNK N   1      27.925  23.212  -5.930  0.00  0.00     0.032 A 
HETATM    6  C   UNK N   1      30.043  22.079  -5.047  0.00  0.00     0.032 A 
HETATM    7  C   UNK N   1      28.667  23.559  -3.560  0.00  0.00     0.199 A 
HETATM    8  C   UNK N   1      29.092  22.333  -6.148  0.00  0.00     0.194 A 
HETATM    9  C   UNK N   1      26.581  24.651  -4.493  0.00  0.00     0.080 A 
HETATM   10  C   UNK N   1      30.772  22.410  -2.746  0.00  0.00     0.080 A 
HETATM   11  C   UNK N   1      27.029  23.447  -6.979  0.00  0.00     0.017 A 
HETATM   12  C   UNK N   1      31.146  21.245  -5.263  0.00  0.00     0.017 A 
HETATM   13  C   UNK N   1      25.701  24.872  -5.553  0.00  0.00     0.037 A 
HETATM   14  C   UNK N   1      31.866  21.575  -2.982  0.00  0.00     0.037 A 
HETATM   15  C   UNK N   1      25.923  24.273  -6.792  0.00  0.00     0.004 A 
HETATM   16  C   UNK N   1      32.053  20.995  -4.235  0.00  0.00     0.004 A 
ENDROOT
BRANCH   9  17
HETATM   17  O   UNK N   1      26.335  25.246  -3.312  0.00  0.00    -0.360 OA
HETATM   18  H   UNK N   1      26.134  24.727  -2.559  0.00  0.00     0.217 HD
ENDBRANCH   9  17
BRANCH  10  19
HETATM   19  O   UNK N   1      30.623  22.953  -1.524  0.00  0.00    -0.360 OA
HETATM   20  H   UNK N   1      31.302  23.491  -1.165  0.00  0.00     0.217 HD
ENDBRANCH  10  19
TORSDOF 2
ENDMDL
MODEL 8
REMARK VINA RESULT:      -6.4      4.402      6.252
REMARK  2 active torsions:
REMARK  status: ('A' for Active; 'I' for Inactive)
REMARK    1  A    between atoms: O_3  and  C_11 
REMARK    2  A    between atoms: O_4  and  C_12 
ROOT
HETATM    1  O   UNK N   1      23.476  17.059   5.409  0.00  0.00    -0.286 OA
HETATM    2  O   UNK N   1      24.428  21.317   2.324  0.00  0.00    -0.287 OA
HETATM    3  C   UNK N   1      22.572  18.693   3.979  0.00  0.00     0.062 A 
HETATM    4  C   UNK N   1      25.081  18.559   4.568  0.00  0.00     0.062 A 
HETATM    5  C   UNK N   1      22.835  19.819   3.165  0.00  0.00     0.032 A 
HETATM    6  C   UNK N   1      25.323  19.686   3.749  0.00  0.00     0.032 A 
HETATM    7  C   UNK N   1      23.694  18.034   4.702  0.00  0.00     0.199 A 
HETATM    8  C   UNK N   1      24.210  20.341   3.031  0.00  0.00     0.194 A 
HETATM    9  C   UNK N   1      21.244  18.219   4.087  0.00  0.00     0.080 A 
HETATM   10  C   UNK N   1      26.167  17.955   5.242  0.00  0.00     0.080 A 
HETATM   11  C   UNK N   1      21.786  20.446   2.481  0.00  0.00     0.017 A 
HETATM   12  C   UNK N   1      26.623  20.187   3.616  0.00  0.00     0.017 A 
HETATM   13  C   UNK N   1      20.214  18.858   3.396  0.00  0.00     0.037 A 
HETATM   14  C   UNK N   1      27.456  18.471   5.095  0.00  0.00     0.037 A 
HETATM   15  C   UNK N   1      20.483  19.968   2.596  0.00  0.00     0.004 A 
HETATM   16  C   UNK N   1      27.684  19.582   4.286  0.00  0.00     0.004 A 
ENDROOT
BRANCH   9  17
HETATM   17  O   UNK N   1      20.947  17.151   4.849  0.00  0.00    -0.360 OA
HETATM   18  H   UNK N   1      21.579  16.470   4.968  0.00  0.00     0.217 HD
ENDBRANCH   9  17
BRANCH  10  19
HETATM   19  O   UNK N   1      25.984  16.881   6.031  0.00  0.00    -0.360 OA
HETATM   20  H   UNK N   1      25.309  16.888   6.681  0.00  0.00     0.217 HD
ENDBRANCH  10  19
TORSDOF 2
ENDMDL
MODEL 9
REMARK VINA RESULT:      -6.4     10.912     13.771
REMARK  2 active torsions:
REMARK  status: ('A' for Active; 'I' for Inactive)
REMARK    1  A    between atoms: O_3  and  C_11 
REMARK    2  A    between atoms: O_4  and  C_12 
ROOT
HETATM    1  O   UNK N   1      34.771  13.655  15.495  0.00  0.00    -0.286 OA
HETATM    2  O   UNK N   1      35.373   8.472  16.644  0.00  0.00    -0.287 OA
HETATM    3  C   UNK N   1      35.132  12.041  17.166  0.00  0.00     0.062 A 
HETATM    4  C   UNK N   1      34.852  11.454  14.669  0.00  0.00     0.062 A 
HETATM    5  C   UNK N   1      35.290  10.667  17.460  0.00  0.00     0.032 A 
HETATM    6  C   UNK N   1      35.013  10.086  14.983  0.00  0.00     0.032 A 
HETATM    7  C   UNK N   1      34.909  12.469  15.758  0.00  0.00     0.199 A 
HETATM    8  C   UNK N   1      35.235   9.661  16.381  0.00  0.00     0.194 A 
HETATM    9  C   UNK N   1      35.191  12.980  18.223  0.00  0.00     0.080 A 
HETATM   10  C   UNK N   1      34.641  11.829  13.322  0.00  0.00     0.080 A 
HETATM   11  C   UNK N   1      35.501  10.256  18.781  0.00  0.00     0.017 A 
HETATM   12  C   UNK N   1      34.961   9.124  13.967  0.00  0.00     0.017 A 
HETATM   13  C   UNK N   1      35.402  12.548  19.532  0.00  0.00     0.037 A 
HETATM   14  C   UNK N   1      34.594  10.854  12.323  0.00  0.00     0.037 A 
HETATM   15  C   UNK N   1      35.557  11.191  19.812  0.00  0.00     0.004 A 
HETATM   16  C   UNK N   1      34.753   9.508  12.643  0.00  0.00     0.004 A 
ENDROOT
BRANCH   9  17
HETATM   17  O   UNK N   1      35.046  14.297  17.991  0.00  0.00    -0.360 OA
HETATM   18  H   UNK N   1      34.190  14.674  17.950  0.00  0.00     0.217 HD
ENDBRANCH   9  17
BRANCH  10  19
HETATM   19  O   UNK N   1      34.484  13.119  12.977  0.00  0.00    -0.360 OA
HETATM   20  H   UNK N   1      34.319  13.764  13.637  0.00  0.00     0.217 HD
ENDBRANCH  10  19
TORSDOF 2
ENDMDL
