MODEL 1
REMARK VINA RESULT:      -8.8      0.000      0.000
REMARK  9 active torsions:
REMARK  status: ('A' for Active; 'I' for Inactive)
REMARK    1  A    between atoms: O_2  and  C_13 
REMARK    2  A    between atoms: O_2  and  C_14 
REMARK    3  A    between atoms: O_4  and  C_29 
REMARK    4  A    between atoms: O_5  and  C_34 
REMARK    5  A    between atoms: N_6  and  C_12 
REMARK    6  A    between atoms: C_12  and  C_13 
REMARK    7  A    between atoms: C_15  and  C_20 
REMARK    8  A    between atoms: C_17  and  C_25 
REMARK    9  A    between atoms: C_19  and  C_20 
ROOT
HETATM    1  S   UNK N   1      30.047  16.085   5.619  0.00  0.00    -0.088 SA
HETATM    2  C   UNK N   1      32.106  16.925   6.747  0.00  0.00     0.044 A 
HETATM    3  C   UNK N   1      30.962  17.346   7.519  0.00  0.00    -0.003 A 
HETATM    4  C   UNK N   1      31.725  16.150   5.612  0.00  0.00     0.031 A 
HETATM    5  C   UNK N   1      29.741  16.957   6.986  0.00  0.00     0.019 A 
HETATM    6  C   UNK N   1      30.978  18.039   8.738  0.00  0.00     0.016 A 
HETATM    7  C   UNK N   1      28.524  17.266   7.592  0.00  0.00     0.056 A 
HETATM    8  C   UNK N   1      29.774  18.370   9.369  0.00  0.00     0.037 A 
HETATM    9  C   UNK N   1      28.549  17.995   8.796  0.00  0.00     0.067 A 
ENDROOT
BRANCH   2  10
HETATM   10  C   UNK N   1      33.512  17.235   7.181  0.00  0.00     0.194 C 
HETATM   11  O   UNK N   1      34.224  17.949   6.500  0.00  0.00    -0.287 OA
BRANCH  10  12
HETATM   12  C   UNK N   1      34.090  16.521   8.341  0.00  0.00     0.015 A 
HETATM   13  C   UNK N   1      34.793  17.241   9.315  0.00  0.00     0.018 A 
HETATM   14  C   UNK N   1      35.134  16.649  10.523  0.00  0.00     0.037 A 
HETATM   15  C   UNK N   1      34.773  15.330  10.778  0.00  0.00     0.068 A 
HETATM   16  C   UNK N   1      34.154  14.568   9.766  0.00  0.00     0.037 A 
HETATM   17  C   UNK N   1      33.823  15.162   8.543  0.00  0.00     0.018 A 
BRANCH  15  18
HETATM   18  O   UNK N   1      34.992  14.839  12.015  0.00  0.00    -0.349 OA
BRANCH  18  19
HETATM   19  C   UNK N   1      35.584  13.625  12.267  0.00  0.00     0.206 C 
BRANCH  19  20
HETATM   20  C   UNK N   1      36.049  13.619  13.717  0.00  0.00     0.299 C 
BRANCH  20  21
HETATM   21  N   UNK N   1      35.597  12.450  14.473  0.00  0.00     0.090 N 
HETATM   22  C   UNK N   1      34.565  11.681  13.749  0.00  0.00     0.272 C 
HETATM   23  C   UNK N   1      33.744  10.764  14.668  0.00  0.00     0.030 C 
HETATM   24  C   UNK N   1      34.541  10.402  15.916  0.00  0.00     0.003 C 
HETATM   25  C   UNK N   1      34.944  11.658  16.697  0.00  0.00     0.030 C 
HETATM   26  C   UNK N   1      35.127  12.878  15.788  0.00  0.00     0.272 C 
ENDBRANCH  20  21
ENDBRANCH  19  20
ENDBRANCH  18  19
ENDBRANCH  15  18
ENDBRANCH  10  12
ENDBRANCH   2  10
BRANCH   4  27
HETATM   27  C   UNK N   1      32.567  15.506   4.570  0.00  0.00    -0.018 A 
HETATM   28  C   UNK N   1      32.874  14.141   4.617  0.00  0.00     0.015 A 
HETATM   29  C   UNK N   1      33.640  13.544   3.614  0.00  0.00     0.037 A 
HETATM   30  C   UNK N   1      34.111  14.312   2.549  0.00  0.00     0.065 A 
HETATM   31  C   UNK N   1      33.831  15.679   2.497  0.00  0.00     0.037 A 
HETATM   32  C   UNK N   1      33.065  16.275   3.505  0.00  0.00     0.015 A 
BRANCH  30  33
HETATM   33  O   UNK N   1      34.834  13.734   1.576  0.00  0.00    -0.361 OA
HETATM   34  H   UNK N   1      34.788  14.064   0.700  0.00  0.00     0.217 HD
ENDBRANCH  30  33
ENDBRANCH   4  27
BRANCH   9  35
HETATM   35  O   UNK N   1      27.403  18.326   9.409  0.00  0.00    -0.361 OA
HETATM   36  H   UNK N   1      26.966  19.126   9.191  0.00  0.00     0.217 HD
ENDBRANCH   9  35
TORSDOF 9
ENDMDL
MODEL 2
REMARK VINA RESULT:      -8.2     15.491     20.058
REMARK  9 active torsions:
REMARK  status: ('A' for Active; 'I' for Inactive)
REMARK    1  A    between atoms: O_2  and  C_13 
REMARK    2  A    between atoms: O_2  and  C_14 
REMARK    3  A    between atoms: O_4  and  C_29 
REMARK    4  A    between atoms: O_5  and  C_34 
REMARK    5  A    between atoms: N_6  and  C_12 
REMARK    6  A    between atoms: C_12  and  C_13 
REMARK    7  A    between atoms: C_15  and  C_20 
REMARK    8  A    between atoms: C_17  and  C_25 
REMARK    9  A    between atoms: C_19  and  C_20 
ROOT
HETATM    1  S   UNK N   1      29.240  23.739  -8.336  0.00  0.00    -0.088 SA
HETATM    2  C   UNK N   1      27.133  23.960  -7.020  0.00  0.00     0.044 A 
HETATM    3  C   UNK N   1      26.834  24.235  -8.405  0.00  0.00    -0.003 A 
HETATM    4  C   UNK N   1      28.506  23.626  -6.830  0.00  0.00     0.031 A 
HETATM    5  C   UNK N   1      27.933  24.165  -9.250  0.00  0.00     0.019 A 
HETATM    6  C   UNK N   1      25.573  24.505  -8.957  0.00  0.00     0.016 A 
HETATM    7  C   UNK N   1      27.842  24.394 -10.621  0.00  0.00     0.056 A 
HETATM    8  C   UNK N   1      25.448  24.746 -10.329  0.00  0.00     0.037 A 
HETATM    9  C   UNK N   1      26.578  24.701 -11.160  0.00  0.00     0.067 A 
ENDROOT
BRANCH   2  10
HETATM   10  C   UNK N   1      26.064  23.967  -5.963  0.00  0.00     0.194 C 
HETATM   11  O   UNK N   1      25.292  23.032  -5.860  0.00  0.00    -0.287 OA
BRANCH  10  12
HETATM   12  C   UNK N   1      25.834  25.194  -5.169  0.00  0.00     0.015 A 
HETATM   13  C   UNK N   1      26.419  25.317  -3.902  0.00  0.00     0.018 A 
HETATM   14  C   UNK N   1      26.423  26.537  -3.241  0.00  0.00     0.037 A 
HETATM   15  C   UNK N   1      25.849  27.654  -3.839  0.00  0.00     0.068 A 
HETATM   16  C   UNK N   1      25.172  27.518  -5.067  0.00  0.00     0.037 A 
HETATM   17  C   UNK N   1      25.155  26.284  -5.727  0.00  0.00     0.018 A 
BRANCH  15  18
HETATM   18  O   UNK N   1      26.003  28.850  -3.233  0.00  0.00    -0.349 OA
BRANCH  18  19
HETATM   19  C   UNK N   1      27.198  29.313  -2.737  0.00  0.00     0.206 C 
BRANCH  19  20
HETATM   20  C   UNK N   1      28.004  29.878  -3.898  0.00  0.00     0.299 C 
BRANCH  20  21
HETATM   21  N   UNK N   1      28.301  28.894  -4.940  0.00  0.00     0.090 N 
HETATM   22  C   UNK N   1      29.640  28.293  -4.777  0.00  0.00     0.272 C 
HETATM   23  C   UNK N   1      30.168  27.644  -6.064  0.00  0.00     0.030 C 
HETATM   24  C   UNK N   1      29.013  27.233  -6.971  0.00  0.00     0.003 C 
HETATM   25  C   UNK N   1      28.146  28.443  -7.342  0.00  0.00     0.030 C 
HETATM   26  C   UNK N   1      28.146  29.518  -6.251  0.00  0.00     0.272 C 
ENDBRANCH  20  21
ENDBRANCH  19  20
ENDBRANCH  18  19
ENDBRANCH  15  18
ENDBRANCH  10  12
ENDBRANCH   2  10
BRANCH   4  27
HETATM   27  C   UNK N   1      29.235  23.256  -5.588  0.00  0.00    -0.018 A 
HETATM   28  C   UNK N   1      29.614  21.935  -5.327  0.00  0.00     0.015 A 
HETATM   29  C   UNK N   1      30.326  21.608  -4.171  0.00  0.00     0.037 A 
HETATM   30  C   UNK N   1      30.665  22.607  -3.258  0.00  0.00     0.065 A 
HETATM   31  C   UNK N   1      30.277  23.928  -3.493  0.00  0.00     0.037 A 
HETATM   32  C   UNK N   1      29.562  24.251  -4.651  0.00  0.00     0.015 A 
BRANCH  30  33
HETATM   33  O   UNK N   1      31.364  22.296  -2.155  0.00  0.00    -0.361 OA
HETATM   34  H   UNK N   1      32.210  21.901  -2.231  0.00  0.00     0.217 HD
ENDBRANCH  30  33
ENDBRANCH   4  27
BRANCH   9  35
HETATM   35  O   UNK N   1      26.445  24.942 -12.473  0.00  0.00    -0.361 OA
HETATM   36  H   UNK N   1      26.436  24.232 -13.084  0.00  0.00     0.217 HD
ENDBRANCH   9  35
TORSDOF 9
ENDMDL
MODEL 3
REMARK VINA RESULT:      -8.1     15.271     18.760
REMARK  9 active torsions:
REMARK  status: ('A' for Active; 'I' for Inactive)
REMARK    1  A    between atoms: O_2  and  C_13 
REMARK    2  A    between atoms: O_2  and  C_14 
REMARK    3  A    between atoms: O_4  and  C_29 
REMARK    4  A    between atoms: O_5  and  C_34 
REMARK    5  A    between atoms: N_6  and  C_12 
REMARK    6  A    between atoms: C_12  and  C_13 
REMARK    7  A    between atoms: C_15  and  C_20 
REMARK    8  A    between atoms: C_17  and  C_25 
REMARK    9  A    between atoms: C_19  and  C_20 
ROOT
HETATM    1  S   UNK N   1      25.875  25.960  -7.999  0.00  0.00    -0.088 SA
HETATM    2  C   UNK N   1      26.414  24.802  -5.857  0.00  0.00     0.044 A 
HETATM    3  C   UNK N   1      26.132  23.800  -6.856  0.00  0.00    -0.003 A 
HETATM    4  C   UNK N   1      26.329  26.122  -6.390  0.00  0.00     0.031 A 
HETATM    5  C   UNK N   1      25.796  24.315  -8.100  0.00  0.00     0.019 A 
HETATM    6  C   UNK N   1      26.216  22.408  -6.700  0.00  0.00     0.016 A 
HETATM    7  C   UNK N   1      25.495  23.503  -9.192  0.00  0.00     0.056 A 
HETATM    8  C   UNK N   1      25.914  21.566  -7.774  0.00  0.00     0.037 A 
HETATM    9  C   UNK N   1      25.546  22.107  -9.015  0.00  0.00     0.067 A 
ENDROOT
BRANCH   2  10
HETATM   10  C   UNK N   1      26.819  24.433  -4.456  0.00  0.00     0.194 C 
HETATM   11  O   UNK N   1      26.010  24.483  -3.548  0.00  0.00    -0.287 OA
BRANCH  10  12
HETATM   12  C   UNK N   1      28.245  24.188  -4.151  0.00  0.00     0.015 A 
HETATM   13  C   UNK N   1      28.600  23.618  -2.921  0.00  0.00     0.018 A 
HETATM   14  C   UNK N   1      29.890  23.156  -2.702  0.00  0.00     0.037 A 
HETATM   15  C   UNK N   1      30.843  23.250  -3.711  0.00  0.00     0.068 A 
HETATM   16  C   UNK N   1      30.523  23.911  -4.914  0.00  0.00     0.037 A 
HETATM   17  C   UNK N   1      29.225  24.389  -5.129  0.00  0.00     0.018 A 
BRANCH  15  18
HETATM   18  O   UNK N   1      32.039  22.658  -3.513  0.00  0.00    -0.349 OA
BRANCH  18  19
HETATM   19  C   UNK N   1      32.614  21.772  -4.391  0.00  0.00     0.206 C 
BRANCH  19  20
HETATM   20  C   UNK N   1      31.760  20.511  -4.415  0.00  0.00     0.299 C 
BRANCH  20  21
HETATM   21  N   UNK N   1      31.418  20.061  -5.766  0.00  0.00     0.090 N 
HETATM   22  C   UNK N   1      32.429  20.464  -6.763  0.00  0.00     0.272 C 
HETATM   23  C   UNK N   1      31.896  20.440  -8.202  0.00  0.00     0.030 C 
HETATM   24  C   UNK N   1      30.730  19.466  -8.327  0.00  0.00     0.003 C 
HETATM   25  C   UNK N   1      29.587  19.848  -7.380  0.00  0.00     0.030 C 
HETATM   26  C   UNK N   1      30.089  20.555  -6.116  0.00  0.00     0.272 C 
ENDBRANCH  20  21
ENDBRANCH  19  20
ENDBRANCH  18  19
ENDBRANCH  15  18
ENDBRANCH  10  12
ENDBRANCH   2  10
BRANCH   4  27
HETATM   27  C   UNK N   1      26.557  27.434  -5.730  0.00  0.00    -0.018 A 
HETATM   28  C   UNK N   1      25.810  27.834  -4.616  0.00  0.00     0.015 A 
HETATM   29  C   UNK N   1      26.058  29.055  -3.987  0.00  0.00     0.037 A 
HETATM   30  C   UNK N   1      27.061  29.896  -4.471  0.00  0.00     0.065 A 
HETATM   31  C   UNK N   1      27.802  29.521  -5.594  0.00  0.00     0.037 A 
HETATM   32  C   UNK N   1      27.550  28.297  -6.222  0.00  0.00     0.015 A 
BRANCH  30  33
HETATM   33  O   UNK N   1      27.311  31.062  -3.856  0.00  0.00    -0.361 OA
HETATM   34  H   UNK N   1      27.024  31.199  -2.975  0.00  0.00     0.217 HD
ENDBRANCH  30  33
ENDBRANCH   4  27
BRANCH   9  35
HETATM   35  O   UNK N   1      25.251  21.287 -10.035  0.00  0.00    -0.361 OA
HETATM   36  H   UNK N   1      25.775  21.294 -10.812  0.00  0.00     0.217 HD
ENDBRANCH   9  35
TORSDOF 9
ENDMDL
MODEL 4
REMARK VINA RESULT:      -7.9      6.640     11.608
REMARK  9 active torsions:
REMARK  status: ('A' for Active; 'I' for Inactive)
REMARK    1  A    between atoms: O_2  and  C_13 
REMARK    2  A    between atoms: O_2  and  C_14 
REMARK    3  A    between atoms: O_4  and  C_29 
REMARK    4  A    between atoms: O_5  and  C_34 
REMARK    5  A    between atoms: N_6  and  C_12 
REMARK    6  A    between atoms: C_12  and  C_13 
REMARK    7  A    between atoms: C_15  and  C_20 
REMARK    8  A    between atoms: C_17  and  C_25 
REMARK    9  A    between atoms: C_19  and  C_20 
ROOT
HETATM    1  S   UNK N   1      28.289  18.745   6.878  0.00  0.00    -0.088 SA
HETATM    2  C   UNK N   1      28.701  17.201   4.963  0.00  0.00     0.044 A 
HETATM    3  C   UNK N   1      29.623  16.867   6.022  0.00  0.00    -0.003 A 
HETATM    4  C   UNK N   1      27.833  18.271   5.333  0.00  0.00     0.031 A 
HETATM    5  C   UNK N   1      29.512  17.671   7.149  0.00  0.00     0.019 A 
HETATM    6  C   UNK N   1      30.548  15.813   6.032  0.00  0.00     0.016 A 
HETATM    7  C   UNK N   1      30.314  17.499   8.276  0.00  0.00     0.056 A 
HETATM    8  C   UNK N   1      31.372  15.617   7.145  0.00  0.00     0.037 A 
HETATM    9  C   UNK N   1      31.265  16.461   8.261  0.00  0.00     0.067 A 
ENDROOT
BRANCH   2  10
HETATM   10  C   UNK N   1      28.659  16.425   3.676  0.00  0.00     0.194 C 
HETATM   11  O   UNK N   1      29.485  16.631   2.805  0.00  0.00    -0.287 OA
BRANCH  10  12
HETATM   12  C   UNK N   1      27.504  15.546   3.393  0.00  0.00     0.015 A 
HETATM   13  C   UNK N   1      27.206  14.494   4.270  0.00  0.00     0.018 A 
HETATM   14  C   UNK N   1      26.004  13.809   4.169  0.00  0.00     0.037 A 
HETATM   15  C   UNK N   1      25.078  14.167   3.194  0.00  0.00     0.068 A 
HETATM   16  C   UNK N   1      25.411  15.156   2.246  0.00  0.00     0.037 A 
HETATM   17  C   UNK N   1      26.630  15.837   2.340  0.00  0.00     0.018 A 
BRANCH  15  18
HETATM   18  O   UNK N   1      23.865  13.578   3.221  0.00  0.00    -0.349 OA
BRANCH  18  19
HETATM   19  C   UNK N   1      22.766  14.110   3.851  0.00  0.00     0.206 C 
BRANCH  19  20
HETATM   20  C   UNK N   1      21.771  14.540   2.781  0.00  0.00     0.299 C 
BRANCH  20  21
HETATM   21  N   UNK N   1      21.527  15.984   2.755  0.00  0.00     0.090 N 
HETATM   22  C   UNK N   1      21.602  16.588   4.100  0.00  0.00     0.272 C 
HETATM   23  C   UNK N   1      20.902  17.952   4.185  0.00  0.00     0.030 C 
HETATM   24  C   UNK N   1      20.849  18.615   2.814  0.00  0.00     0.003 C 
HETATM   25  C   UNK N   1      20.104  17.736   1.803  0.00  0.00     0.030 C 
HETATM   26  C   UNK N   1      20.237  16.242   2.119  0.00  0.00     0.272 C 
ENDBRANCH  20  21
ENDBRANCH  19  20
ENDBRANCH  18  19
ENDBRANCH  15  18
ENDBRANCH  10  12
ENDBRANCH   2  10
BRANCH   4  27
HETATM   27  C   UNK N   1      26.733  18.914   4.568  0.00  0.00    -0.018 A 
HETATM   28  C   UNK N   1      25.403  18.501   4.710  0.00  0.00     0.015 A 
HETATM   29  C   UNK N   1      24.376  19.137   4.008  0.00  0.00     0.037 A 
HETATM   30  C   UNK N   1      24.673  20.196   3.150  0.00  0.00     0.065 A 
HETATM   31  C   UNK N   1      25.997  20.608   2.982  0.00  0.00     0.037 A 
HETATM   32  C   UNK N   1      27.023  19.968   3.686  0.00  0.00     0.015 A 
BRANCH  30  33
HETATM   33  O   UNK N   1      23.684  20.818   2.489  0.00  0.00    -0.361 OA
HETATM   34  H   UNK N   1      23.358  20.459   1.687  0.00  0.00     0.217 HD
ENDBRANCH  30  33
ENDBRANCH   4  27
BRANCH   9  35
HETATM   35  O   UNK N   1      32.067  16.266   9.318  0.00  0.00    -0.361 OA
HETATM   36  H   UNK N   1      31.702  16.163  10.175  0.00  0.00     0.217 HD
ENDBRANCH   9  35
TORSDOF 9
ENDMDL
MODEL 5
REMARK VINA RESULT:      -7.9     15.144     19.342
REMARK  9 active torsions:
REMARK  status: ('A' for Active; 'I' for Inactive)
REMARK    1  A    between atoms: O_2  and  C_13 
REMARK    2  A    between atoms: O_2  and  C_14 
REMARK    3  A    between atoms: O_4  and  C_29 
REMARK    4  A    between atoms: O_5  and  C_34 
REMARK    5  A    between atoms: N_6  and  C_12 
REMARK    6  A    between atoms: C_12  and  C_13 
REMARK    7  A    between atoms: C_15  and  C_20 
REMARK    8  A    between atoms: C_17  and  C_25 
REMARK    9  A    between atoms: C_19  and  C_20 
ROOT
HETATM    1  S   UNK N   1      29.596  23.657  -6.672  0.00  0.00    -0.088 SA
HETATM    2  C   UNK N   1      27.534  24.302  -5.427  0.00  0.00     0.044 A 
HETATM    3  C   UNK N   1      28.483  23.762  -4.484  0.00  0.00    -0.003 A 
HETATM    4  C   UNK N   1      28.060  24.330  -6.753  0.00  0.00     0.031 A 
HETATM    5  C   UNK N   1      29.677  23.343  -5.055  0.00  0.00     0.019 A 
HETATM    6  C   UNK N   1      28.332  23.675  -3.092  0.00  0.00     0.016 A 
HETATM    7  C   UNK N   1      30.717  22.797  -4.304  0.00  0.00     0.056 A 
HETATM    8  C   UNK N   1      29.354  23.127  -2.311  0.00  0.00     0.037 A 
HETATM    9  C   UNK N   1      30.541  22.680  -2.913  0.00  0.00     0.067 A 
ENDROOT
BRANCH   2  10
HETATM   10  C   UNK N   1      26.195  24.828  -4.990  0.00  0.00     0.194 C 
HETATM   11  O   UNK N   1      25.195  24.145  -5.113  0.00  0.00    -0.287 OA
BRANCH  10  12
HETATM   12  C   UNK N   1      26.066  26.244  -4.583  0.00  0.00     0.015 A 
HETATM   13  C   UNK N   1      26.212  26.591  -3.232  0.00  0.00     0.018 A 
HETATM   14  C   UNK N   1      26.337  27.920  -2.854  0.00  0.00     0.037 A 
HETATM   15  C   UNK N   1      26.325  28.922  -3.818  0.00  0.00     0.068 A 
HETATM   16  C   UNK N   1      26.080  28.591  -5.166  0.00  0.00     0.037 A 
HETATM   17  C   UNK N   1      25.939  27.251  -5.546  0.00  0.00     0.018 A 
BRANCH  15  18
HETATM   18  O   UNK N   1      26.597  30.184  -3.427  0.00  0.00    -0.349 OA
BRANCH  18  19
HETATM   19  C   UNK N   1      27.579  30.516  -2.526  0.00  0.00     0.206 C 
BRANCH  19  20
HETATM   20  C   UNK N   1      28.922  30.430  -3.239  0.00  0.00     0.299 C 
BRANCH  20  21
HETATM   21  N   UNK N   1      29.460  29.070  -3.314  0.00  0.00     0.090 N 
HETATM   22  C   UNK N   1      30.663  28.897  -2.476  0.00  0.00     0.272 C 
HETATM   23  C   UNK N   1      31.509  27.683  -2.883  0.00  0.00     0.030 C 
HETATM   24  C   UNK N   1      30.648  26.641  -3.589  0.00  0.00     0.003 C 
HETATM   25  C   UNK N   1      29.986  27.229  -4.841  0.00  0.00     0.030 C 
HETATM   26  C   UNK N   1      29.722  28.733  -4.710  0.00  0.00     0.272 C 
ENDBRANCH  20  21
ENDBRANCH  19  20
ENDBRANCH  18  19
ENDBRANCH  15  18
ENDBRANCH  10  12
ENDBRANCH   2  10
BRANCH   4  27
HETATM   27  C   UNK N   1      27.442  24.817  -8.013  0.00  0.00    -0.018 A 
HETATM   28  C   UNK N   1      26.383  24.133  -8.622  0.00  0.00     0.015 A 
HETATM   29  C   UNK N   1      25.791  24.620  -9.789  0.00  0.00     0.037 A 
HETATM   30  C   UNK N   1      26.258  25.802 -10.364  0.00  0.00     0.065 A 
HETATM   31  C   UNK N   1      27.326  26.487  -9.781  0.00  0.00     0.037 A 
HETATM   32  C   UNK N   1      27.918  25.995  -8.612  0.00  0.00     0.015 A 
BRANCH  30  33
HETATM   33  O   UNK N   1      25.678  26.280 -11.477  0.00  0.00    -0.361 OA
HETATM   34  H   UNK N   1      25.587  27.204 -11.598  0.00  0.00     0.217 HD
ENDBRANCH  30  33
ENDBRANCH   4  27
BRANCH   9  35
HETATM   35  O   UNK N   1      31.510  22.149  -2.152  0.00  0.00    -0.361 OA
HETATM   36  H   UNK N   1      31.474  22.231  -1.219  0.00  0.00     0.217 HD
ENDBRANCH   9  35
TORSDOF 9
ENDMDL
MODEL 6
REMARK VINA RESULT:      -7.7     14.980     19.467
REMARK  9 active torsions:
REMARK  status: ('A' for Active; 'I' for Inactive)
REMARK    1  A    between atoms: O_2  and  C_13 
REMARK    2  A    between atoms: O_2  and  C_14 
REMARK    3  A    between atoms: O_4  and  C_29 
REMARK    4  A    between atoms: O_5  and  C_34 
REMARK    5  A    between atoms: N_6  and  C_12 
REMARK    6  A    between atoms: C_12  and  C_13 
REMARK    7  A    between atoms: C_15  and  C_20 
REMARK    8  A    between atoms: C_17  and  C_25 
REMARK    9  A    between atoms: C_19  and  C_20 
ROOT
HETATM    1  S   UNK N   1      29.391  22.835  -6.371  0.00  0.00    -0.088 SA
HETATM    2  C   UNK N   1      27.703  23.777  -4.797  0.00  0.00     0.044 A 
HETATM    3  C   UNK N   1      28.829  23.308  -4.026  0.00  0.00    -0.003 A 
HETATM    4  C   UNK N   1      27.902  23.590  -6.197  0.00  0.00     0.031 A 
HETATM    5  C   UNK N   1      29.841  22.738  -4.787  0.00  0.00     0.019 A 
HETATM    6  C   UNK N   1      29.007  23.420  -2.640  0.00  0.00     0.016 A 
HETATM    7  C   UNK N   1      31.010  22.232  -4.222  0.00  0.00     0.056 A 
HETATM    8  C   UNK N   1      30.166  22.917  -2.041  0.00  0.00     0.037 A 
HETATM    9  C   UNK N   1      31.163  22.316  -2.825  0.00  0.00     0.067 A 
ENDROOT
BRANCH   2  10
HETATM   10  C   UNK N   1      26.522  24.444  -4.147  0.00  0.00     0.194 C 
HETATM   11  O   UNK N   1      25.607  23.778  -3.699  0.00  0.00    -0.287 OA
BRANCH  10  12
HETATM   12  C   UNK N   1      26.386  25.915  -4.219  0.00  0.00     0.015 A 
HETATM   13  C   UNK N   1      27.076  26.719  -3.301  0.00  0.00     0.018 A 
HETATM   14  C   UNK N   1      27.163  28.091  -3.489  0.00  0.00     0.037 A 
HETATM   15  C   UNK N   1      26.568  28.680  -4.600  0.00  0.00     0.068 A 
HETATM   16  C   UNK N   1      25.789  27.895  -5.474  0.00  0.00     0.037 A 
HETATM   17  C   UNK N   1      25.690  26.513  -5.276  0.00  0.00     0.018 A 
BRANCH  15  18
HETATM   18  O   UNK N   1      26.799  29.990  -4.825  0.00  0.00    -0.349 OA
BRANCH  18  19
HETATM   19  C   UNK N   1      28.052  30.552  -4.881  0.00  0.00     0.206 C 
BRANCH  19  20
HETATM   20  C   UNK N   1      28.706  30.117  -6.186  0.00  0.00     0.299 C 
BRANCH  20  21
HETATM   21  N   UNK N   1      29.770  29.128  -6.007  0.00  0.00     0.090 N 
HETATM   22  C   UNK N   1      29.335  27.766  -6.371  0.00  0.00     0.272 C 
HETATM   23  C   UNK N   1      30.222  26.669  -5.763  0.00  0.00     0.030 C 
HETATM   24  C   UNK N   1      31.619  27.207  -5.474  0.00  0.00     0.003 C 
HETATM   25  C   UNK N   1      31.563  28.395  -4.507  0.00  0.00     0.030 C 
HETATM   26  C   UNK N   1      30.258  29.189  -4.631  0.00  0.00     0.272 C 
ENDBRANCH  20  21
ENDBRANCH  19  20
ENDBRANCH  18  19
ENDBRANCH  15  18
ENDBRANCH  10  12
ENDBRANCH   2  10
BRANCH   4  27
HETATM   27  C   UNK N   1      27.020  23.942  -7.341  0.00  0.00    -0.018 A 
HETATM   28  C   UNK N   1      25.894  23.174  -7.661  0.00  0.00     0.015 A 
HETATM   29  C   UNK N   1      25.057  23.535  -8.718  0.00  0.00     0.037 A 
HETATM   30  C   UNK N   1      25.342  24.673  -9.473  0.00  0.00     0.065 A 
HETATM   31  C   UNK N   1      26.472  25.440  -9.180  0.00  0.00     0.037 A 
HETATM   32  C   UNK N   1      27.310  25.074  -8.120  0.00  0.00     0.015 A 
BRANCH  30  33
HETATM   33  O   UNK N   1      24.529  25.030 -10.479  0.00  0.00    -0.361 OA
HETATM   34  H   UNK N   1      23.670  25.355 -10.295  0.00  0.00     0.217 HD
ENDBRANCH  30  33
ENDBRANCH   4  27
BRANCH   9  35
HETATM   35  O   UNK N   1      32.266  21.830  -2.236  0.00  0.00    -0.361 OA
HETATM   36  H   UNK N   1      33.019  21.615  -2.751  0.00  0.00     0.217 HD
ENDBRANCH   9  35
TORSDOF 9
ENDMDL
MODEL 7
REMARK VINA RESULT:      -7.7      1.986      3.156
REMARK  9 active torsions:
REMARK  status: ('A' for Active; 'I' for Inactive)
REMARK    1  A    between atoms: O_2  and  C_13 
REMARK    2  A    between atoms: O_2  and  C_14 
REMARK    3  A    between atoms: O_4  and  C_29 
REMARK    4  A    between atoms: O_5  and  C_34 
REMARK    5  A    between atoms: N_6  and  C_12 
REMARK    6  A    between atoms: C_12  and  C_13 
REMARK    7  A    between atoms: C_15  and  C_20 
REMARK    8  A    between atoms: C_17  and  C_25 
REMARK    9  A    between atoms: C_19  and  C_20 
ROOT
HETATM    1  S   UNK N   1      30.444  16.191   5.801  0.00  0.00    -0.088 SA
HETATM    2  C   UNK N   1      32.365  17.002   7.169  0.00  0.00     0.044 A 
HETATM    3  C   UNK N   1      31.147  17.514   7.749  0.00  0.00    -0.003 A 
HETATM    4  C   UNK N   1      32.107  16.183   6.030  0.00  0.00     0.031 A 
HETATM    5  C   UNK N   1      29.994  17.149   7.067  0.00  0.00     0.019 A 
HETATM    6  C   UNK N   1      31.027  18.272   8.923  0.00  0.00     0.016 A 
HETATM    7  C   UNK N   1      28.722  17.544   7.478  0.00  0.00     0.056 A 
HETATM    8  C   UNK N   1      29.765  18.689   9.359  0.00  0.00     0.037 A 
HETATM    9  C   UNK N   1      28.615  18.336   8.637  0.00  0.00     0.067 A 
ENDROOT
BRANCH   2  10
HETATM   10  C   UNK N   1      33.710  17.273   7.784  0.00  0.00     0.194 C 
HETATM   11  O   UNK N   1      34.563  17.875   7.158  0.00  0.00    -0.287 OA
BRANCH  10  12
HETATM   12  C   UNK N   1      34.059  16.648   9.078  0.00  0.00     0.015 A 
HETATM   13  C   UNK N   1      33.455  15.438   9.445  0.00  0.00     0.018 A 
HETATM   14  C   UNK N   1      33.933  14.709  10.525  0.00  0.00     0.037 A 
HETATM   15  C   UNK N   1      35.024  15.175  11.251  0.00  0.00     0.068 A 
HETATM   16  C   UNK N   1      35.574  16.438  10.951  0.00  0.00     0.037 A 
HETATM   17  C   UNK N   1      35.083  17.179   9.870  0.00  0.00     0.018 A 
BRANCH  15  18
HETATM   18  O   UNK N   1      35.549  14.369  12.197  0.00  0.00    -0.349 OA
BRANCH  18  19
HETATM   19  C   UNK N   1      35.715  13.014  12.048  0.00  0.00     0.206 C 
BRANCH  19  20
HETATM   20  C   UNK N   1      37.146  12.667  12.438  0.00  0.00     0.299 C 
BRANCH  20  21
HETATM   21  N   UNK N   1      37.985  12.279  11.303  0.00  0.00     0.090 N 
HETATM   22  C   UNK N   1      38.378  13.436  10.476  0.00  0.00     0.272 C 
HETATM   23  C   UNK N   1      38.831  13.039   9.063  0.00  0.00     0.030 C 
HETATM   24  C   UNK N   1      39.345  11.603   9.049  0.00  0.00     0.003 C 
HETATM   25  C   UNK N   1      38.261  10.624   9.518  0.00  0.00     0.030 C 
HETATM   26  C   UNK N   1      37.290  11.264  10.516  0.00  0.00     0.272 C 
ENDBRANCH  20  21
ENDBRANCH  19  20
ENDBRANCH  18  19
ENDBRANCH  15  18
ENDBRANCH  10  12
ENDBRANCH   2  10
BRANCH   4  27
HETATM   27  C   UNK N   1      33.053  15.446   5.151  0.00  0.00    -0.018 A 
HETATM   28  C   UNK N   1      33.025  15.593   3.760  0.00  0.00     0.015 A 
HETATM   29  C   UNK N   1      33.941  14.920   2.949  0.00  0.00     0.037 A 
HETATM   30  C   UNK N   1      34.898  14.085   3.527  0.00  0.00     0.065 A 
HETATM   31  C   UNK N   1      34.928  13.912   4.912  0.00  0.00     0.037 A 
HETATM   32  C   UNK N   1      34.008  14.588   5.721  0.00  0.00     0.015 A 
BRANCH  30  33
HETATM   33  O   UNK N   1      35.790  13.451   2.749  0.00  0.00    -0.361 OA
HETATM   34  H   UNK N   1      36.624  13.842   2.577  0.00  0.00     0.217 HD
ENDBRANCH  30  33
ENDBRANCH   4  27
BRANCH   9  35
HETATM   35  O   UNK N   1      27.412  18.750   9.063  0.00  0.00    -0.361 OA
HETATM   36  H   UNK N   1      27.150  18.603   9.950  0.00  0.00     0.217 HD
ENDBRANCH   9  35
TORSDOF 9
ENDMDL
MODEL 8
REMARK VINA RESULT:      -7.5      1.673      2.128
REMARK  9 active torsions:
REMARK  status: ('A' for Active; 'I' for Inactive)
REMARK    1  A    between atoms: O_2  and  C_13 
REMARK    2  A    between atoms: O_2  and  C_14 
REMARK    3  A    between atoms: O_4  and  C_29 
REMARK    4  A    between atoms: O_5  and  C_34 
REMARK    5  A    between atoms: N_6  and  C_12 
REMARK    6  A    between atoms: C_12  and  C_13 
REMARK    7  A    between atoms: C_15  and  C_20 
REMARK    8  A    between atoms: C_17  and  C_25 
REMARK    9  A    between atoms: C_19  and  C_20 
ROOT
HETATM    1  S   UNK N   1      30.387  16.298   5.648  0.00  0.00    -0.088 SA
HETATM    2  C   UNK N   1      32.331  17.023   7.030  0.00  0.00     0.044 A 
HETATM    3  C   UNK N   1      31.125  17.521   7.647  0.00  0.00    -0.003 A 
HETATM    4  C   UNK N   1      32.052  16.260   5.858  0.00  0.00     0.031 A 
HETATM    5  C   UNK N   1      29.961  17.201   6.961  0.00  0.00     0.019 A 
HETATM    6  C   UNK N   1      31.027  18.226   8.855  0.00  0.00     0.016 A 
HETATM    7  C   UNK N   1      28.698  17.591   7.404  0.00  0.00     0.056 A 
HETATM    8  C   UNK N   1      29.775  18.636   9.324  0.00  0.00     0.037 A 
HETATM    9  C   UNK N   1      28.613  18.330   8.599  0.00  0.00     0.067 A 
ENDROOT
BRANCH   2  10
HETATM   10  C   UNK N   1      33.686  17.252   7.641  0.00  0.00     0.194 C 
HETATM   11  O   UNK N   1      34.556  17.826   7.014  0.00  0.00    -0.287 OA
BRANCH  10  12
HETATM   12  C   UNK N   1      34.018  16.614   8.934  0.00  0.00     0.015 A 
HETATM   13  C   UNK N   1      33.500  15.347   9.233  0.00  0.00     0.018 A 
HETATM   14  C   UNK N   1      33.980  14.625  10.316  0.00  0.00     0.037 A 
HETATM   15  C   UNK N   1      34.989  15.154  11.113  0.00  0.00     0.068 A 
HETATM   16  C   UNK N   1      35.447  16.467  10.880  0.00  0.00     0.037 A 
HETATM   17  C   UNK N   1      34.952  17.201   9.796  0.00  0.00     0.018 A 
BRANCH  15  18
HETATM   18  O   UNK N   1      35.530  14.363  12.063  0.00  0.00    -0.349 OA
BRANCH  18  19
HETATM   19  C   UNK N   1      35.532  12.990  12.012  0.00  0.00     0.206 C 
BRANCH  19  20
HETATM   20  C   UNK N   1      36.974  12.516  12.128  0.00  0.00     0.299 C 
BRANCH  20  21
HETATM   21  N   UNK N   1      37.121  11.261  12.868  0.00  0.00     0.090 N 
HETATM   22  C   UNK N   1      37.913  11.429  14.102  0.00  0.00     0.272 C 
HETATM   23  C   UNK N   1      38.482  10.106  14.635  0.00  0.00     0.030 C 
HETATM   24  C   UNK N   1      37.632   8.929  14.167  0.00  0.00     0.003 C 
HETATM   25  C   UNK N   1      37.574   8.865  12.637  0.00  0.00     0.030 C 
HETATM   26  C   UNK N   1      37.699  10.248  11.989  0.00  0.00     0.272 C 
ENDBRANCH  20  21
ENDBRANCH  19  20
ENDBRANCH  18  19
ENDBRANCH  15  18
ENDBRANCH  10  12
ENDBRANCH   2  10
BRANCH   4  27
HETATM   27  C   UNK N   1      32.980  15.555   4.936  0.00  0.00    -0.018 A 
HETATM   28  C   UNK N   1      33.937  14.650   5.410  0.00  0.00     0.015 A 
HETATM   29  C   UNK N   1      34.780  13.971   4.529  0.00  0.00     0.037 A 
HETATM   30  C   UNK N   1      34.676  14.194   3.156  0.00  0.00     0.065 A 
HETATM   31  C   UNK N   1      33.741  15.108   2.667  0.00  0.00     0.037 A 
HETATM   32  C   UNK N   1      32.898  15.788   3.553  0.00  0.00     0.015 A 
BRANCH  30  33
HETATM   33  O   UNK N   1      35.476  13.528   2.308  0.00  0.00    -0.361 OA
HETATM   34  H   UNK N   1      35.791  12.675   2.532  0.00  0.00     0.217 HD
ENDBRANCH  30  33
ENDBRANCH   4  27
BRANCH   9  35
HETATM   35  O   UNK N   1      27.419  18.737   9.057  0.00  0.00    -0.361 OA
HETATM   36  H   UNK N   1      27.328  19.022   9.945  0.00  0.00     0.217 HD
ENDBRANCH   9  35
TORSDOF 9
ENDMDL
MODEL 9
REMARK VINA RESULT:      -7.5      3.778      9.395
REMARK  9 active torsions:
REMARK  status: ('A' for Active; 'I' for Inactive)
REMARK    1  A    between atoms: O_2  and  C_13 
REMARK    2  A    between atoms: O_2  and  C_14 
REMARK    3  A    between atoms: O_4  and  C_29 
REMARK    4  A    between atoms: O_5  and  C_34 
REMARK    5  A    between atoms: N_6  and  C_12 
REMARK    6  A    between atoms: C_12  and  C_13 
REMARK    7  A    between atoms: C_15  and  C_20 
REMARK    8  A    between atoms: C_17  and  C_25 
REMARK    9  A    between atoms: C_19  and  C_20 
ROOT
HETATM    1  S   UNK N   1      34.160  10.734  15.139  0.00  0.00    -0.088 SA
HETATM    2  C   UNK N   1      35.614  11.871  13.462  0.00  0.00     0.044 A 
HETATM    3  C   UNK N   1      35.693  12.604  14.703  0.00  0.00    -0.003 A 
HETATM    4  C   UNK N   1      34.769  10.728  13.574  0.00  0.00     0.031 A 
HETATM    5  C   UNK N   1      34.909  12.083  15.723  0.00  0.00     0.019 A 
HETATM    6  C   UNK N   1      36.500  13.719  14.972  0.00  0.00     0.016 A 
HETATM    7  C   UNK N   1      34.858  12.650  16.995  0.00  0.00     0.056 A 
HETATM    8  C   UNK N   1      36.468  14.316  16.237  0.00  0.00     0.037 A 
HETATM    9  C   UNK N   1      35.644  13.792  17.245  0.00  0.00     0.067 A 
ENDROOT
BRANCH   2  10
HETATM   10  C   UNK N   1      36.411  12.274  12.253  0.00  0.00     0.194 C 
HETATM   11  O   UNK N   1      37.475  11.735  12.008  0.00  0.00    -0.287 OA
BRANCH  10  12
HETATM   12  C   UNK N   1      35.992  13.453  11.464  0.00  0.00     0.015 A 
HETATM   13  C   UNK N   1      34.627  13.727  11.303  0.00  0.00     0.018 A 
HETATM   14  C   UNK N   1      34.207  14.943  10.783  0.00  0.00     0.037 A 
HETATM   15  C   UNK N   1      35.144  15.905  10.419  0.00  0.00     0.068 A 
HETATM   16  C   UNK N   1      36.518  15.600  10.483  0.00  0.00     0.037 A 
HETATM   17  C   UNK N   1      36.941  14.368  10.996  0.00  0.00     0.018 A 
BRANCH  15  18
HETATM   18  O   UNK N   1      34.695  17.124  10.057  0.00  0.00    -0.349 OA
BRANCH  18  19
HETATM   19  C   UNK N   1      34.525  17.526   8.754  0.00  0.00     0.206 C 
BRANCH  19  20
HETATM   20  C   UNK N   1      33.032  17.543   8.456  0.00  0.00     0.299 C 
BRANCH  20  21
HETATM   21  N   UNK N   1      32.691  17.003   7.138  0.00  0.00     0.090 N 
HETATM   22  C   UNK N   1      33.541  17.560   6.068  0.00  0.00     0.272 C 
HETATM   23  C   UNK N   1      32.928  17.401   4.670  0.00  0.00     0.030 C 
HETATM   24  C   UNK N   1      31.959  16.224   4.639  0.00  0.00     0.003 C 
HETATM   25  C   UNK N   1      30.830  16.413   5.659  0.00  0.00     0.030 C 
HETATM   26  C   UNK N   1      31.273  17.232   6.875  0.00  0.00     0.272 C 
ENDBRANCH  20  21
ENDBRANCH  19  20
ENDBRANCH  18  19
ENDBRANCH  15  18
ENDBRANCH  10  12
ENDBRANCH   2  10
BRANCH   4  27
HETATM   27  C   UNK N   1      34.422   9.696  12.562  0.00  0.00    -0.018 A 
HETATM   28  C   UNK N   1      35.002   8.422  12.587  0.00  0.00     0.015 A 
HETATM   29  C   UNK N   1      34.642   7.452  11.649  0.00  0.00     0.037 A 
HETATM   30  C   UNK N   1      33.695   7.751  10.669  0.00  0.00     0.065 A 
HETATM   31  C   UNK N   1      33.121   9.023  10.618  0.00  0.00     0.037 A 
HETATM   32  C   UNK N   1      33.485   9.992  11.559  0.00  0.00     0.015 A 
BRANCH  30  33
HETATM   33  O   UNK N   1      33.337   6.813   9.777  0.00  0.00    -0.361 OA
HETATM   34  H   UNK N   1      33.000   5.990  10.072  0.00  0.00     0.217 HD
ENDBRANCH  30  33
ENDBRANCH   4  27
BRANCH   9  35
HETATM   35  O   UNK N   1      35.616  14.379  18.451  0.00  0.00    -0.361 OA
HETATM   36  H   UNK N   1      36.147  15.133  18.619  0.00  0.00     0.217 HD
ENDBRANCH   9  35
TORSDOF 9
ENDMDL
