REMARK  9 active torsions:
REMARK  status: ('A' for Active; 'I' for Inactive)
REMARK    1  A    between atoms: O_2  and  C_13 
REMARK    2  A    between atoms: O_2  and  C_14 
REMARK    3  A    between atoms: O_4  and  C_29 
REMARK    4  A    between atoms: O_5  and  C_34 
REMARK    5  A    between atoms: N_6  and  C_12 
REMARK    6  A    between atoms: C_12  and  C_13 
REMARK    7  A    between atoms: C_15  and  C_20 
REMARK    8  A    between atoms: C_17  and  C_25 
REMARK    9  A    between atoms: C_19  and  C_20 
ROOT
HETATM    1  S   UNK N   1       4.950  -5.707  -0.301  0.00  0.00    -0.088 SA
HETATM    2  C   UNK N   1       4.921  -3.263   0.194  0.00  0.00     0.044 A 
HETATM    3  C   UNK N   1       3.557  -3.732   0.143  0.00  0.00    -0.003 A 
HETATM    4  C   UNK N   1       5.854  -4.320  -0.022  0.00  0.00     0.031 A 
HETATM    5  C   UNK N   1       3.430  -5.084  -0.146  0.00  0.00     0.019 A 
HETATM    6  C   UNK N   1       2.399  -2.984   0.401  0.00  0.00     0.016 A 
HETATM    7  C   UNK N   1       2.193  -5.720  -0.233  0.00  0.00     0.056 A 
HETATM    8  C   UNK N   1       1.142  -3.591   0.316  0.00  0.00     0.037 A 
HETATM    9  C   UNK N   1       1.035  -4.952  -0.009  0.00  0.00     0.067 A 
ENDROOT
BRANCH   2  10
HETATM   10  C   UNK N   1       5.255  -1.833   0.516  0.00  0.00     0.194 C 
HETATM   11  O   UNK N   1       6.198  -1.568   1.239  0.00  0.00    -0.287 OA
BRANCH  10  12
HETATM   12  C   UNK N   1       4.326  -0.758   0.105  0.00  0.00     0.015 A 
HETATM   13  C   UNK N   1       3.565  -0.911  -1.062  0.00  0.00     0.018 A 
HETATM   14  C   UNK N   1       2.520  -0.043  -1.343  0.00  0.00     0.037 A 
HETATM   15  C   UNK N   1       2.215   0.988  -0.460  0.00  0.00     0.068 A 
HETATM   16  C   UNK N   1       3.036   1.210   0.664  0.00  0.00     0.037 A 
HETATM   17  C   UNK N   1       4.099   0.342   0.940  0.00  0.00     0.018 A 
BRANCH  15  18
HETATM   18  O   UNK N   1       1.104   1.717  -0.693  0.00  0.00    -0.349 OA
BRANCH  18  19
HETATM   19  C   UNK N   1       0.624   2.682   0.159  0.00  0.00     0.206 C 
BRANCH  19  20
HETATM   20  C   UNK N   1       0.396   3.953  -0.648  0.00  0.00     0.299 C 
BRANCH  20  21
HETATM   21  N   UNK N   1       1.527   4.882  -0.610  0.00  0.00     0.090 N 
HETATM   22  C   UNK N   1       2.818   4.201  -0.830  0.00  0.00     0.272 C 
HETATM   23  C   UNK N   1       4.020   5.018  -0.335  0.00  0.00     0.030 C 
HETATM   24  C   UNK N   1       3.687   6.506  -0.317  0.00  0.00     0.003 C 
HETATM   25  C   UNK N   1       2.484   6.791   0.590  0.00  0.00     0.030 C 
HETATM   26  C   UNK N   1       1.510   5.610   0.656  0.00  0.00     0.272 C 
ENDBRANCH  20  21
ENDBRANCH  19  20
ENDBRANCH  18  19
ENDBRANCH  15  18
ENDBRANCH  10  12
ENDBRANCH   2  10
BRANCH   4  27
HETATM   27  C   UNK N   1       7.340  -4.292  -0.035  0.00  0.00    -0.018 A 
HETATM   28  C   UNK N   1       8.051  -3.090   0.061  0.00  0.00     0.015 A 
HETATM   29  C   UNK N   1       9.447  -3.082   0.080  0.00  0.00     0.037 A 
HETATM   30  C   UNK N   1      10.150  -4.284  -0.001  0.00  0.00     0.065 A 
HETATM   31  C   UNK N   1       9.457  -5.491  -0.117  0.00  0.00     0.037 A 
HETATM   32  C   UNK N   1       8.058  -5.495  -0.137  0.00  0.00     0.015 A 
BRANCH  30  33
HETATM   33  O   UNK N   1      11.492  -4.278   0.034  0.00  0.00    -0.361 OA
HETATM   34  H   UNK N   1      11.964  -5.087   0.058  0.00  0.00     0.217 HD
ENDBRANCH  30  33
ENDBRANCH   4  27
BRANCH   9  35
HETATM   35  O   UNK N   1      -0.178  -5.519  -0.095  0.00  0.00    -0.361 OA
HETATM   36  H   UNK N   1      -0.945  -4.984  -0.155  0.00  0.00     0.217 HD
ENDBRANCH   9  35
TORSDOF 9
