MODEL 1
REMARK VINA RESULT:      -7.5      0.000      0.000
REMARK  5 active torsions:
REMARK  status: ('A' for Active; 'I' for Inactive)
REMARK    1  A    between atoms: S_1  and  N_10 
REMARK    2  A    between atoms: S_1  and  C_18 
REMARK    3  A    between atoms: N_7  and  C_12 
REMARK    4  A    between atoms: C_11  and  C_13 
REMARK    5  A    between atoms: C_15  and  C_26 
ROOT
HETATM    1  N   UNK N   1      36.009  13.733  12.294  0.00  0.00    -0.255 N 
HETATM    2  N   UNK N   1      35.469  13.844  13.500  0.00  0.00    -0.289 N 
ATOM      3  HN  UNK N   1      34.752  14.517  13.772  1.00  0.00     0.187 HD
HETATM    4  C   UNK N   1      36.913  12.709  12.318  0.00  0.00     0.069 A 
HETATM    5  C   UNK N   1      36.956  12.180  13.598  0.00  0.00     0.068 A 
HETATM    6  C   UNK N   1      36.024  12.919  14.302  0.00  0.00     0.135 A 
ENDROOT
BRANCH   1   7
HETATM    7  C   UNK N   1      35.714  14.702  11.259  0.00  0.00     0.057 A 
HETATM    8  C   UNK N   1      35.841  16.076  11.490  0.00  0.00     0.033 A 
HETATM    9  C   UNK N   1      35.440  17.011  10.543  0.00  0.00     0.027 A 
HETATM   10  C   UNK N   1      34.882  16.588   9.342  0.00  0.00     0.079 A 
HETATM   11  C   UNK N   1      34.734  15.219   9.087  0.00  0.00     0.027 A 
HETATM   12  C   UNK N   1      35.143  14.281  10.044  0.00  0.00     0.033 A 
BRANCH  10  13
HETATM   13  S   UNK N   1      34.284  17.810   8.188  0.00  0.00     0.256 S 
HETATM   14  O   UNK N   1      34.629  17.441   6.738  0.00  0.00    -0.201 OA
HETATM   15  O   UNK N   1      34.952  19.184   8.341  0.00  0.00    -0.201 OA
BRANCH  13  16
HETATM   16  N   UNK N   1      32.549  18.133   8.170  0.00  0.00    -0.324 N 
HETATM   17  H   UNK N   1      32.112  19.013   7.892  0.00  0.00     0.169 HD
HETATM   18  H   UNK N   1      31.930  17.377   8.460  0.00  0.00     0.169 HD
ENDBRANCH  13  16
ENDBRANCH  10  13
ENDBRANCH   1   7
BRANCH   4  19
HETATM   19  C   UNK N   1      37.759  12.195  11.205  0.00  0.00    -0.007 A 
HETATM   20  C   UNK N   1      38.637  13.030  10.499  0.00  0.00     0.014 A 
HETATM   21  C   UNK N   1      39.437  12.528   9.473  0.00  0.00     0.007 A 
HETATM   22  C   UNK N   1      39.362  11.179   9.131  0.00  0.00    -0.062 A 
HETATM   23  C   UNK N   1      38.463  10.340   9.796  0.00  0.00     0.007 A 
HETATM   24  C   UNK N   1      40.239  10.636   8.061  0.00  0.00     0.048 C 
HETATM   25  C   UNK N   1      37.653  10.849  10.818  0.00  0.00     0.014 A 
ENDBRANCH   4  19
BRANCH   6  26
HETATM   26  C   UNK N   1      35.682  12.766  15.751  0.00  0.00     0.434 C 
HETATM   27  F   UNK N   1      36.217  13.821  16.467  0.00  0.00    -0.165 F 
HETATM   28  F   UNK N   1      34.310  12.748  15.929  0.00  0.00    -0.165 F 
HETATM   29  F   UNK N   1      36.213  11.580  16.223  0.00  0.00    -0.165 F 
ENDBRANCH   6  26
TORSDOF 5
ENDMDL
MODEL 2
REMARK VINA RESULT:      -7.4      0.460      1.564
REMARK  5 active torsions:
REMARK  status: ('A' for Active; 'I' for Inactive)
REMARK    1  A    between atoms: S_1  and  N_10 
REMARK    2  A    between atoms: S_1  and  C_18 
REMARK    3  A    between atoms: N_7  and  C_12 
REMARK    4  A    between atoms: C_11  and  C_13 
REMARK    5  A    between atoms: C_15  and  C_26 
ROOT
HETATM    1  N   UNK N   1      35.753  13.676  12.529  0.00  0.00    -0.255 N 
HETATM    2  N   UNK N   1      35.326  13.693  13.784  0.00  0.00    -0.289 N 
ATOM      3  HN  UNK N   1      34.598  14.302  14.157  1.00  0.00     0.187 HD
HETATM    4  C   UNK N   1      36.718  12.715  12.414  0.00  0.00     0.069 A 
HETATM    5  C   UNK N   1      36.918  12.131  13.656  0.00  0.00     0.068 A 
HETATM    6  C   UNK N   1      36.013  12.772  14.481  0.00  0.00     0.135 A 
ENDROOT
BRANCH   1   7
HETATM    7  C   UNK N   1      35.299  14.669  11.579  0.00  0.00     0.057 A 
HETATM    8  C   UNK N   1      34.409  14.340  10.551  0.00  0.00     0.033 A 
HETATM    9  C   UNK N   1      34.068  15.257   9.564  0.00  0.00     0.027 A 
HETATM   10  C   UNK N   1      34.629  16.529   9.575  0.00  0.00     0.079 A 
HETATM   11  C   UNK N   1      35.530  16.884  10.587  0.00  0.00     0.027 A 
HETATM   12  C   UNK N   1      35.867  15.956  11.581  0.00  0.00     0.033 A 
BRANCH  10  13
HETATM   13  S   UNK N   1      34.253  17.652   8.240  0.00  0.00     0.256 S 
HETATM   14  O   UNK N   1      34.745  17.114   6.888  0.00  0.00    -0.201 OA
HETATM   15  O   UNK N   1      34.986  18.997   8.340  0.00  0.00    -0.201 OA
BRANCH  13  16
HETATM   16  N   UNK N   1      32.558  18.061   7.973  0.00  0.00    -0.324 N 
HETATM   17  H   UNK N   1      31.932  17.598   7.313  0.00  0.00     0.169 HD
HETATM   18  H   UNK N   1      32.169  18.826   8.525  0.00  0.00     0.169 HD
ENDBRANCH  13  16
ENDBRANCH  10  13
ENDBRANCH   1   7
BRANCH   4  19
HETATM   19  C   UNK N   1      37.484  12.313  11.202  0.00  0.00    -0.007 A 
HETATM   20  C   UNK N   1      37.366  11.030  10.648  0.00  0.00     0.014 A 
HETATM   21  C   UNK N   1      38.076  10.676   9.500  0.00  0.00     0.007 A 
HETATM   22  C   UNK N   1      38.925  11.602   8.896  0.00  0.00    -0.062 A 
HETATM   23  C   UNK N   1      39.086  12.871   9.458  0.00  0.00     0.007 A 
HETATM   24  C   UNK N   1      39.655  11.236   7.654  0.00  0.00     0.048 C 
HETATM   25  C   UNK N   1      38.382  13.219  10.616  0.00  0.00     0.014 A 
ENDBRANCH   4  19
BRANCH   6  26
HETATM   26  C   UNK N   1      35.823  12.529  15.946  0.00  0.00     0.434 C 
HETATM   27  F   UNK N   1      36.614  11.468  16.345  0.00  0.00    -0.165 F 
HETATM   28  F   UNK N   1      36.170  13.652  16.676  0.00  0.00    -0.165 F 
HETATM   29  F   UNK N   1      34.497  12.225  16.190  0.00  0.00    -0.165 F 
ENDBRANCH   6  26
TORSDOF 5
ENDMDL
MODEL 3
REMARK VINA RESULT:      -7.3      8.578     12.072
REMARK  5 active torsions:
REMARK  status: ('A' for Active; 'I' for Inactive)
REMARK    1  A    between atoms: S_1  and  N_10 
REMARK    2  A    between atoms: S_1  and  C_18 
REMARK    3  A    between atoms: N_7  and  C_12 
REMARK    4  A    between atoms: C_11  and  C_13 
REMARK    5  A    between atoms: C_15  and  C_26 
ROOT
HETATM    1  N   UNK N   1      29.210  16.525   4.604  0.00  0.00    -0.255 N 
HETATM    2  N   UNK N   1      29.183  15.445   3.836  0.00  0.00    -0.289 N 
ATOM      3  HN  UNK N   1      29.886  14.705   3.823  1.00  0.00     0.187 HD
HETATM    4  C   UNK N   1      28.091  17.265   4.348  0.00  0.00     0.069 A 
HETATM    5  C   UNK N   1      27.352  16.633   3.360  0.00  0.00     0.068 A 
HETATM    6  C   UNK N   1      28.074  15.488   3.078  0.00  0.00     0.135 A 
ENDROOT
BRANCH   1   7
HETATM    7  C   UNK N   1      30.369  16.825   5.419  0.00  0.00     0.057 A 
HETATM    8  C   UNK N   1      31.560  17.288   4.850  0.00  0.00     0.033 A 
HETATM    9  C   UNK N   1      32.710  17.457   5.610  0.00  0.00     0.027 A 
HETATM   10  C   UNK N   1      32.699  17.146   6.965  0.00  0.00     0.079 A 
HETATM   11  C   UNK N   1      31.524  16.672   7.561  0.00  0.00     0.027 A 
HETATM   12  C   UNK N   1      30.366  16.507   6.789  0.00  0.00     0.033 A 
BRANCH  10  13
HETATM   13  S   UNK N   1      34.216  17.277   7.896  0.00  0.00     0.256 S 
HETATM   14  O   UNK N   1      34.907  18.630   7.672  0.00  0.00    -0.201 OA
HETATM   15  O   UNK N   1      35.299  16.283   7.454  0.00  0.00    -0.201 OA
BRANCH  13  16
HETATM   16  N   UNK N   1      34.113  17.108   9.649  0.00  0.00    -0.324 N 
HETATM   17  H   UNK N   1      34.848  16.739  10.253  0.00  0.00     0.169 HD
HETATM   18  H   UNK N   1      33.247  17.405  10.097  0.00  0.00     0.169 HD
ENDBRANCH  13  16
ENDBRANCH  10  13
ENDBRANCH   1   7
BRANCH   4  19
HETATM   19  C   UNK N   1      27.669  18.551   4.970  0.00  0.00    -0.007 A 
HETATM   20  C   UNK N   1      27.203  19.626   4.198  0.00  0.00     0.014 A 
HETATM   21  C   UNK N   1      26.793  20.816   4.799  0.00  0.00     0.007 A 
HETATM   22  C   UNK N   1      26.854  20.951   6.185  0.00  0.00    -0.062 A 
HETATM   23  C   UNK N   1      27.355  19.906   6.966  0.00  0.00     0.007 A 
HETATM   24  C   UNK N   1      26.386  22.207   6.827  0.00  0.00     0.048 C 
HETATM   25  C   UNK N   1      27.776  18.718   6.360  0.00  0.00     0.014 A 
ENDBRANCH   4  19
BRANCH   6  26
HETATM   26  C   UNK N   1      27.724  14.447   2.061  0.00  0.00     0.434 C 
HETATM   27  F   UNK N   1      27.649  13.210   2.672  0.00  0.00    -0.165 F 
HETATM   28  F   UNK N   1      26.506  14.734   1.469  0.00  0.00    -0.165 F 
HETATM   29  F   UNK N   1      28.702  14.414   1.085  0.00  0.00    -0.165 F 
ENDBRANCH   6  26
TORSDOF 5
ENDMDL
MODEL 4
REMARK VINA RESULT:      -7.1      8.969     11.863
REMARK  5 active torsions:
REMARK  status: ('A' for Active; 'I' for Inactive)
REMARK    1  A    between atoms: S_1  and  N_10 
REMARK    2  A    between atoms: S_1  and  C_18 
REMARK    3  A    between atoms: N_7  and  C_12 
REMARK    4  A    between atoms: C_11  and  C_13 
REMARK    5  A    between atoms: C_15  and  C_26 
ROOT
HETATM    1  N   UNK N   1      28.744  17.819   4.400  0.00  0.00    -0.255 N 
HETATM    2  N   UNK N   1      28.274  19.058   4.452  0.00  0.00    -0.289 N 
ATOM      3  HN  UNK N   1      28.775  19.870   4.813  1.00  0.00     0.187 HD
HETATM    4  C   UNK N   1      27.789  17.019   3.838  0.00  0.00     0.069 A 
HETATM    5  C   UNK N   1      26.670  17.787   3.556  0.00  0.00     0.068 A 
HETATM    6  C   UNK N   1      27.028  19.063   3.951  0.00  0.00     0.135 A 
ENDROOT
BRANCH   1   7
HETATM    7  C   UNK N   1      30.011  17.481   5.013  0.00  0.00     0.057 A 
HETATM    8  C   UNK N   1      30.108  17.208   6.382  0.00  0.00     0.033 A 
HETATM    9  C   UNK N   1      31.337  17.007   6.997  0.00  0.00     0.027 A 
HETATM   10  C   UNK N   1      32.508  17.093   6.252  0.00  0.00     0.079 A 
HETATM   11  C   UNK N   1      32.443  17.374   4.881  0.00  0.00     0.027 A 
HETATM   12  C   UNK N   1      31.200  17.572   4.267  0.00  0.00     0.033 A 
BRANCH  10  13
HETATM   13  S   UNK N   1      34.078  16.930   7.085  0.00  0.00     0.256 S 
HETATM   14  O   UNK N   1      34.712  18.299   7.377  0.00  0.00    -0.201 OA
HETATM   15  O   UNK N   1      35.159  16.245   6.238  0.00  0.00    -0.201 OA
BRANCH  13  16
HETATM   16  N   UNK N   1      34.094  16.087   8.635  0.00  0.00    -0.324 N 
HETATM   17  H   UNK N   1      33.576  16.367   9.468  0.00  0.00     0.169 HD
HETATM   18  H   UNK N   1      34.670  15.248   8.704  0.00  0.00     0.169 HD
ENDBRANCH  13  16
ENDBRANCH  10  13
ENDBRANCH   1   7
BRANCH   4  19
HETATM   19  C   UNK N   1      27.855  15.558   3.555  0.00  0.00    -0.007 A 
HETATM   20  C   UNK N   1      27.454  14.605   4.503  0.00  0.00     0.014 A 
HETATM   21  C   UNK N   1      27.503  13.241   4.214  0.00  0.00     0.007 A 
HETATM   22  C   UNK N   1      27.966  12.811   2.972  0.00  0.00    -0.062 A 
HETATM   23  C   UNK N   1      28.409  13.744   2.031  0.00  0.00     0.007 A 
HETATM   24  C   UNK N   1      27.987  11.359   2.652  0.00  0.00     0.048 C 
HETATM   25  C   UNK N   1      28.369  15.111   2.327  0.00  0.00     0.014 A 
ENDBRANCH   4  19
BRANCH   6  26
HETATM   26  C   UNK N   1      26.168  20.286   3.879  0.00  0.00     0.434 C 
HETATM   27  F   UNK N   1      24.838  19.915   3.827  0.00  0.00    -0.165 F 
HETATM   28  F   UNK N   1      26.371  21.091   4.985  0.00  0.00    -0.165 F 
HETATM   29  F   UNK N   1      26.484  21.001   2.738  0.00  0.00    -0.165 F 
ENDBRANCH   6  26
TORSDOF 5
ENDMDL
MODEL 5
REMARK VINA RESULT:      -7.1      5.434      8.026
REMARK  5 active torsions:
REMARK  status: ('A' for Active; 'I' for Inactive)
REMARK    1  A    between atoms: S_1  and  N_10 
REMARK    2  A    between atoms: S_1  and  C_18 
REMARK    3  A    between atoms: N_7  and  C_12 
REMARK    4  A    between atoms: C_11  and  C_13 
REMARK    5  A    between atoms: C_15  and  C_26 
ROOT
HETATM    1  N   UNK N   1      32.091  16.514   8.462  0.00  0.00    -0.255 N 
HETATM    2  N   UNK N   1      31.274  17.150   9.290  0.00  0.00    -0.289 N 
ATOM      3  HN  UNK N   1      31.418  17.272  10.293  1.00  0.00     0.187 HD
HETATM    4  C   UNK N   1      31.565  16.580   7.202  0.00  0.00     0.069 A 
HETATM    5  C   UNK N   1      30.359  17.260   7.255  0.00  0.00     0.068 A 
HETATM    6  C   UNK N   1      30.224  17.607   8.587  0.00  0.00     0.135 A 
ENDROOT
BRANCH   1   7
HETATM    7  C   UNK N   1      33.234  15.784   8.966  0.00  0.00     0.057 A 
HETATM    8  C   UNK N   1      33.183  14.401   9.170  0.00  0.00     0.033 A 
HETATM    9  C   UNK N   1      34.233  13.716   9.770  0.00  0.00     0.027 A 
HETATM   10  C   UNK N   1      35.359  14.409  10.199  0.00  0.00     0.079 A 
HETATM   11  C   UNK N   1      35.435  15.795  10.016  0.00  0.00     0.027 A 
HETATM   12  C   UNK N   1      34.375  16.479   9.407  0.00  0.00     0.033 A 
BRANCH  10  13
HETATM   13  S   UNK N   1      36.648  13.521  11.056  0.00  0.00     0.256 S 
HETATM   14  O   UNK N   1      38.015  13.708  10.381  0.00  0.00    -0.201 OA
HETATM   15  O   UNK N   1      36.475  11.996  11.022  0.00  0.00    -0.201 OA
BRANCH  13  16
HETATM   16  N   UNK N   1      36.924  13.922  12.752  0.00  0.00    -0.324 N 
HETATM   17  H   UNK N   1      37.155  13.255  13.489  0.00  0.00     0.169 HD
HETATM   18  H   UNK N   1      36.847  14.903  13.019  0.00  0.00     0.169 HD
ENDBRANCH  13  16
ENDBRANCH  10  13
ENDBRANCH   1   7
BRANCH   4  19
HETATM   19  C   UNK N   1      32.124  16.028   5.937  0.00  0.00    -0.007 A 
HETATM   20  C   UNK N   1      32.728  16.851   4.975  0.00  0.00     0.014 A 
HETATM   21  C   UNK N   1      33.263  16.315   3.804  0.00  0.00     0.007 A 
HETATM   22  C   UNK N   1      33.192  14.942   3.574  0.00  0.00    -0.062 A 
HETATM   23  C   UNK N   1      32.556  14.111   4.501  0.00  0.00     0.007 A 
HETATM   24  C   UNK N   1      33.793  14.366   2.342  0.00  0.00     0.048 C 
HETATM   25  C   UNK N   1      32.010  14.654   5.670  0.00  0.00     0.014 A 
ENDBRANCH   4  19
BRANCH   6  26
HETATM   26  C   UNK N   1      29.076  18.349   9.197  0.00  0.00     0.434 C 
HETATM   27  F   UNK N   1      28.119  17.449   9.627  0.00  0.00    -0.165 F 
HETATM   28  F   UNK N   1      29.502  19.106  10.274  0.00  0.00    -0.165 F 
HETATM   29  F   UNK N   1      28.519  19.188   8.250  0.00  0.00    -0.165 F 
ENDBRANCH   6  26
TORSDOF 5
ENDMDL
MODEL 6
REMARK VINA RESULT:      -7.1     18.635     21.004
REMARK  5 active torsions:
REMARK  status: ('A' for Active; 'I' for Inactive)
REMARK    1  A    between atoms: S_1  and  N_10 
REMARK    2  A    between atoms: S_1  and  C_18 
REMARK    3  A    between atoms: N_7  and  C_12 
REMARK    4  A    between atoms: C_11  and  C_13 
REMARK    5  A    between atoms: C_15  and  C_26 
ROOT
HETATM    1  N   UNK N   1      29.061  25.509  -4.281  0.00  0.00    -0.255 N 
HETATM    2  N   UNK N   1      28.732  26.783  -4.113  0.00  0.00    -0.289 N 
ATOM      3  HN  UNK N   1      27.829  27.200  -4.340  1.00  0.00     0.187 HD
HETATM    4  C   UNK N   1      30.343  25.333  -3.844  0.00  0.00     0.069 A 
HETATM    5  C   UNK N   1      30.841  26.554  -3.414  0.00  0.00     0.068 A 
HETATM    6  C   UNK N   1      29.788  27.431  -3.594  0.00  0.00     0.135 A 
ENDROOT
BRANCH   1   7
HETATM    7  C   UNK N   1      28.169  24.599  -4.967  0.00  0.00     0.057 A 
HETATM    8  C   UNK N   1      28.580  23.895  -6.104  0.00  0.00     0.033 A 
HETATM    9  C   UNK N   1      27.691  23.118  -6.837  0.00  0.00     0.027 A 
HETATM   10  C   UNK N   1      26.357  23.042  -6.455  0.00  0.00     0.079 A 
HETATM   11  C   UNK N   1      25.914  23.742  -5.327  0.00  0.00     0.027 A 
HETATM   12  C   UNK N   1      26.815  24.521  -4.589  0.00  0.00     0.033 A 
BRANCH  10  13
HETATM   13  S   UNK N   1      25.217  22.119  -7.472  0.00  0.00     0.256 S 
HETATM   14  O   UNK N   1      25.932  21.028  -8.283  0.00  0.00    -0.201 OA
HETATM   15  O   UNK N   1      24.552  22.958  -8.572  0.00  0.00    -0.201 OA
BRANCH  13  16
HETATM   16  N   UNK N   1      23.894  21.281  -6.659  0.00  0.00    -0.324 N 
HETATM   17  H   UNK N   1      23.768  20.269  -6.619  0.00  0.00     0.169 HD
HETATM   18  H   UNK N   1      23.196  21.856  -6.188  0.00  0.00     0.169 HD
ENDBRANCH  13  16
ENDBRANCH  10  13
ENDBRANCH   1   7
BRANCH   4  19
HETATM   19  C   UNK N   1      31.148  24.080  -3.815  0.00  0.00    -0.007 A 
HETATM   20  C   UNK N   1      32.183  23.846  -4.732  0.00  0.00     0.014 A 
HETATM   21  C   UNK N   1      32.939  22.675  -4.677  0.00  0.00     0.007 A 
HETATM   22  C   UNK N   1      32.662  21.715  -3.707  0.00  0.00    -0.062 A 
HETATM   23  C   UNK N   1      31.607  21.912  -2.811  0.00  0.00     0.007 A 
HETATM   24  C   UNK N   1      33.490  20.483  -3.628  0.00  0.00     0.048 C 
HETATM   25  C   UNK N   1      30.843  23.082  -2.875  0.00  0.00     0.014 A 
ENDBRANCH   4  19
BRANCH   6  26
HETATM   26  C   UNK N   1      29.797  28.899  -3.299  0.00  0.00     0.434 C 
HETATM   27  F   UNK N   1      30.087  29.601  -4.453  0.00  0.00    -0.165 F 
HETATM   28  F   UNK N   1      28.566  29.307  -2.817  0.00  0.00    -0.165 F 
HETATM   29  F   UNK N   1      30.764  29.167  -2.348  0.00  0.00    -0.165 F 
ENDBRANCH   6  26
TORSDOF 5
ENDMDL
MODEL 7
REMARK VINA RESULT:      -7.1     18.721     21.683
REMARK  5 active torsions:
REMARK  status: ('A' for Active; 'I' for Inactive)
REMARK    1  A    between atoms: S_1  and  N_10 
REMARK    2  A    between atoms: S_1  and  C_18 
REMARK    3  A    between atoms: N_7  and  C_12 
REMARK    4  A    between atoms: C_11  and  C_13 
REMARK    5  A    between atoms: C_15  and  C_26 
ROOT
HETATM    1  N   UNK N   1      28.476  25.635  -4.580  0.00  0.00    -0.255 N 
HETATM    2  N   UNK N   1      28.448  26.848  -4.045  0.00  0.00    -0.289 N 
ATOM      3  HN  UNK N   1      29.167  27.250  -3.443  1.00  0.00     0.187 HD
HETATM    4  C   UNK N   1      27.350  25.470  -5.336  0.00  0.00     0.069 A 
HETATM    5  C   UNK N   1      26.577  26.617  -5.244  0.00  0.00     0.068 A 
HETATM    6  C   UNK N   1      27.314  27.458  -4.430  0.00  0.00     0.135 A 
ENDROOT
BRANCH   1   7
HETATM    7  C   UNK N   1      29.510  24.689  -4.215  0.00  0.00     0.057 A 
HETATM    8  C   UNK N   1      30.756  24.691  -4.852  0.00  0.00     0.033 A 
HETATM    9  C   UNK N   1      31.704  23.708  -4.594  0.00  0.00     0.027 A 
HETATM   10  C   UNK N   1      31.416  22.683  -3.700  0.00  0.00     0.079 A 
HETATM   11  C   UNK N   1      30.174  22.651  -3.054  0.00  0.00     0.027 A 
HETATM   12  C   UNK N   1      29.224  23.646  -3.316  0.00  0.00     0.033 A 
BRANCH  10  13
HETATM   13  S   UNK N   1      32.611  21.380  -3.464  0.00  0.00     0.256 S 
HETATM   14  O   UNK N   1      33.005  21.228  -1.986  0.00  0.00    -0.201 OA
HETATM   15  O   UNK N   1      33.965  21.654  -4.133  0.00  0.00    -0.201 OA
BRANCH  13  16
HETATM   16  N   UNK N   1      32.157  19.754  -3.978  0.00  0.00    -0.324 N 
HETATM   17  H   UNK N   1      32.158  19.414  -4.940  0.00  0.00     0.169 HD
HETATM   18  H   UNK N   1      31.869  19.098  -3.252  0.00  0.00     0.169 HD
ENDBRANCH  13  16
ENDBRANCH  10  13
ENDBRANCH   1   7
BRANCH   4  19
HETATM   19  C   UNK N   1      26.940  24.286  -6.140  0.00  0.00    -0.007 A 
HETATM   20  C   UNK N   1      25.806  23.528  -5.813  0.00  0.00     0.014 A 
HETATM   21  C   UNK N   1      25.425  22.433  -6.589  0.00  0.00     0.007 A 
HETATM   22  C   UNK N   1      26.183  22.074  -7.702  0.00  0.00    -0.062 A 
HETATM   23  C   UNK N   1      27.340  22.792  -8.019  0.00  0.00     0.007 A 
HETATM   24  C   UNK N   1      25.759  20.929  -8.548  0.00  0.00     0.048 C 
HETATM   25  C   UNK N   1      27.726  23.883  -7.232  0.00  0.00     0.014 A 
ENDBRANCH   4  19
BRANCH   6  26
HETATM   26  C   UNK N   1      26.923  28.835  -3.992  0.00  0.00     0.434 C 
HETATM   27  F   UNK N   1      26.884  29.675  -5.089  0.00  0.00    -0.165 F 
HETATM   28  F   UNK N   1      25.678  28.819  -3.389  0.00  0.00    -0.165 F 
HETATM   29  F   UNK N   1      27.856  29.309  -3.089  0.00  0.00    -0.165 F 
ENDBRANCH   6  26
TORSDOF 5
ENDMDL
MODEL 8
REMARK VINA RESULT:      -7.1     11.547     13.981
REMARK  5 active torsions:
REMARK  status: ('A' for Active; 'I' for Inactive)
REMARK    1  A    between atoms: S_1  and  N_10 
REMARK    2  A    between atoms: S_1  and  C_18 
REMARK    3  A    between atoms: N_7  and  C_12 
REMARK    4  A    between atoms: C_11  and  C_13 
REMARK    5  A    between atoms: C_15  and  C_26 
ROOT
HETATM    1  N   UNK N   1      25.973  17.692   5.183  0.00  0.00    -0.255 N 
HETATM    2  N   UNK N   1      26.767  18.264   6.077  0.00  0.00    -0.289 N 
ATOM      3  HN  UNK N   1      26.581  19.141   6.564  1.00  0.00     0.187 HD
HETATM    4  C   UNK N   1      26.554  16.526   4.772  0.00  0.00     0.069 A 
HETATM    5  C   UNK N   1      27.772  16.382   5.417  0.00  0.00     0.068 A 
HETATM    6  C   UNK N   1      27.856  17.494   6.234  0.00  0.00     0.135 A 
ENDROOT
BRANCH   1   7
HETATM    7  C   UNK N   1      24.791  18.375   4.698  0.00  0.00     0.057 A 
HETATM    8  C   UNK N   1      23.508  17.882   4.958  0.00  0.00     0.033 A 
HETATM    9  C   UNK N   1      22.379  18.462   4.390  0.00  0.00     0.027 A 
HETATM   10  C   UNK N   1      22.514  19.545   3.529  0.00  0.00     0.079 A 
HETATM   11  C   UNK N   1      23.786  20.055   3.244  0.00  0.00     0.027 A 
HETATM   12  C   UNK N   1      24.920  19.468   3.822  0.00  0.00     0.033 A 
BRANCH  10  13
HETATM   13  S   UNK N   1      21.058  20.206   2.736  0.00  0.00     0.256 S 
HETATM   14  O   UNK N   1      21.409  21.325   1.745  0.00  0.00    -0.201 OA
HETATM   15  O   UNK N   1      20.098  20.916   3.701  0.00  0.00    -0.201 OA
BRANCH  13  16
HETATM   16  N   UNK N   1      20.052  19.087   1.815  0.00  0.00    -0.324 N 
HETATM   17  H   UNK N   1      19.114  19.282   1.466  0.00  0.00     0.169 HD
HETATM   18  H   UNK N   1      20.443  18.166   1.613  0.00  0.00     0.169 HD
ENDBRANCH  13  16
ENDBRANCH  10  13
ENDBRANCH   1   7
BRANCH   4  19
HETATM   19  C   UNK N   1      26.040  15.530   3.791  0.00  0.00    -0.007 A 
HETATM   20  C   UNK N   1      25.959  15.818   2.421  0.00  0.00     0.014 A 
HETATM   21  C   UNK N   1      25.493  14.866   1.513  0.00  0.00     0.007 A 
HETATM   22  C   UNK N   1      25.091  13.612   1.969  0.00  0.00    -0.062 A 
HETATM   23  C   UNK N   1      25.125  13.322   3.335  0.00  0.00     0.007 A 
HETATM   24  C   UNK N   1      24.626  12.587   0.998  0.00  0.00     0.048 C 
HETATM   25  C   UNK N   1      25.582  14.282   4.245  0.00  0.00     0.014 A 
ENDBRANCH   4  19
BRANCH   6  26
HETATM   26  C   UNK N   1      28.993  17.841   7.145  0.00  0.00     0.434 C 
HETATM   27  F   UNK N   1      30.185  17.758   6.450  0.00  0.00    -0.165 F 
HETATM   28  F   UNK N   1      28.846  19.124   7.641  0.00  0.00    -0.165 F 
HETATM   29  F   UNK N   1      29.020  16.950   8.201  0.00  0.00    -0.165 F 
ENDBRANCH   6  26
TORSDOF 5
ENDMDL
MODEL 9
REMARK VINA RESULT:      -7.0     20.393     23.891
REMARK  5 active torsions:
REMARK  status: ('A' for Active; 'I' for Inactive)
REMARK    1  A    between atoms: S_1  and  N_10 
REMARK    2  A    between atoms: S_1  and  C_18 
REMARK    3  A    between atoms: N_7  and  C_12 
REMARK    4  A    between atoms: C_11  and  C_13 
REMARK    5  A    between atoms: C_15  and  C_26 
ROOT
HETATM    1  N   UNK N   1      27.213  25.052  -7.207  0.00  0.00    -0.255 N 
HETATM    2  N   UNK N   1      26.939  24.384  -8.319  0.00  0.00    -0.289 N 
ATOM      3  HN  UNK N   1      27.274  23.449  -8.550  1.00  0.00     0.187 HD
HETATM    4  C   UNK N   1      26.570  26.257  -7.257  0.00  0.00     0.069 A 
HETATM    5  C   UNK N   1      25.893  26.353  -8.462  0.00  0.00     0.068 A 
HETATM    6  C   UNK N   1      26.147  25.147  -9.090  0.00  0.00     0.135 A 
ENDROOT
BRANCH   1   7
HETATM    7  C   UNK N   1      28.172  24.538  -6.252  0.00  0.00     0.057 A 
HETATM    8  C   UNK N   1      29.479  24.214  -6.634  0.00  0.00     0.033 A 
HETATM    9  C   UNK N   1      30.363  23.605  -5.753  0.00  0.00     0.027 A 
HETATM   10  C   UNK N   1      29.950  23.287  -4.464  0.00  0.00     0.079 A 
HETATM   11  C   UNK N   1      28.646  23.591  -4.055  0.00  0.00     0.027 A 
HETATM   12  C   UNK N   1      27.760  24.209  -4.948  0.00  0.00     0.033 A 
BRANCH  10  13
HETATM   13  S   UNK N   1      31.073  22.414  -3.386  0.00  0.00     0.256 S 
HETATM   14  O   UNK N   1      30.938  22.878  -1.928  0.00  0.00    -0.201 OA
HETATM   15  O   UNK N   1      32.554  22.693  -3.679  0.00  0.00    -0.201 OA
BRANCH  13  16
HETATM   16  N   UNK N   1      30.934  20.657  -3.315  0.00  0.00    -0.324 N 
HETATM   17  H   UNK N   1      31.104  20.081  -2.489  0.00  0.00     0.169 HD
HETATM   18  H   UNK N   1      30.659  20.175  -4.170  0.00  0.00     0.169 HD
ENDBRANCH  13  16
ENDBRANCH  10  13
ENDBRANCH   1   7
BRANCH   4  19
HETATM   19  C   UNK N   1      26.560  27.344  -6.239  0.00  0.00    -0.007 A 
HETATM   20  C   UNK N   1      25.650  27.347  -5.172  0.00  0.00     0.014 A 
HETATM   21  C   UNK N   1      25.667  28.363  -4.216  0.00  0.00     0.007 A 
HETATM   22  C   UNK N   1      26.594  29.399  -4.321  0.00  0.00    -0.062 A 
HETATM   23  C   UNK N   1      27.482  29.434  -5.401  0.00  0.00     0.007 A 
HETATM   24  C   UNK N   1      26.635  30.463  -3.284  0.00  0.00     0.048 C 
HETATM   25  C   UNK N   1      27.454  28.420  -6.364  0.00  0.00     0.014 A 
ENDBRANCH   4  19
BRANCH   6  26
HETATM   26  C   UNK N   1      25.659  24.733 -10.444  0.00  0.00     0.434 C 
HETATM   27  F   UNK N   1      26.496  25.248 -11.415  0.00  0.00    -0.165 F 
HETATM   28  F   UNK N   1      25.634  23.354 -10.552  0.00  0.00    -0.165 F 
HETATM   29  F   UNK N   1      24.381  25.223 -10.638  0.00  0.00    -0.165 F 
ENDBRANCH   6  26
TORSDOF 5
ENDMDL
