REMARK  5 active torsions:
REMARK  status: ('A' for Active; 'I' for Inactive)
REMARK    1  A    between atoms: S_1  and  N_10 
REMARK    2  A    between atoms: S_1  and  C_18 
REMARK    3  A    between atoms: N_7  and  C_12 
REMARK    4  A    between atoms: C_11  and  C_13 
REMARK    5  A    between atoms: C_15  and  C_26 
ROOT
HETATM    1  N   UNK N   1       3.004   1.509   0.293  0.00  0.00    -0.255 N 
HETATM    2  N   UNK N   1       1.939   2.298   0.323  0.00  0.00    -0.289 N 
ATOM      3  HN  UNK N   1       0.970   1.988   0.398  1.00  0.00     0.187 HD
HETATM    4  C   UNK N   1       4.120   2.293   0.206  0.00  0.00     0.069 A 
HETATM    5  C   UNK N   1       3.730   3.622   0.151  0.00  0.00     0.068 A 
HETATM    6  C   UNK N   1       2.351   3.574   0.238  0.00  0.00     0.135 A 
ENDROOT
BRANCH   1   7
HETATM    7  C   UNK N   1       2.858   0.071   0.215  0.00  0.00     0.057 A 
HETATM    8  C   UNK N   1       3.918  -0.748  -0.189  0.00  0.00     0.033 A 
HETATM    9  C   UNK N   1       3.747  -2.113  -0.386  0.00  0.00     0.027 A 
HETATM   10  C   UNK N   1       2.496  -2.690  -0.198  0.00  0.00     0.079 A 
HETATM   11  C   UNK N   1       1.414  -1.894   0.198  0.00  0.00     0.027 A 
HETATM   12  C   UNK N   1       1.594  -0.519   0.398  0.00  0.00     0.033 A 
BRANCH  10  13
HETATM   13  S   UNK N   1       2.281  -4.425  -0.555  0.00  0.00     0.256 S 
HETATM   14  O   UNK N   1       2.337  -4.707  -2.064  0.00  0.00    -0.201 OA
HETATM   15  O   UNK N   1       0.896  -4.967  -0.175  0.00  0.00    -0.201 OA
BRANCH  13  16
HETATM   16  N   UNK N   1       3.436  -5.553   0.157  0.00  0.00    -0.324 N 
HETATM   17  H   UNK N   1       3.205  -6.458   0.568  0.00  0.00     0.169 HD
HETATM   18  H   UNK N   1       4.418  -5.278   0.157  0.00  0.00     0.169 HD
ENDBRANCH  13  16
ENDBRANCH  10  13
ENDBRANCH   1   7
BRANCH   4  19
HETATM   19  C   UNK N   1       5.547   1.870   0.158  0.00  0.00    -0.007 A 
HETATM   20  C   UNK N   1       5.995   0.710   0.807  0.00  0.00     0.014 A 
HETATM   21  C   UNK N   1       7.332   0.318   0.735  0.00  0.00     0.007 A 
HETATM   22  C   UNK N   1       8.244   1.090   0.018  0.00  0.00    -0.062 A 
HETATM   23  C   UNK N   1       7.824   2.271  -0.600  0.00  0.00     0.007 A 
HETATM   24  C   UNK N   1       9.661   0.654  -0.087  0.00  0.00     0.048 C 
HETATM   25  C   UNK N   1       6.485   2.668  -0.517  0.00  0.00     0.014 A 
ENDBRANCH   4  19
BRANCH   6  26
HETATM   26  C   UNK N   1       1.420   4.746   0.209  0.00  0.00     0.434 C 
HETATM   27  F   UNK N   1       0.649   4.753   1.356  0.00  0.00    -0.165 F 
HETATM   28  F   UNK N   1       2.130   5.931   0.133  0.00  0.00    -0.165 F 
HETATM   29  F   UNK N   1       0.593   4.645  -0.894  0.00  0.00    -0.165 F 
ENDBRANCH   6  26
TORSDOF 5
