MODEL 1
REMARK VINA RESULT:      -6.7      0.000      0.000
REMARK  7 active torsions:
REMARK  status: ('A' for Active; 'I' for Inactive)
REMARK    1  A    between atoms: O_3  and  C_15 
REMARK    2  A    between atoms: C_16  and  C_17 
REMARK    3  A    between atoms: C_16  and  C_20 
REMARK    4  A    between atoms: C_20  and  C_23 
REMARK    5  A    between atoms: C_23  and  C_24 
REMARK    6  A    between atoms: C_24  and  C_25 
REMARK    7  A    between atoms: C_25  and  C_26 
ROOT
HETATM    1  O   UNK N   1      28.473  17.003   7.973  0.00  0.00    -0.340 OA
HETATM    2  O   UNK N   1      34.296  17.628   6.121  0.00  0.00    -0.298 OA
HETATM    3  C   UNK N   1      30.842  17.025   8.023  0.00  0.00     0.029 C 
HETATM    4  C   UNK N   1      30.903  17.514   6.543  0.00  0.00     0.038 C 
HETATM    5  C   UNK N   1      29.545  17.504   8.693  0.00  0.00     0.065 C 
HETATM    6  C   UNK N   1      32.120  17.441   8.776  0.00  0.00     0.015 C 
HETATM    7  C   UNK N   1      32.092  16.801   5.874  0.00  0.00     0.088 C 
HETATM    8  C   UNK N   1      29.576  17.256   5.837  0.00  0.00     0.013 A 
HETATM    9  C   UNK N   1      33.350  16.806   8.123  0.00  0.00     0.079 C 
HETATM   10  C   UNK N   1      28.424  16.987   6.614  0.00  0.00     0.079 A 
HETATM   11  C   UNK N   1      33.336  17.099   6.656  0.00  0.00     0.127 C 
HETATM   12  C   UNK N   1      29.466  19.026   8.750  0.00  0.00     0.046 C 
HETATM   13  C   UNK N   1      29.442  16.977  10.115  0.00  0.00     0.046 C 
HETATM   14  C   UNK N   1      29.449  17.317   4.429  0.00  0.00     0.075 A 
HETATM   15  C   UNK N   1      27.084  16.735   4.595  0.00  0.00    -0.045 A 
HETATM   16  C   UNK N   1      27.209  16.716   5.992  0.00  0.00     0.045 A 
HETATM   17  C   UNK N   1      28.213  17.055   3.823  0.00  0.00     0.045 A 
ENDROOT
BRANCH  15  18
HETATM   18  C   UNK N   1      25.756  16.388   3.930  0.00  0.00    -0.020 C 
HETATM   19  C   UNK N   1      25.132  15.138   4.541  0.00  0.00     0.020 C 
HETATM   20  C   UNK N   1      25.992  16.072   2.461  0.00  0.00     0.020 C 
BRANCH  18  21
HETATM   21  C   UNK N   1      24.708  17.498   4.097  0.00  0.00     0.013 C 
BRANCH  21  22
HETATM   22  C   UNK N   1      25.008  18.804   3.370  0.00  0.00     0.001 C 
BRANCH  22  23
HETATM   23  C   UNK N   1      25.414  19.869   4.378  0.00  0.00     0.000 C 
BRANCH  23  24
HETATM   24  C   UNK N   1      26.777  20.435   4.017  0.00  0.00    -0.000 C 
BRANCH  24  25
HETATM   25  C   UNK N   1      27.683  20.494   5.233  0.00  0.00    -0.005 C 
HETATM   26  C   UNK N   1      26.861  20.522   6.506  0.00  0.00     0.005 C 
ENDBRANCH  24  25
ENDBRANCH  23  24
ENDBRANCH  22  23
ENDBRANCH  21  22
ENDBRANCH  18  21
ENDBRANCH  15  18
BRANCH  14  27
HETATM   27  O   UNK N   1      30.507  17.611   3.654  0.00  0.00    -0.360 OA
HETATM   28  H   UNK N   1      31.074  16.949   3.309  0.00  0.00     0.217 HD
ENDBRANCH  14  27
TORSDOF 7
ENDMDL
MODEL 2
REMARK VINA RESULT:      -6.5      6.062     11.098
REMARK  7 active torsions:
REMARK  status: ('A' for Active; 'I' for Inactive)
REMARK    1  A    between atoms: O_3  and  C_15 
REMARK    2  A    between atoms: C_16  and  C_17 
REMARK    3  A    between atoms: C_16  and  C_20 
REMARK    4  A    between atoms: C_20  and  C_23 
REMARK    5  A    between atoms: C_23  and  C_24 
REMARK    6  A    between atoms: C_24  and  C_25 
REMARK    7  A    between atoms: C_25  and  C_26 
ROOT
HETATM    1  O   UNK N   1      34.318  13.111   8.254  0.00  0.00    -0.340 OA
HETATM    2  O   UNK N   1      35.078  19.205   8.336  0.00  0.00    -0.298 OA
HETATM    3  C   UNK N   1      33.981  15.410   7.788  0.00  0.00     0.029 C 
HETATM    4  C   UNK N   1      35.211  15.802   8.661  0.00  0.00     0.038 C 
HETATM    5  C   UNK N   1      34.166  14.000   7.203  0.00  0.00     0.065 C 
HETATM    6  C   UNK N   1      33.714  16.492   6.724  0.00  0.00     0.015 C 
HETATM    7  C   UNK N   1      34.851  17.103   9.401  0.00  0.00     0.088 C 
HETATM    8  C   UNK N   1      35.586  14.663   9.603  0.00  0.00     0.013 A 
HETATM    9  C   UNK N   1      33.402  17.831   7.397  0.00  0.00     0.079 C 
HETATM   10  C   UNK N   1      35.085  13.364   9.347  0.00  0.00     0.079 A 
HETATM   11  C   UNK N   1      34.476  18.145   8.390  0.00  0.00     0.127 C 
HETATM   12  C   UNK N   1      35.379  13.925   6.281  0.00  0.00     0.046 C 
HETATM   13  C   UNK N   1      32.944  13.580   6.404  0.00  0.00     0.046 C 
HETATM   14  C   UNK N   1      36.454  14.852  10.705  0.00  0.00     0.075 A 
HETATM   15  C   UNK N   1      36.213  12.504  11.328  0.00  0.00    -0.045 A 
HETATM   16  C   UNK N   1      35.385  12.316  10.211  0.00  0.00     0.045 A 
HETATM   17  C   UNK N   1      36.756  13.780  11.554  0.00  0.00     0.045 A 
ENDROOT
BRANCH  15  18
HETATM   18  C   UNK N   1      36.493  11.354  12.289  0.00  0.00    -0.020 C 
HETATM   19  C   UNK N   1      37.208  10.202  11.592  0.00  0.00     0.020 C 
HETATM   20  C   UNK N   1      35.175  10.790  12.801  0.00  0.00     0.020 C 
BRANCH  18  21
HETATM   21  C   UNK N   1      37.408  11.768  13.450  0.00  0.00     0.013 C 
BRANCH  21  22
HETATM   22  C   UNK N   1      36.780  11.710  14.838  0.00  0.00     0.001 C 
BRANCH  22  23
HETATM   23  C   UNK N   1      36.504  13.121  15.333  0.00  0.00     0.000 C 
BRANCH  23  24
HETATM   24  C   UNK N   1      35.182  13.162  16.082  0.00  0.00    -0.000 C 
BRANCH  24  25
HETATM   25  C   UNK N   1      35.269  12.395  17.387  0.00  0.00    -0.005 C 
HETATM   26  C   UNK N   1      35.150  13.339  18.567  0.00  0.00     0.005 C 
ENDBRANCH  24  25
ENDBRANCH  23  24
ENDBRANCH  22  23
ENDBRANCH  21  22
ENDBRANCH  18  21
ENDBRANCH  15  18
BRANCH  14  27
HETATM   27  O   UNK N   1      36.988  16.059  10.961  0.00  0.00    -0.360 OA
HETATM   28  H   UNK N   1      37.162  16.684  10.285  0.00  0.00     0.217 HD
ENDBRANCH  14  27
TORSDOF 7
ENDMDL
MODEL 3
REMARK VINA RESULT:      -6.2      1.976      6.565
REMARK  7 active torsions:
REMARK  status: ('A' for Active; 'I' for Inactive)
REMARK    1  A    between atoms: O_3  and  C_15 
REMARK    2  A    between atoms: C_16  and  C_17 
REMARK    3  A    between atoms: C_16  and  C_20 
REMARK    4  A    between atoms: C_20  and  C_23 
REMARK    5  A    between atoms: C_23  and  C_24 
REMARK    6  A    between atoms: C_24  and  C_25 
REMARK    7  A    between atoms: C_25  and  C_26 
ROOT
HETATM    1  O   UNK N   1      26.593  15.157   5.274  0.00  0.00    -0.340 OA
HETATM    2  O   UNK N   1      24.042  20.319   3.134  0.00  0.00    -0.298 OA
HETATM    3  C   UNK N   1      24.945  16.749   4.667  0.00  0.00     0.029 C 
HETATM    4  C   UNK N   1      26.034  17.714   4.108  0.00  0.00     0.038 C 
HETATM    5  C   UNK N   1      25.415  15.289   4.558  0.00  0.00     0.065 C 
HETATM    6  C   UNK N   1      23.591  17.017   3.983  0.00  0.00     0.015 C 
HETATM    7  C   UNK N   1      25.606  19.147   4.470  0.00  0.00     0.088 C 
HETATM    8  C   UNK N   1      27.410  17.345   4.654  0.00  0.00     0.013 A 
HETATM    9  C   UNK N   1      23.133  18.451   4.260  0.00  0.00     0.079 C 
HETATM   10  C   UNK N   1      27.600  16.070   5.238  0.00  0.00     0.079 A 
HETATM   11  C   UNK N   1      24.237  19.398   3.910  0.00  0.00     0.127 C 
HETATM   12  C   UNK N   1      25.640  14.875   3.107  0.00  0.00     0.046 C 
HETATM   13  C   UNK N   1      24.389  14.343   5.161  0.00  0.00     0.046 C 
HETATM   14  C   UNK N   1      28.516  18.222   4.560  0.00  0.00     0.075 A 
HETATM   15  C   UNK N   1      29.928  16.603   5.719  0.00  0.00    -0.045 A 
HETATM   16  C   UNK N   1      28.837  15.723   5.773  0.00  0.00     0.045 A 
HETATM   17  C   UNK N   1      29.757  17.848   5.092  0.00  0.00     0.045 A 
ENDROOT
BRANCH  15  18
HETATM   18  C   UNK N   1      31.262  16.223   6.353  0.00  0.00    -0.020 C 
HETATM   19  C   UNK N   1      32.398  17.100   5.838  0.00  0.00     0.020 C 
HETATM   20  C   UNK N   1      31.618  14.794   5.966  0.00  0.00     0.020 C 
BRANCH  18  21
HETATM   21  C   UNK N   1      31.259  16.400   7.878  0.00  0.00     0.013 C 
BRANCH  21  22
HETATM   22  C   UNK N   1      31.673  17.778   8.383  0.00  0.00     0.001 C 
BRANCH  22  23
HETATM   23  C   UNK N   1      30.472  18.479   8.999  0.00  0.00     0.000 C 
BRANCH  23  24
HETATM   24  C   UNK N   1      29.467  17.451   9.494  0.00  0.00    -0.000 C 
BRANCH  24  25
HETATM   25  C   UNK N   1      28.052  17.849   9.121  0.00  0.00    -0.005 C 
HETATM   26  C   UNK N   1      28.066  18.974   8.105  0.00  0.00     0.005 C 
ENDBRANCH  24  25
ENDBRANCH  23  24
ENDBRANCH  22  23
ENDBRANCH  21  22
ENDBRANCH  18  21
ENDBRANCH  15  18
BRANCH  14  27
HETATM   27  O   UNK N   1      28.393  19.427   3.976  0.00  0.00    -0.360 OA
HETATM   28  H   UNK N   1      27.603  19.929   4.026  0.00  0.00     0.217 HD
ENDBRANCH  14  27
TORSDOF 7
ENDMDL
MODEL 4
REMARK VINA RESULT:      -6.2      4.565      7.935
REMARK  7 active torsions:
REMARK  status: ('A' for Active; 'I' for Inactive)
REMARK    1  A    between atoms: O_3  and  C_15 
REMARK    2  A    between atoms: C_16  and  C_17 
REMARK    3  A    between atoms: C_16  and  C_20 
REMARK    4  A    between atoms: C_20  and  C_23 
REMARK    5  A    between atoms: C_23  and  C_24 
REMARK    6  A    between atoms: C_24  and  C_25 
REMARK    7  A    between atoms: C_25  and  C_26 
ROOT
HETATM    1  O   UNK N   1      26.210  16.634   4.989  0.00  0.00    -0.340 OA
HETATM    2  O   UNK N   1      23.231  21.639   3.040  0.00  0.00    -0.298 OA
HETATM    3  C   UNK N   1      25.726  18.617   3.787  0.00  0.00     0.029 C 
HETATM    4  C   UNK N   1      24.383  18.798   4.558  0.00  0.00     0.038 C 
HETATM    5  C   UNK N   1      26.747  17.866   4.655  0.00  0.00     0.065 C 
HETATM    6  C   UNK N   1      26.233  19.978   3.270  0.00  0.00     0.015 C 
HETATM    7  C   UNK N   1      23.346  19.331   3.554  0.00  0.00     0.088 C 
HETATM    8  C   UNK N   1      23.961  17.489   5.216  0.00  0.00     0.013 A 
HETATM    9  C   UNK N   1      25.216  20.590   2.304  0.00  0.00     0.079 C 
HETATM   10  C   UNK N   1      24.917  16.457   5.372  0.00  0.00     0.079 A 
HETATM   11  C   UNK N   1      23.866  20.601   2.950  0.00  0.00     0.127 C 
HETATM   12  C   UNK N   1      27.091  18.642   5.923  0.00  0.00     0.046 C 
HETATM   13  C   UNK N   1      28.038  17.625   3.889  0.00  0.00     0.046 C 
HETATM   14  C   UNK N   1      22.653  17.284   5.715  0.00  0.00     0.075 A 
HETATM   15  C   UNK N   1      23.242  15.016   6.398  0.00  0.00    -0.045 A 
HETATM   16  C   UNK N   1      24.549  15.241   5.938  0.00  0.00     0.045 A 
HETATM   17  C   UNK N   1      22.305  16.058   6.295  0.00  0.00     0.045 A 
ENDROOT
BRANCH  15  18
HETATM   18  C   UNK N   1      22.845  13.661   6.973  0.00  0.00    -0.020 C 
HETATM   19  C   UNK N   1      23.889  12.593   6.667  0.00  0.00     0.020 C 
HETATM   20  C   UNK N   1      21.553  13.193   6.319  0.00  0.00     0.020 C 
BRANCH  18  21
HETATM   21  C   UNK N   1      22.714  13.686   8.503  0.00  0.00     0.013 C 
BRANCH  21  22
HETATM   22  C   UNK N   1      22.053  12.464   9.129  0.00  0.00     0.001 C 
BRANCH  22  23
HETATM   23  C   UNK N   1      21.181  12.897  10.297  0.00  0.00     0.000 C 
BRANCH  23  24
HETATM   24  C   UNK N   1      21.492  12.052  11.521  0.00  0.00    -0.000 C 
BRANCH  24  25
HETATM   25  C   UNK N   1      22.986  11.991  11.778  0.00  0.00    -0.005 C 
HETATM   26  C   UNK N   1      23.266  11.923  13.266  0.00  0.00     0.005 C 
ENDBRANCH  24  25
ENDBRANCH  23  24
ENDBRANCH  22  23
ENDBRANCH  21  22
ENDBRANCH  18  21
ENDBRANCH  15  18
BRANCH  14  27
HETATM   27  O   UNK N   1      21.724  18.252   5.627  0.00  0.00    -0.360 OA
HETATM   28  H   UNK N   1      21.946  19.146   5.454  0.00  0.00     0.217 HD
ENDBRANCH  14  27
TORSDOF 7
ENDMDL
MODEL 5
REMARK VINA RESULT:      -6.1      6.966     11.443
REMARK  7 active torsions:
REMARK  status: ('A' for Active; 'I' for Inactive)
REMARK    1  A    between atoms: O_3  and  C_15 
REMARK    2  A    between atoms: C_16  and  C_17 
REMARK    3  A    between atoms: C_16  and  C_20 
REMARK    4  A    between atoms: C_20  and  C_23 
REMARK    5  A    between atoms: C_23  and  C_24 
REMARK    6  A    between atoms: C_24  and  C_25 
REMARK    7  A    between atoms: C_25  and  C_26 
ROOT
HETATM    1  O   UNK N   1      36.948  12.642   9.646  0.00  0.00    -0.340 OA
HETATM    2  O   UNK N   1      34.450  17.476   6.797  0.00  0.00    -0.298 OA
HETATM    3  C   UNK N   1      35.977  13.974   7.944  0.00  0.00     0.029 C 
HETATM    4  C   UNK N   1      35.919  15.209   8.895  0.00  0.00     0.038 C 
HETATM    5  C   UNK N   1      37.139  13.048   8.336  0.00  0.00     0.065 C 
HETATM    6  C   UNK N   1      36.019  14.434   6.474  0.00  0.00     0.015 C 
HETATM    7  C   UNK N   1      34.604  15.952   8.602  0.00  0.00     0.088 C 
HETATM    8  C   UNK N   1      36.047  14.771  10.350  0.00  0.00     0.013 A 
HETATM    9  C   UNK N   1      34.758  15.231   6.132  0.00  0.00     0.079 C 
HETATM   10  C   UNK N   1      36.543  13.477  10.640  0.00  0.00     0.079 A 
HETATM   11  C   UNK N   1      34.568  16.314   7.147  0.00  0.00     0.127 C 
HETATM   12  C   UNK N   1      38.489  13.747   8.201  0.00  0.00     0.046 C 
HETATM   13  C   UNK N   1      37.165  11.808   7.458  0.00  0.00     0.046 C 
HETATM   14  C   UNK N   1      35.726  15.633  11.426  0.00  0.00     0.075 A 
HETATM   15  C   UNK N   1      36.282  13.878  13.029  0.00  0.00    -0.045 A 
HETATM   16  C   UNK N   1      36.637  13.043  11.958  0.00  0.00     0.045 A 
HETATM   17  C   UNK N   1      35.842  15.181  12.747  0.00  0.00     0.045 A 
ENDROOT
BRANCH  15  18
HETATM   18  C   UNK N   1      36.348  13.367  14.464  0.00  0.00    -0.020 C 
HETATM   19  C   UNK N   1      36.973  14.398  15.398  0.00  0.00     0.020 C 
HETATM   20  C   UNK N   1      37.244  12.139  14.524  0.00  0.00     0.020 C 
BRANCH  18  21
HETATM   21  C   UNK N   1      34.958  13.069  15.046  0.00  0.00     0.013 C 
BRANCH  21  22
HETATM   22  C   UNK N   1      34.739  11.642  15.534  0.00  0.00     0.001 C 
BRANCH  22  23
HETATM   23  C   UNK N   1      33.898  10.879  14.522  0.00  0.00     0.000 C 
BRANCH  23  24
HETATM   24  C   UNK N   1      34.652   9.653  14.035  0.00  0.00    -0.000 C 
BRANCH  24  25
HETATM   25  C   UNK N   1      34.945   9.747  12.549  0.00  0.00    -0.005 C 
HETATM   26  C   UNK N   1      33.683  10.081  11.780  0.00  0.00     0.005 C 
ENDBRANCH  24  25
ENDBRANCH  23  24
ENDBRANCH  22  23
ENDBRANCH  21  22
ENDBRANCH  18  21
ENDBRANCH  15  18
BRANCH  14  27
HETATM   27  O   UNK N   1      35.292  16.885  11.199  0.00  0.00    -0.360 OA
HETATM   28  H   UNK N   1      35.257  17.533  11.876  0.00  0.00     0.217 HD
ENDBRANCH  14  27
TORSDOF 7
ENDMDL
MODEL 6
REMARK VINA RESULT:      -6.1     15.108     17.837
REMARK  7 active torsions:
REMARK  status: ('A' for Active; 'I' for Inactive)
REMARK    1  A    between atoms: O_3  and  C_15 
REMARK    2  A    between atoms: C_16  and  C_17 
REMARK    3  A    between atoms: C_16  and  C_20 
REMARK    4  A    between atoms: C_20  and  C_23 
REMARK    5  A    between atoms: C_23  and  C_24 
REMARK    6  A    between atoms: C_24  and  C_25 
REMARK    7  A    between atoms: C_25  and  C_26 
ROOT
HETATM    1  O   UNK N   1      28.352  28.331  -8.170  0.00  0.00    -0.340 OA
HETATM    2  O   UNK N   1      25.482  27.835  -2.762  0.00  0.00    -0.298 OA
HETATM    3  C   UNK N   1      27.541  28.885  -6.013  0.00  0.00     0.029 C 
HETATM    4  C   UNK N   1      26.904  27.471  -5.852  0.00  0.00     0.038 C 
HETATM    5  C   UNK N   1      28.764  28.819  -6.941  0.00  0.00     0.065 C 
HETATM    6  C   UNK N   1      27.842  29.495  -4.631  0.00  0.00     0.015 C 
HETATM    7  C   UNK N   1      25.562  27.654  -5.121  0.00  0.00     0.088 C 
HETATM    8  C   UNK N   1      26.758  26.791  -7.209  0.00  0.00     0.013 A 
HETATM    9  C   UNK N   1      26.549  29.653  -3.828  0.00  0.00     0.079 C 
HETATM   10  C   UNK N   1      27.490  27.290  -8.313  0.00  0.00     0.079 A 
HETATM   11  C   UNK N   1      25.814  28.350  -3.817  0.00  0.00     0.127 C 
HETATM   12  C   UNK N   1      29.861  27.926  -6.369  0.00  0.00     0.046 C 
HETATM   13  C   UNK N   1      29.355  30.203  -7.159  0.00  0.00     0.046 C 
HETATM   14  C   UNK N   1      25.944  25.648  -7.394  0.00  0.00     0.075 A 
HETATM   15  C   UNK N   1      26.512  25.598  -9.768  0.00  0.00    -0.045 A 
HETATM   16  C   UNK N   1      27.348  26.707  -9.568  0.00  0.00     0.045 A 
HETATM   17  C   UNK N   1      25.825  25.067  -8.663  0.00  0.00     0.045 A 
ENDROOT
BRANCH  15  18
HETATM   18  C   UNK N   1      26.332  25.003 -11.160  0.00  0.00    -0.020 C 
HETATM   19  C   UNK N   1      26.599  23.502 -11.167  0.00  0.00     0.020 C 
HETATM   20  C   UNK N   1      27.349  25.621 -12.109  0.00  0.00     0.020 C 
BRANCH  18  21
HETATM   21  C   UNK N   1      24.902  25.172 -11.692  0.00  0.00     0.013 C 
BRANCH  21  22
HETATM   22  C   UNK N   1      24.623  26.476 -12.431  0.00  0.00     0.001 C 
BRANCH  22  23
HETATM   23  C   UNK N   1      23.562  27.270 -11.685  0.00  0.00     0.000 C 
BRANCH  23  24
HETATM   24  C   UNK N   1      22.344  27.475 -12.571  0.00  0.00    -0.000 C 
BRANCH  24  25
HETATM   25  C   UNK N   1      21.274  28.275 -11.853  0.00  0.00    -0.005 C 
HETATM   26  C   UNK N   1      19.918  27.618 -12.021  0.00  0.00     0.005 C 
ENDBRANCH  24  25
ENDBRANCH  23  24
ENDBRANCH  22  23
ENDBRANCH  21  22
ENDBRANCH  18  21
ENDBRANCH  15  18
BRANCH  14  27
HETATM   27  O   UNK N   1      25.263  25.113  -6.365  0.00  0.00    -0.360 OA
HETATM   28  H   UNK N   1      24.458  25.478  -6.053  0.00  0.00     0.217 HD
ENDBRANCH  14  27
TORSDOF 7
ENDMDL
MODEL 7
REMARK VINA RESULT:      -6.0     12.417     16.490
REMARK  7 active torsions:
REMARK  status: ('A' for Active; 'I' for Inactive)
REMARK    1  A    between atoms: O_3  and  C_15 
REMARK    2  A    between atoms: C_16  and  C_17 
REMARK    3  A    between atoms: C_16  and  C_20 
REMARK    4  A    between atoms: C_20  and  C_23 
REMARK    5  A    between atoms: C_23  and  C_24 
REMARK    6  A    between atoms: C_24  and  C_25 
REMARK    7  A    between atoms: C_25  and  C_26 
ROOT
HETATM    1  O   UNK N   1      35.216   9.068  16.843  0.00  0.00    -0.340 OA
HETATM    2  O   UNK N   1      36.879  14.700  15.042  0.00  0.00    -0.298 OA
HETATM    3  C   UNK N   1      35.759  10.891  15.430  0.00  0.00     0.029 C 
HETATM    4  C   UNK N   1      36.077  11.795  16.660  0.00  0.00     0.038 C 
HETATM    5  C   UNK N   1      36.018   9.414  15.769  0.00  0.00     0.065 C 
HETATM    6  C   UNK N   1      36.528  11.387  14.191  0.00  0.00     0.015 C 
HETATM    7  C   UNK N   1      35.568  13.210  16.333  0.00  0.00     0.088 C 
HETATM    8  C   UNK N   1      35.456  11.215  17.927  0.00  0.00     0.013 A 
HETATM    9  C   UNK N   1      36.106  12.817  13.843  0.00  0.00     0.079 C 
HETATM   10  C   UNK N   1      35.034   9.864  17.931  0.00  0.00     0.079 A 
HETATM   11  C   UNK N   1      36.218  13.675  15.064  0.00  0.00     0.127 C 
HETATM   12  C   UNK N   1      37.483   9.161  16.110  0.00  0.00     0.046 C 
HETATM   13  C   UNK N   1      35.648   8.517  14.598  0.00  0.00     0.046 C 
HETATM   14  C   UNK N   1      35.325  11.971  19.115  0.00  0.00     0.075 A 
HETATM   15  C   UNK N   1      34.264  10.078  20.232  0.00  0.00    -0.045 A 
HETATM   16  C   UNK N   1      34.434   9.321  19.063  0.00  0.00     0.045 A 
HETATM   17  C   UNK N   1      34.732  11.402  20.250  0.00  0.00     0.045 A 
ENDROOT
BRANCH  15  18
HETATM   18  C   UNK N   1      33.562   9.480  21.447  0.00  0.00    -0.020 C 
HETATM   19  C   UNK N   1      32.723  10.522  22.179  0.00  0.00     0.020 C 
HETATM   20  C   UNK N   1      34.603   8.993  22.445  0.00  0.00     0.020 C 
BRANCH  18  21
HETATM   21  C   UNK N   1      32.588   8.355  21.068  0.00  0.00     0.013 C 
BRANCH  21  22
HETATM   22  C   UNK N   1      31.287   8.801  20.411  0.00  0.00     0.001 C 
BRANCH  22  23
HETATM   23  C   UNK N   1      30.479   7.582  19.997  0.00  0.00     0.000 C 
BRANCH  23  24
HETATM   24  C   UNK N   1      31.284   6.316  20.241  0.00  0.00    -0.000 C 
BRANCH  24  25
HETATM   25  C   UNK N   1      31.582   5.598  18.938  0.00  0.00    -0.005 C 
HETATM   26  C   UNK N   1      33.061   5.289  18.828  0.00  0.00     0.005 C 
ENDBRANCH  24  25
ENDBRANCH  23  24
ENDBRANCH  22  23
ENDBRANCH  21  22
ENDBRANCH  18  21
ENDBRANCH  15  18
BRANCH  14  27
HETATM   27  O   UNK N   1      35.751  13.245  19.171  0.00  0.00    -0.360 OA
HETATM   28  H   UNK N   1      35.524  13.819  19.877  0.00  0.00     0.217 HD
ENDBRANCH  14  27
TORSDOF 7
ENDMDL
MODEL 8
REMARK VINA RESULT:      -6.0      6.043     10.751
REMARK  7 active torsions:
REMARK  status: ('A' for Active; 'I' for Inactive)
REMARK    1  A    between atoms: O_3  and  C_15 
REMARK    2  A    between atoms: C_16  and  C_17 
REMARK    3  A    between atoms: C_16  and  C_20 
REMARK    4  A    between atoms: C_20  and  C_23 
REMARK    5  A    between atoms: C_23  and  C_24 
REMARK    6  A    between atoms: C_24  and  C_25 
REMARK    7  A    between atoms: C_25  and  C_26 
ROOT
HETATM    1  O   UNK N   1      34.092  13.201   8.393  0.00  0.00    -0.340 OA
HETATM    2  O   UNK N   1      35.230  19.237   8.358  0.00  0.00    -0.298 OA
HETATM    3  C   UNK N   1      33.899  15.507   7.883  0.00  0.00     0.029 C 
HETATM    4  C   UNK N   1      35.151  15.839   8.750  0.00  0.00     0.038 C 
HETATM    5  C   UNK N   1      33.995  14.078   7.326  0.00  0.00     0.065 C 
HETATM    6  C   UNK N   1      33.699  16.583   6.798  0.00  0.00     0.015 C 
HETATM    7  C   UNK N   1      34.873  17.174   9.464  0.00  0.00     0.088 C 
HETATM    8  C   UNK N   1      35.454  14.698   9.714  0.00  0.00     0.013 A 
HETATM    9  C   UNK N   1      33.471  17.951   7.445  0.00  0.00     0.079 C 
HETATM   10  C   UNK N   1      34.873  13.428   9.483  0.00  0.00     0.079 A 
HETATM   11  C   UNK N   1      34.563  18.218   8.432  0.00  0.00     0.127 C 
HETATM   12  C   UNK N   1      35.201  13.910   6.406  0.00  0.00     0.046 C 
HETATM   13  C   UNK N   1      32.749  13.719   6.533  0.00  0.00     0.046 C 
HETATM   14  C   UNK N   1      36.333  14.853  10.812  0.00  0.00     0.075 A 
HETATM   15  C   UNK N   1      35.946  12.538  11.481  0.00  0.00    -0.045 A 
HETATM   16  C   UNK N   1      35.108  12.379  10.367  0.00  0.00     0.045 A 
HETATM   17  C   UNK N   1      36.568  13.781  11.683  0.00  0.00     0.045 A 
ENDROOT
BRANCH  15  18
HETATM   18  C   UNK N   1      36.154  11.391  12.464  0.00  0.00    -0.020 C 
HETATM   19  C   UNK N   1      34.917  11.159  13.325  0.00  0.00     0.020 C 
HETATM   20  C   UNK N   1      37.281  11.744  13.424  0.00  0.00     0.020 C 
BRANCH  18  21
HETATM   21  C   UNK N   1      36.425  10.054  11.759  0.00  0.00     0.013 C 
BRANCH  21  22
HETATM   22  C   UNK N   1      37.878   9.790  11.379  0.00  0.00     0.001 C 
BRANCH  22  23
HETATM   23  C   UNK N   1      38.058   9.985   9.882  0.00  0.00     0.000 C 
BRANCH  23  24
HETATM   24  C   UNK N   1      38.885  11.231   9.614  0.00  0.00    -0.000 C 
BRANCH  24  25
HETATM   25  C   UNK N   1      38.247  12.090   8.538  0.00  0.00    -0.005 C 
HETATM   26  C   UNK N   1      38.788  13.505   8.598  0.00  0.00     0.005 C 
ENDBRANCH  24  25
ENDBRANCH  23  24
ENDBRANCH  22  23
ENDBRANCH  21  22
ENDBRANCH  18  21
ENDBRANCH  15  18
BRANCH  14  27
HETATM   27  O   UNK N   1      36.941  16.029  11.046  0.00  0.00    -0.360 OA
HETATM   28  H   UNK N   1      37.653  16.339  10.520  0.00  0.00     0.217 HD
ENDBRANCH  14  27
TORSDOF 7
ENDMDL
MODEL 9
REMARK VINA RESULT:      -6.0     11.014     13.410
REMARK  7 active torsions:
REMARK  status: ('A' for Active; 'I' for Inactive)
REMARK    1  A    between atoms: O_3  and  C_15 
REMARK    2  A    between atoms: C_16  and  C_17 
REMARK    3  A    between atoms: C_16  and  C_20 
REMARK    4  A    between atoms: C_20  and  C_23 
REMARK    5  A    between atoms: C_23  and  C_24 
REMARK    6  A    between atoms: C_24  and  C_25 
REMARK    7  A    between atoms: C_25  and  C_26 
ROOT
HETATM    1  O   UNK N   1      29.964  22.332  -7.420  0.00  0.00    -0.340 OA
HETATM    2  O   UNK N   1      32.630  21.336  -1.977  0.00  0.00    -0.298 OA
HETATM    3  C   UNK N   1      31.583  21.700  -5.809  0.00  0.00     0.029 C 
HETATM    4  C   UNK N   1      30.609  22.052  -4.643  0.00  0.00     0.038 C 
HETATM    5  C   UNK N   1      30.793  21.283  -7.059  0.00  0.00     0.065 C 
HETATM    6  C   UNK N   1      32.613  20.652  -5.346  0.00  0.00     0.015 C 
HETATM    7  C   UNK N   1      31.449  22.688  -3.521  0.00  0.00     0.088 C 
HETATM    8  C   UNK N   1      29.487  22.959  -5.136  0.00  0.00     0.013 A 
HETATM    9  C   UNK N   1      33.448  21.204  -4.189  0.00  0.00     0.079 C 
HETATM   10  C   UNK N   1      29.245  23.062  -6.527  0.00  0.00     0.079 A 
HETATM   11  C   UNK N   1      32.534  21.730  -3.128  0.00  0.00     0.127 C 
HETATM   12  C   UNK N   1      29.963  20.027  -6.811  0.00  0.00     0.046 C 
HETATM   13  C   UNK N   1      31.729  21.001  -8.223  0.00  0.00     0.046 C 
HETATM   14  C   UNK N   1      28.649  23.671  -4.245  0.00  0.00     0.075 A 
HETATM   15  C   UNK N   1      27.440  24.649  -6.128  0.00  0.00    -0.045 A 
HETATM   16  C   UNK N   1      28.249  23.908  -7.003  0.00  0.00     0.045 A 
HETATM   17  C   UNK N   1      27.641  24.507  -4.745  0.00  0.00     0.045 A 
ENDROOT
BRANCH  15  18
HETATM   18  C   UNK N   1      26.385  25.606  -6.670  0.00  0.00    -0.020 C 
HETATM   19  C   UNK N   1      25.683  25.032  -7.896  0.00  0.00     0.020 C 
HETATM   20  C   UNK N   1      27.056  26.893  -7.127  0.00  0.00     0.020 C 
BRANCH  18  21
HETATM   21  C   UNK N   1      25.272  25.893  -5.651  0.00  0.00     0.013 C 
BRANCH  21  22
HETATM   22  C   UNK N   1      25.044  27.364  -5.319  0.00  0.00     0.001 C 
BRANCH  22  23
HETATM   23  C   UNK N   1      25.673  27.686  -3.972  0.00  0.00     0.000 C 
BRANCH  23  24
HETATM   24  C   UNK N   1      26.139  29.133  -3.948  0.00  0.00    -0.000 C 
BRANCH  24  25
HETATM   25  C   UNK N   1      27.648  29.223  -4.070  0.00  0.00    -0.005 C 
HETATM   26  C   UNK N   1      28.288  27.892  -3.728  0.00  0.00     0.005 C 
ENDBRANCH  24  25
ENDBRANCH  23  24
ENDBRANCH  22  23
ENDBRANCH  21  22
ENDBRANCH  18  21
ENDBRANCH  15  18
BRANCH  14  27
HETATM   27  O   UNK N   1      28.814  23.571  -2.915  0.00  0.00    -0.360 OA
HETATM   28  H   UNK N   1      29.633  23.328  -2.529  0.00  0.00     0.217 HD
ENDBRANCH  14  27
TORSDOF 7
ENDMDL
