REMARK  5 active torsions:
REMARK  status: ('A' for Active; 'I' for Inactive)
REMARK    1  A    between atoms: N_3  and  C_19 
REMARK    2  A    between atoms: N_4  and  C_22 
REMARK       I    between atoms: N_5  and  C_27 
REMARK    3  A    between atoms: C_19  and  C_20 
REMARK    4  A    between atoms: C_20  and  C_21 
REMARK    5  A    between atoms: C_21  and  C_22 
ROOT
HETATM    1  C   UNK N   1       7.569   0.975   1.169  0.00  0.00     0.032 C 
ENDROOT
BRANCH   1   2
HETATM    2  C   UNK N   1       7.774   0.124  -0.073  0.00  0.00     0.022 C 
BRANCH   2   3
HETATM    3  C   UNK N   1       8.563  -1.125   0.296  0.00  0.00     0.135 C 
BRANCH   3   4
HETATM    4  N   UNK N   1       9.976  -1.182  -0.101  0.00  0.00    -0.288 N 
HETATM    5  C   UNK N   1      10.643  -2.359   0.146  0.00  0.00     0.227 C 
HETATM    6  O   UNK N   1      10.058  -3.300   0.665  0.00  0.00    -0.273 OA
HETATM    7  C   UNK N   1      12.094  -2.542  -0.214  0.00  0.00     0.113 C 
HETATM    8  C   UNK N   1      12.842  -1.222  -0.263  0.00  0.00    -0.024 C 
HETATM    9  C   UNK N   1      14.238  -1.421  -0.805  0.00  0.00     0.010 C 
HETATM   10  C   UNK N   1      13.083  -0.643   1.119  0.00  0.00     0.010 C 
HETATM   11  C   UNK N   1      12.070  -0.251  -1.145  0.00  0.00     0.113 C 
HETATM   12  C   UNK N   1      15.052  -0.260  -0.257  0.00  0.00     0.001 C 
HETATM   13  C   UNK N   1      14.291   0.263   0.954  0.00  0.00     0.001 C 
HETATM   14  C   UNK N   1      10.638  -0.125  -0.704  0.00  0.00     0.227 C 
HETATM   15  O   UNK N   1      10.080   0.940  -0.911  0.00  0.00    -0.273 OA
ENDBRANCH   3   4
ENDBRANCH   2   3
ENDBRANCH   1   2
BRANCH   1  16
HETATM   16  C   UNK N   1       6.698   2.210   0.899  0.00  0.00     0.272 C 
BRANCH  16  17
HETATM   17  N   UNK N   1       5.538   1.945   0.045  0.00  0.00     0.091 N 
HETATM   18  C   UNK N   1       4.799   0.769   0.517  0.00  0.00     0.292 C 
HETATM   19  C   UNK N   1       3.674   0.476  -0.461  0.00  0.00     0.171 C 
HETATM   20  N   UNK N   1       2.826   1.641  -0.509  0.00  0.00    -0.214 N 
HETATM   21  C   UNK N   1       3.437   2.925  -0.786  0.00  0.00     0.171 C 
HETATM   22  C   UNK N   1       1.439   1.525  -0.220  0.00  0.00     0.679 A 
HETATM   23  C   UNK N   1       4.654   3.114   0.128  0.00  0.00     0.292 C 
HETATM   24  N   UNK N   1       0.894   0.298   0.015  0.00  0.00    -0.202 N 
HETATM   25  N   UNK N   1       0.646   2.632  -0.187  0.00  0.00    -0.202 N 
HETATM   26  C   UNK N   1      -0.429   0.158   0.282  0.00  0.00     0.107 A 
ATOM     27  HN  UNK N   1       1.491  -0.529  -0.009  1.00  0.00     0.183 HD
HETATM   28  C   UNK N   1      -1.251   1.281   0.321  0.00  0.00     0.035 A 
HETATM   29  C   UNK N   1      -0.682   2.530   0.081  0.00  0.00     0.107 A 
ATOM     30  HN  UNK N   1       1.055   3.550  -0.365  1.00  0.00     0.183 HD
ENDBRANCH  16  17
ENDBRANCH   1  16
TORSDOF 5
