MODEL 1
REMARK VINA RESULT:      -7.7      0.000      0.000
REMARK  5 active torsions:
REMARK  status: ('A' for Active; 'I' for Inactive)
REMARK    1  A    between atoms: N_3  and  C_19 
REMARK    2  A    between atoms: N_4  and  C_22 
REMARK       I    between atoms: N_5  and  C_27 
REMARK    3  A    between atoms: C_19  and  C_20 
REMARK    4  A    between atoms: C_20  and  C_21 
REMARK    5  A    between atoms: C_21  and  C_22 
ROOT
HETATM    1  C   UNK N   1      35.402  12.807   9.257  0.00  0.00     0.032 C 
ENDROOT
BRANCH   1   2
HETATM    2  C   UNK N   1      34.582  12.415  10.475  0.00  0.00     0.022 C 
BRANCH   2   3
HETATM    3  C   UNK N   1      35.489  11.742  11.497  0.00  0.00     0.135 C 
BRANCH   3   4
HETATM    4  N   UNK N   1      35.275  12.063  12.914  0.00  0.00    -0.288 N 
HETATM    5  C   UNK N   1      36.026  13.088  13.439  0.00  0.00     0.227 C 
HETATM    6  O   UNK N   1      36.821  13.692  12.732  0.00  0.00    -0.273 OA
HETATM    7  C   UNK N   1      35.899  13.511  14.879  0.00  0.00     0.113 C 
HETATM    8  C   UNK N   1      35.398  12.384  15.764  0.00  0.00    -0.024 C 
HETATM    9  C   UNK N   1      35.107  12.891  17.157  0.00  0.00     0.010 C 
HETATM   10  C   UNK N   1      36.454  11.318  15.995  0.00  0.00     0.010 C 
HETATM   11  C   UNK N   1      34.139  11.795  15.146  0.00  0.00     0.113 C 
HETATM   12  C   UNK N   1      35.220  11.674  18.061  0.00  0.00     0.001 C 
HETATM   13  C   UNK N   1      36.052  10.651  17.299  0.00  0.00     0.001 C 
HETATM   14  C   UNK N   1      34.364  11.392  13.715  0.00  0.00     0.227 C 
HETATM   15  O   UNK N   1      33.704  10.461  13.284  0.00  0.00    -0.273 OA
ENDBRANCH   3   4
ENDBRANCH   2   3
ENDBRANCH   1   2
BRANCH   1  16
HETATM   16  C   UNK N   1      35.994  14.218   9.376  0.00  0.00     0.272 C 
BRANCH  16  17
HETATM   17  N   UNK N   1      35.247  15.242   8.642  0.00  0.00     0.091 N 
HETATM   18  C   UNK N   1      34.066  14.662   7.992  0.00  0.00     0.292 C 
HETATM   19  C   UNK N   1      33.389  15.738   7.161  0.00  0.00     0.171 C 
HETATM   20  N   UNK N   1      33.021  16.809   8.053  0.00  0.00    -0.214 N 
HETATM   21  C   UNK N   1      34.046  17.376   8.906  0.00  0.00     0.171 C 
HETATM   22  C   UNK N   1      31.668  17.238   8.132  0.00  0.00     0.679 A 
HETATM   23  C   UNK N   1      34.797  16.242   9.617  0.00  0.00     0.292 C 
HETATM   24  N   UNK N   1      30.735  16.698   7.299  0.00  0.00    -0.202 N 
HETATM   25  N   UNK N   1      31.299  18.195   9.028  0.00  0.00    -0.202 N 
HETATM   26  C   UNK N   1      29.439  17.097   7.345  0.00  0.00     0.107 A 
ATOM     27  HN  UNK N   1      31.015  15.980   6.630  1.00  0.00     0.183 HD
HETATM   28  C   UNK N   1      29.046  18.073   8.257  0.00  0.00     0.035 A 
HETATM   29  C   UNK N   1      30.010  18.617   9.105  0.00  0.00     0.107 A 
ATOM     30  HN  UNK N   1      31.999  18.600   9.649  1.00  0.00     0.183 HD
ENDBRANCH  16  17
ENDBRANCH   1  16
TORSDOF 5
ENDMDL
MODEL 2
REMARK VINA RESULT:      -7.6      4.032     10.292
REMARK  5 active torsions:
REMARK  status: ('A' for Active; 'I' for Inactive)
REMARK    1  A    between atoms: N_3  and  C_19 
REMARK    2  A    between atoms: N_4  and  C_22 
REMARK       I    between atoms: N_5  and  C_27 
REMARK    3  A    between atoms: C_19  and  C_20 
REMARK    4  A    between atoms: C_20  and  C_21 
REMARK    5  A    between atoms: C_21  and  C_22 
ROOT
HETATM    1  C   UNK N   1      33.258  17.569   5.111  0.00  0.00     0.032 C 
ENDROOT
BRANCH   1   2
HETATM    2  C   UNK N   1      32.298  17.244   3.979  0.00  0.00     0.022 C 
BRANCH   2   3
HETATM    3  C   UNK N   1      31.209  16.312   4.494  0.00  0.00     0.135 C 
BRANCH   3   4
HETATM    4  N   UNK N   1      29.881  16.888   4.745  0.00  0.00    -0.288 N 
HETATM    5  C   UNK N   1      29.003  16.909   3.686  0.00  0.00     0.227 C 
HETATM    6  O   UNK N   1      29.338  16.454   2.601  0.00  0.00    -0.273 OA
HETATM    7  C   UNK N   1      27.613  17.473   3.816  0.00  0.00     0.113 C 
HETATM    8  C   UNK N   1      27.516  18.506   4.925  0.00  0.00    -0.024 C 
HETATM    9  C   UNK N   1      26.078  18.911   5.150  0.00  0.00     0.010 C 
HETATM   10  C   UNK N   1      28.194  19.813   4.558  0.00  0.00     0.010 C 
HETATM   11  C   UNK N   1      28.101  17.915   6.200  0.00  0.00     0.113 C 
HETATM   12  C   UNK N   1      26.144  20.296   5.773  0.00  0.00     0.001 C 
HETATM   13  C   UNK N   1      27.516  20.858   5.426  0.00  0.00     0.001 C 
HETATM   14  C   UNK N   1      29.491  17.389   5.976  0.00  0.00     0.227 C 
HETATM   15  O   UNK N   1      30.257  17.408   6.926  0.00  0.00    -0.273 OA
ENDBRANCH   3   4
ENDBRANCH   2   3
ENDBRANCH   1   2
BRANCH   1  16
HETATM   16  C   UNK N   1      33.824  16.309   5.782  0.00  0.00     0.272 C 
BRANCH  16  17
HETATM   17  N   UNK N   1      33.481  16.185   7.200  0.00  0.00     0.091 N 
HETATM   18  C   UNK N   1      33.481  14.779   7.617  0.00  0.00     0.292 C 
HETATM   19  C   UNK N   1      33.016  14.699   9.061  0.00  0.00     0.171 C 
HETATM   20  N   UNK N   1      33.932  15.479   9.856  0.00  0.00    -0.214 N 
HETATM   21  C   UNK N   1      34.185  16.850   9.464  0.00  0.00     0.171 C 
HETATM   22  C   UNK N   1      34.613  14.880  10.950  0.00  0.00     0.679 A 
HETATM   23  C   UNK N   1      34.511  16.897   7.966  0.00  0.00     0.292 C 
HETATM   24  N   UNK N   1      34.333  13.593  11.303  0.00  0.00    -0.202 N 
HETATM   25  N   UNK N   1      35.537  15.587  11.658  0.00  0.00    -0.202 N 
HETATM   26  C   UNK N   1      34.961  13.002  12.351  0.00  0.00     0.107 A 
ATOM     27  HN  UNK N   1      33.641  13.066  10.770  1.00  0.00     0.183 HD
HETATM   28  C   UNK N   1      35.909  13.712  13.082  0.00  0.00     0.035 A 
HETATM   29  C   UNK N   1      36.188  15.025  12.710  0.00  0.00     0.107 A 
ATOM     30  HN  UNK N   1      35.745  16.551  11.393  1.00  0.00     0.183 HD
ENDBRANCH  16  17
ENDBRANCH   1  16
TORSDOF 5
ENDMDL
MODEL 3
REMARK VINA RESULT:      -7.6      1.944      3.306
REMARK  5 active torsions:
REMARK  status: ('A' for Active; 'I' for Inactive)
REMARK    1  A    between atoms: N_3  and  C_19 
REMARK    2  A    between atoms: N_4  and  C_22 
REMARK       I    between atoms: N_5  and  C_27 
REMARK    3  A    between atoms: C_19  and  C_20 
REMARK    4  A    between atoms: C_20  and  C_21 
REMARK    5  A    between atoms: C_21  and  C_22 
ROOT
HETATM    1  C   UNK N   1      36.804  11.133  10.870  0.00  0.00     0.032 C 
ENDROOT
BRANCH   1   2
HETATM    2  C   UNK N   1      37.333   9.930  11.632  0.00  0.00     0.022 C 
BRANCH   2   3
HETATM    3  C   UNK N   1      36.239   9.389  12.542  0.00  0.00     0.135 C 
BRANCH   3   4
HETATM    4  N   UNK N   1      35.874  10.188  13.720  0.00  0.00    -0.288 N 
HETATM    5  C   UNK N   1      34.618  10.749  13.724  0.00  0.00     0.227 C 
HETATM    6  O   UNK N   1      33.860  10.567  12.782  0.00  0.00    -0.273 OA
HETATM    7  C   UNK N   1      34.127  11.590  14.873  0.00  0.00     0.113 C 
HETATM    8  C   UNK N   1      35.267  12.234  15.640  0.00  0.00    -0.024 C 
HETATM    9  C   UNK N   1      34.754  12.913  16.888  0.00  0.00     0.010 C 
HETATM   10  C   UNK N   1      35.915  13.368  14.866  0.00  0.00     0.010 C 
HETATM   11  C   UNK N   1      36.283  11.162  16.006  0.00  0.00     0.113 C 
HETATM   12  C   UNK N   1      35.782  13.984  17.216  0.00  0.00     0.001 C 
HETATM   13  C   UNK N   1      36.551  14.248  15.928  0.00  0.00     0.001 C 
HETATM   14  C   UNK N   1      36.723  10.383  14.797  0.00  0.00     0.227 C 
HETATM   15  O   UNK N   1      37.852   9.920  14.809  0.00  0.00    -0.273 OA
ENDBRANCH   3   4
ENDBRANCH   2   3
ENDBRANCH   1   2
BRANCH   1  16
HETATM   16  C   UNK N   1      37.580  12.419  11.189  0.00  0.00     0.272 C 
BRANCH  16  17
HETATM   17  N   UNK N   1      36.729  13.597  11.373  0.00  0.00     0.091 N 
HETATM   18  C   UNK N   1      37.170  14.700  10.512  0.00  0.00     0.292 C 
HETATM   19  C   UNK N   1      36.326  15.925  10.820  0.00  0.00     0.171 C 
HETATM   20  N   UNK N   1      34.950  15.580  10.563  0.00  0.00    -0.214 N 
HETATM   21  C   UNK N   1      34.407  14.398  11.201  0.00  0.00     0.171 C 
HETATM   22  C   UNK N   1      34.181  16.350   9.648  0.00  0.00     0.679 A 
HETATM   23  C   UNK N   1      35.365  13.220  10.984  0.00  0.00     0.292 C 
HETATM   24  N   UNK N   1      34.717  17.468   9.083  0.00  0.00    -0.202 N 
HETATM   25  N   UNK N   1      32.905  15.985   9.341  0.00  0.00    -0.202 N 
HETATM   26  C   UNK N   1      34.001  18.228   8.216  0.00  0.00     0.107 A 
ATOM     27  HN  UNK N   1      35.673  17.738   9.314  1.00  0.00     0.183 HD
HETATM   28  C   UNK N   1      32.697  17.865   7.891  0.00  0.00     0.035 A 
HETATM   29  C   UNK N   1      32.160  16.719   8.474  0.00  0.00     0.107 A 
ATOM     30  HN  UNK N   1      32.504  15.149   9.767  1.00  0.00     0.183 HD
ENDBRANCH  16  17
ENDBRANCH   1  16
TORSDOF 5
ENDMDL
MODEL 4
REMARK VINA RESULT:      -7.5      3.218      5.308
REMARK  5 active torsions:
REMARK  status: ('A' for Active; 'I' for Inactive)
REMARK    1  A    between atoms: N_3  and  C_19 
REMARK    2  A    between atoms: N_4  and  C_22 
REMARK       I    between atoms: N_5  and  C_27 
REMARK    3  A    between atoms: C_19  and  C_20 
REMARK    4  A    between atoms: C_20  and  C_21 
REMARK    5  A    between atoms: C_21  and  C_22 
ROOT
HETATM    1  C   UNK N   1      33.227  17.103   6.330  0.00  0.00     0.032 C 
ENDROOT
BRANCH   1   2
HETATM    2  C   UNK N   1      34.354  16.828   7.313  0.00  0.00     0.022 C 
BRANCH   2   3
HETATM    3  C   UNK N   1      33.823  16.948   8.735  0.00  0.00     0.135 C 
BRANCH   3   4
HETATM    4  N   UNK N   1      34.412  16.075   9.759  0.00  0.00    -0.288 N 
HETATM    5  C   UNK N   1      35.411  16.615  10.535  0.00  0.00     0.227 C 
HETATM    6  O   UNK N   1      35.765  17.774  10.362  0.00  0.00    -0.273 OA
HETATM    7  C   UNK N   1      36.094  15.823  11.618  0.00  0.00     0.113 C 
HETATM    8  C   UNK N   1      36.038  14.329  11.355  0.00  0.00    -0.024 C 
HETATM    9  C   UNK N   1      36.564  13.559  12.543  0.00  0.00     0.010 C 
HETATM   10  C   UNK N   1      36.963  13.906  10.228  0.00  0.00     0.010 C 
HETATM   11  C   UNK N   1      34.597  13.932  11.069  0.00  0.00     0.113 C 
HETATM   12  C   UNK N   1      37.031  12.224  11.984  0.00  0.00     0.001 C 
HETATM   13  C   UNK N   1      37.249  12.437  10.492  0.00  0.00     0.001 C 
HETATM   14  C   UNK N   1      34.003  14.768   9.969  0.00  0.00     0.227 C 
HETATM   15  O   UNK N   1      33.138  14.254   9.279  0.00  0.00    -0.273 OA
ENDBRANCH   3   4
ENDBRANCH   2   3
ENDBRANCH   1   2
BRANCH   1  16
HETATM   16  C   UNK N   1      32.350  15.868   6.080  0.00  0.00     0.272 C 
BRANCH  16  17
HETATM   17  N   UNK N   1      30.916  16.158   6.027  0.00  0.00     0.091 N 
HETATM   18  C   UNK N   1      30.493  16.921   7.206  0.00  0.00     0.292 C 
HETATM   19  C   UNK N   1      28.986  17.101   7.155  0.00  0.00     0.171 C 
HETATM   20  N   UNK N   1      28.673  17.806   5.937  0.00  0.00    -0.214 N 
HETATM   21  C   UNK N   1      29.178  17.275   4.687  0.00  0.00     0.171 C 
HETATM   22  C   UNK N   1      27.947  19.027   5.986  0.00  0.00     0.679 A 
HETATM   23  C   UNK N   1      30.675  16.976   4.832  0.00  0.00     0.292 C 
HETATM   24  N   UNK N   1      27.469  19.486   7.177  0.00  0.00    -0.202 N 
HETATM   25  N   UNK N   1      27.715  19.739   4.848  0.00  0.00    -0.202 N 
HETATM   26  C   UNK N   1      26.763  20.642   7.251  0.00  0.00     0.107 A 
ATOM     27  HN  UNK N   1      27.646  18.951   8.028  1.00  0.00     0.183 HD
HETATM   28  C   UNK N   1      26.521  21.381   6.096  0.00  0.00     0.035 A 
HETATM   29  C   UNK N   1      27.016  20.903   4.885  0.00  0.00     0.107 A 
ATOM     30  HN  UNK N   1      28.073  19.393   3.957  1.00  0.00     0.183 HD
ENDBRANCH  16  17
ENDBRANCH   1  16
TORSDOF 5
ENDMDL
MODEL 5
REMARK VINA RESULT:      -7.5      3.409     10.215
REMARK  5 active torsions:
REMARK  status: ('A' for Active; 'I' for Inactive)
REMARK    1  A    between atoms: N_3  and  C_19 
REMARK    2  A    between atoms: N_4  and  C_22 
REMARK       I    between atoms: N_5  and  C_27 
REMARK    3  A    between atoms: C_19  and  C_20 
REMARK    4  A    between atoms: C_20  and  C_21 
REMARK    5  A    between atoms: C_21  and  C_22 
ROOT
HETATM    1  C   UNK N   1      33.844  16.847   7.478  0.00  0.00     0.032 C 
ENDROOT
BRANCH   1   2
HETATM    2  C   UNK N   1      32.552  17.396   6.897  0.00  0.00     0.022 C 
BRANCH   2   3
HETATM    3  C   UNK N   1      31.381  16.555   7.388  0.00  0.00     0.135 C 
BRANCH   3   4
HETATM    4  N   UNK N   1      30.037  16.915   6.917  0.00  0.00    -0.288 N 
HETATM    5  C   UNK N   1      29.554  16.221   5.832  0.00  0.00     0.227 C 
HETATM    6  O   UNK N   1      30.231  15.346   5.311  0.00  0.00    -0.273 OA
HETATM    7  C   UNK N   1      28.190  16.497   5.255  0.00  0.00     0.113 C 
HETATM    8  C   UNK N   1      27.724  17.913   5.542  0.00  0.00    -0.024 C 
HETATM    9  C   UNK N   1      26.287  18.097   5.114  0.00  0.00     0.010 C 
HETATM   10  C   UNK N   1      28.469  18.945   4.715  0.00  0.00     0.010 C 
HETATM   11  C   UNK N   1      27.867  18.186   7.032  0.00  0.00     0.113 C 
HETATM   12  C   UNK N   1      26.128  19.588   4.866  0.00  0.00     0.001 C 
HETATM   13  C   UNK N   1      27.531  20.138   4.649  0.00  0.00     0.001 C 
HETATM   14  C   UNK N   1      29.260  17.894   7.515  0.00  0.00     0.227 C 
HETATM   15  O   UNK N   1      29.673  18.544   8.461  0.00  0.00    -0.273 OA
ENDBRANCH   3   4
ENDBRANCH   2   3
ENDBRANCH   1   2
BRANCH   1  16
HETATM   16  C   UNK N   1      33.911  16.991   9.005  0.00  0.00     0.272 C 
BRANCH  16  17
HETATM   17  N   UNK N   1      34.771  16.002   9.658  0.00  0.00     0.091 N 
HETATM   18  C   UNK N   1      35.554  16.619  10.734  0.00  0.00     0.292 C 
HETATM   19  C   UNK N   1      36.502  15.579  11.305  0.00  0.00     0.171 C 
HETATM   20  N   UNK N   1      35.702  14.488  11.802  0.00  0.00    -0.214 N 
HETATM   21  C   UNK N   1      34.737  13.880  10.908  0.00  0.00     0.171 C 
HETATM   22  C   UNK N   1      35.819  14.078  13.158  0.00  0.00     0.679 A 
HETATM   23  C   UNK N   1      33.897  14.980  10.247  0.00  0.00     0.292 C 
HETATM   24  N   UNK N   1      36.753  14.657  13.965  0.00  0.00    -0.202 N 
HETATM   25  N   UNK N   1      35.012  13.101  13.656  0.00  0.00    -0.202 N 
HETATM   26  C   UNK N   1      36.893  14.277  15.260  0.00  0.00     0.107 A 
ATOM     27  HN  UNK N   1      37.355  15.390  13.589  1.00  0.00     0.183 HD
HETATM   28  C   UNK N   1      36.073  13.281  15.783  0.00  0.00     0.035 A 
HETATM   29  C   UNK N   1      35.122  12.698  14.949  0.00  0.00     0.107 A 
ATOM     30  HN  UNK N   1      34.314  12.666  13.051  1.00  0.00     0.183 HD
ENDBRANCH  16  17
ENDBRANCH   1  16
TORSDOF 5
ENDMDL
MODEL 6
REMARK VINA RESULT:      -7.4      1.576      2.243
REMARK  5 active torsions:
REMARK  status: ('A' for Active; 'I' for Inactive)
REMARK    1  A    between atoms: N_3  and  C_19 
REMARK    2  A    between atoms: N_4  and  C_22 
REMARK       I    between atoms: N_5  and  C_27 
REMARK    3  A    between atoms: C_19  and  C_20 
REMARK    4  A    between atoms: C_20  and  C_21 
REMARK    5  A    between atoms: C_21  and  C_22 
ROOT
HETATM    1  C   UNK N   1      35.562  13.281  11.407  0.00  0.00     0.032 C 
ENDROOT
BRANCH   1   2
HETATM    2  C   UNK N   1      35.643  13.389  12.920  0.00  0.00     0.022 C 
BRANCH   2   3
HETATM    3  C   UNK N   1      34.932  12.198  13.549  0.00  0.00     0.135 C 
BRANCH   3   4
HETATM    4  N   UNK N   1      35.352  11.785  14.895  0.00  0.00    -0.288 N 
HETATM    5  C   UNK N   1      36.311  10.803  14.971  0.00  0.00     0.227 C 
HETATM    6  O   UNK N   1      36.781  10.321  13.949  0.00  0.00    -0.273 OA
HETATM    7  C   UNK N   1      36.825  10.293  16.292  0.00  0.00     0.113 C 
HETATM    8  C   UNK N   1      35.813  10.477  17.408  0.00  0.00    -0.024 C 
HETATM    9  C   UNK N   1      36.426  10.129  18.745  0.00  0.00     0.010 C 
HETATM   10  C   UNK N   1      34.647   9.512  17.297  0.00  0.00     0.010 C 
HETATM   11  C   UNK N   1      35.339  11.924  17.409  0.00  0.00     0.113 C 
HETATM   12  C   UNK N   1      35.255   9.756  19.640  0.00  0.00     0.001 C 
HETATM   13  C   UNK N   1      34.103   9.397  18.710  0.00  0.00     0.001 C 
HETATM   14  C   UNK N   1      34.835  12.339  16.055  0.00  0.00     0.227 C 
HETATM   15  O   UNK N   1      33.964  13.193  16.019  0.00  0.00    -0.273 OA
ENDBRANCH   3   4
ENDBRANCH   2   3
ENDBRANCH   1   2
BRANCH   1  16
HETATM   16  C   UNK N   1      36.561  14.205  10.697  0.00  0.00     0.272 C 
BRANCH  16  17
HETATM   17  N   UNK N   1      35.950  15.092   9.705  0.00  0.00     0.091 N 
HETATM   18  C   UNK N   1      34.991  14.360   8.869  0.00  0.00     0.292 C 
HETATM   19  C   UNK N   1      34.468  15.297   7.793  0.00  0.00     0.171 C 
HETATM   20  N   UNK N   1      33.839  16.411   8.456  0.00  0.00    -0.214 N 
HETATM   21  C   UNK N   1      34.598  17.136   9.455  0.00  0.00     0.171 C 
HETATM   22  C   UNK N   1      32.483  16.733   8.176  0.00  0.00     0.679 A 
HETATM   23  C   UNK N   1      35.225  16.138  10.437  0.00  0.00     0.292 C 
HETATM   24  N   UNK N   1      31.805  16.044   7.215  0.00  0.00    -0.202 N 
HETATM   25  N   UNK N   1      31.857  17.735   8.855  0.00  0.00    -0.202 N 
HETATM   26  C   UNK N   1      30.514  16.339   6.920  0.00  0.00     0.107 A 
ATOM     27  HN  UNK N   1      32.276  15.293   6.710  1.00  0.00     0.183 HD
HETATM   28  C   UNK N   1      29.861  17.359   7.607  0.00  0.00     0.035 A 
HETATM   29  C   UNK N   1      30.563  18.055   8.588  0.00  0.00     0.107 A 
ATOM     30  HN  UNK N   1      32.366  18.252   9.573  1.00  0.00     0.183 HD
ENDBRANCH  16  17
ENDBRANCH   1  16
TORSDOF 5
ENDMDL
MODEL 7
REMARK VINA RESULT:      -7.3      1.766      2.394
REMARK  5 active torsions:
REMARK  status: ('A' for Active; 'I' for Inactive)
REMARK    1  A    between atoms: N_3  and  C_19 
REMARK    2  A    between atoms: N_4  and  C_22 
REMARK       I    between atoms: N_5  and  C_27 
REMARK    3  A    between atoms: C_19  and  C_20 
REMARK    4  A    between atoms: C_20  and  C_21 
REMARK    5  A    between atoms: C_21  and  C_22 
ROOT
HETATM    1  C   UNK N   1      35.010  13.997   9.702  0.00  0.00     0.032 C 
ENDROOT
BRANCH   1   2
HETATM    2  C   UNK N   1      34.460  12.768  10.406  0.00  0.00     0.022 C 
BRANCH   2   3
HETATM    3  C   UNK N   1      35.518  12.210  11.348  0.00  0.00     0.135 C 
BRANCH   3   4
HETATM    4  N   UNK N   1      35.288  12.347  12.792  0.00  0.00    -0.288 N 
HETATM    5  C   UNK N   1      35.959  13.363  13.433  0.00  0.00     0.227 C 
HETATM    6  O   UNK N   1      36.698  14.106  12.802  0.00  0.00    -0.273 OA
HETATM    7  C   UNK N   1      35.807  13.606  14.912  0.00  0.00     0.113 C 
HETATM    8  C   UNK N   1      35.404  12.349  15.660  0.00  0.00    -0.024 C 
HETATM    9  C   UNK N   1      35.082  12.668  17.101  0.00  0.00     0.010 C 
HETATM   10  C   UNK N   1      36.543  11.352  15.770  0.00  0.00     0.010 C 
HETATM   11  C   UNK N   1      34.192  11.735  14.975  0.00  0.00     0.113 C 
HETATM   12  C   UNK N   1      35.298  11.368  17.860  0.00  0.00     0.001 C 
HETATM   13  C   UNK N   1      36.204  10.509  16.988  0.00  0.00     0.001 C 
HETATM   14  C   UNK N   1      34.440  11.519  13.507  0.00  0.00     0.227 C 
HETATM   15  O   UNK N   1      33.853  10.593  12.971  0.00  0.00    -0.273 OA
ENDBRANCH   3   4
ENDBRANCH   2   3
ENDBRANCH   1   2
BRANCH   1  16
HETATM   16  C   UNK N   1      34.565  15.306  10.370  0.00  0.00     0.272 C 
BRANCH  16  17
HETATM   17  N   UNK N   1      33.823  16.205   9.483  0.00  0.00     0.091 N 
HETATM   18  C   UNK N   1      34.617  16.540   8.296  0.00  0.00     0.292 C 
HETATM   19  C   UNK N   1      33.849  17.554   7.466  0.00  0.00     0.171 C 
HETATM   20  N   UNK N   1      32.591  16.952   7.100  0.00  0.00    -0.214 N 
HETATM   21  C   UNK N   1      31.761  16.401   8.152  0.00  0.00     0.171 C 
HETATM   22  C   UNK N   1      32.223  16.847   5.731  0.00  0.00     0.679 A 
HETATM   23  C   UNK N   1      32.614  15.495   9.048  0.00  0.00     0.292 C 
HETATM   24  N   UNK N   1      33.018  17.395   4.770  0.00  0.00    -0.202 N 
HETATM   25  N   UNK N   1      31.074  16.210   5.372  0.00  0.00    -0.202 N 
HETATM   26  C   UNK N   1      32.685  17.319   3.457  0.00  0.00     0.107 A 
ATOM     27  HN  UNK N   1      33.879  17.870   5.042  1.00  0.00     0.183 HD
HETATM   28  C   UNK N   1      31.514  16.669   3.075  0.00  0.00     0.035 A 
HETATM   29  C   UNK N   1      30.711  16.111   4.067  0.00  0.00     0.107 A 
ATOM     30  HN  UNK N   1      30.478  15.801   6.093  1.00  0.00     0.183 HD
ENDBRANCH  16  17
ENDBRANCH   1  16
TORSDOF 5
ENDMDL
MODEL 8
REMARK VINA RESULT:      -7.2      2.249      3.181
REMARK  5 active torsions:
REMARK  status: ('A' for Active; 'I' for Inactive)
REMARK    1  A    between atoms: N_3  and  C_19 
REMARK    2  A    between atoms: N_4  and  C_22 
REMARK       I    between atoms: N_5  and  C_27 
REMARK    3  A    between atoms: C_19  and  C_20 
REMARK    4  A    between atoms: C_20  and  C_21 
REMARK    5  A    between atoms: C_21  and  C_22 
ROOT
HETATM    1  C   UNK N   1      34.792  13.900  10.994  0.00  0.00     0.032 C 
ENDROOT
BRANCH   1   2
HETATM    2  C   UNK N   1      35.411  13.566  12.341  0.00  0.00     0.022 C 
BRANCH   2   3
HETATM    3  C   UNK N   1      35.476  12.054  12.505  0.00  0.00     0.135 C 
BRANCH   3   4
HETATM    4  N   UNK N   1      35.491  11.516  13.872  0.00  0.00    -0.288 N 
HETATM    5  C   UNK N   1      34.346  10.889  14.305  0.00  0.00     0.227 C 
HETATM    6  O   UNK N   1      33.379  10.792  13.562  0.00  0.00    -0.273 OA
HETATM    7  C   UNK N   1      34.237  10.297  15.686  0.00  0.00     0.113 C 
HETATM    8  C   UNK N   1      35.175  10.970  16.672  0.00  0.00    -0.024 C 
HETATM    9  C   UNK N   1      35.176  10.234  17.992  0.00  0.00     0.010 C 
HETATM   10  C   UNK N   1      34.711  12.364  17.051  0.00  0.00     0.010 C 
HETATM   11  C   UNK N   1      36.577  10.991  16.083  0.00  0.00     0.113 C 
HETATM   12  C   UNK N   1      35.606  11.262  19.026  0.00  0.00     0.001 C 
HETATM   13  C   UNK N   1      35.343  12.628  18.406  0.00  0.00     0.001 C 
HETATM   14  C   UNK N   1      36.589  11.609  14.711  0.00  0.00     0.227 C 
HETATM   15  O   UNK N   1      37.609  12.182  14.364  0.00  0.00    -0.273 OA
ENDBRANCH   3   4
ENDBRANCH   2   3
ENDBRANCH   1   2
BRANCH   1  16
HETATM   16  C   UNK N   1      34.589  15.409  10.797  0.00  0.00     0.272 C 
BRANCH  16  17
HETATM   17  N   UNK N   1      34.964  15.891   9.466  0.00  0.00     0.091 N 
HETATM   18  C   UNK N   1      34.838  14.823   8.468  0.00  0.00     0.292 C 
HETATM   19  C   UNK N   1      35.338  15.344   7.132  0.00  0.00     0.171 C 
HETATM   20  N   UNK N   1      34.531  16.485   6.780  0.00  0.00    -0.214 N 
HETATM   21  C   UNK N   1      34.402  17.559   7.743  0.00  0.00     0.171 C 
HETATM   22  C   UNK N   1      33.829  16.507   5.544  0.00  0.00     0.679 A 
HETATM   23  C   UNK N   1      34.035  16.971   9.111  0.00  0.00     0.292 C 
HETATM   24  N   UNK N   1      33.990  15.489   4.652  0.00  0.00    -0.202 N 
HETATM   25  N   UNK N   1      33.002  17.546   5.238  0.00  0.00    -0.202 N 
HETATM   26  C   UNK N   1      33.340  15.491   3.461  0.00  0.00     0.107 A 
ATOM     27  HN  UNK N   1      34.608  14.712   4.885  1.00  0.00     0.183 HD
HETATM   28  C   UNK N   1      32.491  16.545   3.136  0.00  0.00     0.035 A 
HETATM   29  C   UNK N   1      32.333  17.579   4.057  0.00  0.00     0.107 A 
ATOM     30  HN  UNK N   1      32.884  18.308   5.906  1.00  0.00     0.183 HD
ENDBRANCH  16  17
ENDBRANCH   1  16
TORSDOF 5
ENDMDL
MODEL 9
REMARK VINA RESULT:      -7.0      1.455      1.991
REMARK  5 active torsions:
REMARK  status: ('A' for Active; 'I' for Inactive)
REMARK    1  A    between atoms: N_3  and  C_19 
REMARK    2  A    between atoms: N_4  and  C_22 
REMARK       I    between atoms: N_5  and  C_27 
REMARK    3  A    between atoms: C_19  and  C_20 
REMARK    4  A    between atoms: C_20  and  C_21 
REMARK    5  A    between atoms: C_21  and  C_22 
ROOT
HETATM    1  C   UNK N   1      36.524  14.144   8.145  0.00  0.00     0.032 C 
ENDROOT
BRANCH   1   2
HETATM    2  C   UNK N   1      37.206  13.429   9.300  0.00  0.00     0.022 C 
BRANCH   2   3
HETATM    3  C   UNK N   1      36.185  12.575  10.039  0.00  0.00     0.135 C 
BRANCH   3   4
HETATM    4  N   UNK N   1      36.251  12.548  11.506  0.00  0.00    -0.288 N 
HETATM    5  C   UNK N   1      37.185  11.711  12.070  0.00  0.00     0.227 C 
HETATM    6  O   UNK N   1      37.918  11.039  11.357  0.00  0.00    -0.273 OA
HETATM    7  C   UNK N   1      37.350  11.594  13.562  0.00  0.00     0.113 C 
HETATM    8  C   UNK N   1      36.078  11.951  14.308  0.00  0.00    -0.024 C 
HETATM    9  C   UNK N   1      36.330  12.003  15.797  0.00  0.00     0.010 C 
HETATM   10  C   UNK N   1      35.009  10.882  14.173  0.00  0.00     0.010 C 
HETATM   11  C   UNK N   1      35.579  13.301  13.813  0.00  0.00     0.113 C 
HETATM   12  C   UNK N   1      34.978  11.753  16.444  0.00  0.00     0.001 C 
HETATM   13  C   UNK N   1      34.119  11.068  15.389  0.00  0.00     0.001 C 
HETATM   14  C   UNK N   1      35.434  13.320  12.316  0.00  0.00     0.227 C 
HETATM   15  O   UNK N   1      34.579  14.051  11.846  0.00  0.00    -0.273 OA
ENDBRANCH   3   4
ENDBRANCH   2   3
ENDBRANCH   1   2
BRANCH   1  16
HETATM   16  C   UNK N   1      35.006  13.911   8.124  0.00  0.00     0.272 C 
BRANCH  16  17
HETATM   17  N   UNK N   1      34.229  15.091   7.739  0.00  0.00     0.091 N 
HETATM   18  C   UNK N   1      32.912  14.703   7.221  0.00  0.00     0.292 C 
HETATM   19  C   UNK N   1      32.192  15.951   6.738  0.00  0.00     0.171 C 
HETATM   20  N   UNK N   1      32.068  16.844   7.863  0.00  0.00    -0.214 N 
HETATM   21  C   UNK N   1      33.266  17.186   8.604  0.00  0.00     0.171 C 
HETATM   22  C   UNK N   1      30.787  17.311   8.265  0.00  0.00     0.679 A 
HETATM   23  C   UNK N   1      34.033  15.903   8.946  0.00  0.00     0.292 C 
HETATM   24  N   UNK N   1      29.685  16.987   7.532  0.00  0.00    -0.202 N 
HETATM   25  N   UNK N   1      30.654  18.092   9.373  0.00  0.00    -0.202 N 
HETATM   26  C   UNK N   1      28.452  17.429   7.886  0.00  0.00     0.107 A 
ATOM     27  HN  UNK N   1      29.788  16.400   6.703  1.00  0.00     0.183 HD
HETATM   28  C   UNK N   1      28.300  18.226   9.017  0.00  0.00     0.035 A 
HETATM   29  C   UNK N   1      29.434  18.549   9.760  0.00  0.00     0.107 A 
ATOM     30  HN  UNK N   1      31.480  18.336   9.920  1.00  0.00     0.183 HD
ENDBRANCH  16  17
ENDBRANCH   1  16
TORSDOF 5
ENDMDL
