MODEL 1
REMARK VINA RESULT:      -6.4      0.000      0.000
REMARK  7 active torsions:
REMARK  status: ('A' for Active; 'I' for Inactive)
REMARK    1  A    between atoms: O_2  and  C_20 
REMARK    2  A    between atoms: O_3  and  C_21 
REMARK    3  A    between atoms: N_6  and  C_9 
REMARK    4  A    between atoms: N_6  and  C_10 
REMARK       I    between atoms: N_6  and  C_11 
REMARK    5  A    between atoms: N_7  and  C_19 
REMARK    6  A    between atoms: C_11  and  C_15 
REMARK    7  A    between atoms: C_14  and  C_16 
ROOT
HETATM    1  N   UNK N   1      30.076  18.533   9.521  0.00  0.00    -0.191 NA
HETATM    2  C   UNK N   1      30.052  17.270   7.235  0.00  0.00     0.113 C 
HETATM    3  C   UNK N   1      31.179  16.752   6.772  0.00  0.00     0.040 C 
HETATM    4  C   UNK N   1      30.024  17.980   8.505  0.00  0.00     0.105 C 
ENDROOT
BRANCH   2   5
HETATM    5  C   UNK N   1      28.832  16.971   6.485  0.00  0.00     0.264 C 
HETATM    6  O   UNK N   1      28.576  15.795   6.235  0.00  0.00    -0.267 OA
HETATM    7  N   UNK N   1      27.995  17.952   6.055  0.00  0.00    -0.348 N 
BRANCH   7   8
HETATM    8  C   UNK N   1      26.815  17.583   5.323  0.00  0.00     0.121 C 
HETATM    9  C   UNK N   1      26.998  17.959   3.869  0.00  0.00     0.026 C 
ENDBRANCH   7   8
BRANCH   7  10
HETATM   10  C   UNK N   1      28.376  19.353   6.094  0.00  0.00     0.121 C 
HETATM   11  C   UNK N   1      27.369  20.194   6.858  0.00  0.00     0.026 C 
ENDBRANCH   7  10
ENDBRANCH   2   5
BRANCH   3  12
HETATM   12  C   UNK N   1      32.426  16.821   7.477  0.00  0.00    -0.029 A 
HETATM   13  C   UNK N   1      32.620  15.851   8.400  0.00  0.00     0.050 A 
HETATM   14  C   UNK N   1      33.647  15.946   9.307  0.00  0.00     0.139 A 
HETATM   15  C   UNK N   1      34.456  17.119   9.334  0.00  0.00     0.132 A 
HETATM   16  C   UNK N   1      34.274  18.094   8.346  0.00  0.00     0.102 A 
HETATM   17  C   UNK N   1      33.283  17.922   7.415  0.00  0.00     0.051 A 
BRANCH  14  18
HETATM   18  N   UNK N   1      33.886  14.810  10.105  0.00  0.00    -0.113 N 
HETATM   19  O   UNK N   1      34.380  13.730   9.530  0.00  0.00    -0.532 OA
HETATM   20  O   UNK N   1      33.979  14.927  11.286  0.00  0.00    -0.532 OA
ENDBRANCH  14  18
BRANCH  15  21
HETATM   21  O   UNK N   1      35.404  17.294  10.266  0.00  0.00    -0.356 OA
HETATM   22  H   UNK N   1      35.177  17.536  11.143  0.00  0.00     0.218 HD
ENDBRANCH  15  21
BRANCH  16  23
HETATM   23  O   UNK N   1      35.039  19.198   8.292  0.00  0.00    -0.358 OA
HETATM   24  H   UNK N   1      34.665  20.045   8.436  0.00  0.00     0.217 HD
ENDBRANCH  16  23
ENDBRANCH   3  12
TORSDOF 7
ENDMDL
MODEL 2
REMARK VINA RESULT:      -6.4      9.298     11.798
REMARK  7 active torsions:
REMARK  status: ('A' for Active; 'I' for Inactive)
REMARK    1  A    between atoms: O_2  and  C_20 
REMARK    2  A    between atoms: O_3  and  C_21 
REMARK    3  A    between atoms: N_6  and  C_9 
REMARK    4  A    between atoms: N_6  and  C_10 
REMARK       I    between atoms: N_6  and  C_11 
REMARK    5  A    between atoms: N_7  and  C_19 
REMARK    6  A    between atoms: C_11  and  C_15 
REMARK    7  A    between atoms: C_14  and  C_16 
ROOT
HETATM    1  N   UNK N   1      20.971  18.689   7.054  0.00  0.00    -0.191 NA
HETATM    2  C   UNK N   1      22.088  16.602   5.949  0.00  0.00     0.113 C 
HETATM    3  C   UNK N   1      22.192  16.547   4.631  0.00  0.00     0.040 C 
HETATM    4  C   UNK N   1      21.474  17.748   6.603  0.00  0.00     0.105 C 
ENDROOT
BRANCH   2   5
HETATM    5  C   UNK N   1      22.740  15.534   6.707  0.00  0.00     0.264 C 
HETATM    6  O   UNK N   1      23.944  15.353   6.539  0.00  0.00    -0.267 OA
HETATM    7  N   UNK N   1      22.051  14.742   7.571  0.00  0.00    -0.348 N 
BRANCH   7   8
HETATM    8  C   UNK N   1      22.760  13.712   8.280  0.00  0.00     0.121 C 
HETATM    9  C   UNK N   1      22.298  12.361   7.780  0.00  0.00     0.026 C 
ENDBRANCH   7   8
BRANCH   7  10
HETATM   10  C   UNK N   1      20.600  14.740   7.614  0.00  0.00     0.121 C 
HETATM   11  C   UNK N   1      20.071  15.178   8.968  0.00  0.00     0.026 C 
ENDBRANCH   7  10
ENDBRANCH   2   5
BRANCH   3  12
HETATM   12  C   UNK N   1      21.746  17.597   3.761  0.00  0.00    -0.029 A 
HETATM   13  C   UNK N   1      22.597  18.641   3.635  0.00  0.00     0.050 A 
HETATM   14  C   UNK N   1      22.187  19.808   3.039  0.00  0.00     0.139 A 
HETATM   15  C   UNK N   1      20.828  19.951   2.635  0.00  0.00     0.132 A 
HETATM   16  C   UNK N   1      19.969  18.850   2.729  0.00  0.00     0.102 A 
HETATM   17  C   UNK N   1      20.443  17.680   3.264  0.00  0.00     0.051 A 
BRANCH  14  18
HETATM   18  N   UNK N   1      23.186  20.768   2.785  0.00  0.00    -0.113 N 
HETATM   19  O   UNK N   1      24.179  20.444   1.978  0.00  0.00    -0.532 OA
HETATM   20  O   UNK N   1      22.966  21.919   2.994  0.00  0.00    -0.532 OA
ENDBRANCH  14  18
BRANCH  15  21
HETATM   21  O   UNK N   1      20.364  21.109   2.140  0.00  0.00    -0.356 OA
HETATM   22  H   UNK N   1      20.427  21.902   2.634  0.00  0.00     0.218 HD
ENDBRANCH  15  21
BRANCH  16  23
HETATM   23  O   UNK N   1      18.691  18.911   2.319  0.00  0.00    -0.358 OA
HETATM   24  H   UNK N   1      18.290  19.737   2.130  0.00  0.00     0.217 HD
ENDBRANCH  16  23
ENDBRANCH   3  12
TORSDOF 7
ENDMDL
MODEL 3
REMARK VINA RESULT:      -6.4      2.930      4.312
REMARK  7 active torsions:
REMARK  status: ('A' for Active; 'I' for Inactive)
REMARK    1  A    between atoms: O_2  and  C_20 
REMARK    2  A    between atoms: O_3  and  C_21 
REMARK    3  A    between atoms: N_6  and  C_9 
REMARK    4  A    between atoms: N_6  and  C_10 
REMARK       I    between atoms: N_6  and  C_11 
REMARK    5  A    between atoms: N_7  and  C_19 
REMARK    6  A    between atoms: C_11  and  C_15 
REMARK    7  A    between atoms: C_14  and  C_16 
ROOT
HETATM    1  N   UNK N   1      35.173  18.977   8.313  0.00  0.00    -0.191 NA
HETATM    2  C   UNK N   1      33.263  17.196   8.358  0.00  0.00     0.113 C 
HETATM    3  C   UNK N   1      33.495  16.015   8.908  0.00  0.00     0.040 C 
HETATM    4  C   UNK N   1      34.300  18.216   8.314  0.00  0.00     0.105 C 
ENDROOT
BRANCH   2   5
HETATM    5  C   UNK N   1      31.889  17.467   7.933  0.00  0.00     0.264 C 
HETATM    6  O   UNK N   1      31.088  17.868   8.774  0.00  0.00    -0.267 OA
HETATM    7  N   UNK N   1      31.484  17.276   6.650  0.00  0.00    -0.348 N 
BRANCH   7   8
HETATM    8  C   UNK N   1      30.118  17.563   6.306  0.00  0.00     0.121 C 
HETATM    9  C   UNK N   1      29.418  16.271   5.946  0.00  0.00     0.026 C 
ENDBRANCH   7   8
BRANCH   7  10
HETATM   10  C   UNK N   1      32.306  16.567   5.686  0.00  0.00     0.121 C 
HETATM   11  C   UNK N   1      32.926  17.506   4.667  0.00  0.00     0.026 C 
ENDBRANCH   7  10
ENDBRANCH   2   5
BRANCH   3  12
HETATM   12  C   UNK N   1      34.745  15.660   9.515  0.00  0.00    -0.029 A 
HETATM   13  C   UNK N   1      35.575  14.926   8.738  0.00  0.00     0.050 A 
HETATM   14  C   UNK N   1      36.680  14.316   9.279  0.00  0.00     0.139 A 
HETATM   15  C   UNK N   1      36.902  14.382  10.686  0.00  0.00     0.132 A 
HETATM   16  C   UNK N   1      36.062  15.180  11.472  0.00  0.00     0.102 A 
HETATM   17  C   UNK N   1      35.013  15.830  10.875  0.00  0.00     0.051 A 
BRANCH  14  18
HETATM   18  N   UNK N   1      37.583  13.733   8.369  0.00  0.00    -0.113 N 
HETATM   19  O   UNK N   1      37.147  13.415   7.165  0.00  0.00    -0.532 OA
HETATM   20  O   UNK N   1      38.755  13.848   8.546  0.00  0.00    -0.532 OA
ENDBRANCH  14  18
BRANCH  15  21
HETATM   21  O   UNK N   1      37.913  13.719  11.265  0.00  0.00    -0.356 OA
HETATM   22  H   UNK N   1      38.351  14.070  12.016  0.00  0.00     0.218 HD
ENDBRANCH  15  21
BRANCH  16  23
HETATM   23  O   UNK N   1      36.252  15.318  12.794  0.00  0.00    -0.358 OA
HETATM   24  H   UNK N   1      36.551  14.596  13.312  0.00  0.00     0.217 HD
ENDBRANCH  16  23
ENDBRANCH   3  12
TORSDOF 7
ENDMDL
MODEL 4
REMARK VINA RESULT:      -6.3     12.301     16.079
REMARK  7 active torsions:
REMARK  status: ('A' for Active; 'I' for Inactive)
REMARK    1  A    between atoms: O_2  and  C_20 
REMARK    2  A    between atoms: O_3  and  C_21 
REMARK    3  A    between atoms: N_6  and  C_9 
REMARK    4  A    between atoms: N_6  and  C_10 
REMARK       I    between atoms: N_6  and  C_11 
REMARK    5  A    between atoms: N_7  and  C_19 
REMARK    6  A    between atoms: C_11  and  C_15 
REMARK    7  A    between atoms: C_14  and  C_16 
ROOT
HETATM    1  N   UNK N   1      30.129  26.362  -4.410  0.00  0.00    -0.191 NA
HETATM    2  C   UNK N   1      29.404  24.134  -3.255  0.00  0.00     0.113 C 
HETATM    3  C   UNK N   1      28.118  23.826  -3.197  0.00  0.00     0.040 C 
HETATM    4  C   UNK N   1      29.848  25.365  -3.891  0.00  0.00     0.105 C 
ENDROOT
BRANCH   2   5
HETATM    5  C   UNK N   1      30.347  23.120  -2.782  0.00  0.00     0.264 C 
HETATM    6  O   UNK N   1      30.608  23.084  -1.581  0.00  0.00    -0.267 OA
HETATM    7  N   UNK N   1      30.940  22.240  -3.631  0.00  0.00    -0.348 N 
BRANCH   7   8
HETATM    8  C   UNK N   1      31.857  21.272  -3.094  0.00  0.00     0.121 C 
HETATM    9  C   UNK N   1      33.194  21.421  -3.786  0.00  0.00     0.026 C 
ENDBRANCH   7   8
BRANCH   7  10
HETATM   10  C   UNK N   1      30.870  22.402  -5.072  0.00  0.00     0.121 C 
HETATM   11  C   UNK N   1      29.903  21.420  -5.708  0.00  0.00     0.026 C 
ENDBRANCH   7  10
ENDBRANCH   2   5
BRANCH   3  12
HETATM   12  C   UNK N   1      27.085  24.643  -3.765  0.00  0.00    -0.029 A 
HETATM   13  C   UNK N   1      26.779  24.371  -5.055  0.00  0.00     0.050 A 
HETATM   14  C   UNK N   1      25.997  25.232  -5.783  0.00  0.00     0.139 A 
HETATM   15  C   UNK N   1      25.581  26.466  -5.204  0.00  0.00     0.132 A 
HETATM   16  C   UNK N   1      25.866  26.716  -3.857  0.00  0.00     0.102 A 
HETATM   17  C   UNK N   1      26.588  25.793  -3.147  0.00  0.00     0.051 A 
BRANCH  14  18
HETATM   18  N   UNK N   1      25.578  24.780  -7.050  0.00  0.00    -0.113 N 
HETATM   19  O   UNK N   1      25.846  25.525  -8.106  0.00  0.00    -0.532 OA
HETATM   20  O   UNK N   1      25.317  23.629  -7.208  0.00  0.00    -0.532 OA
ENDBRANCH  14  18
BRANCH  15  21
HETATM   21  O   UNK N   1      24.900  27.378  -5.914  0.00  0.00    -0.356 OA
HETATM   22  H   UNK N   1      23.977  27.487  -5.796  0.00  0.00     0.218 HD
ENDBRANCH  15  21
BRANCH  16  23
HETATM   23  O   UNK N   1      25.458  27.840  -3.244  0.00  0.00    -0.358 OA
HETATM   24  H   UNK N   1      25.499  28.666  -3.684  0.00  0.00     0.217 HD
ENDBRANCH  16  23
ENDBRANCH   3  12
TORSDOF 7
ENDMDL
MODEL 5
REMARK VINA RESULT:      -6.3      4.279      8.705
REMARK  7 active torsions:
REMARK  status: ('A' for Active; 'I' for Inactive)
REMARK    1  A    between atoms: O_2  and  C_20 
REMARK    2  A    between atoms: O_3  and  C_21 
REMARK    3  A    between atoms: N_6  and  C_9 
REMARK    4  A    between atoms: N_6  and  C_10 
REMARK       I    between atoms: N_6  and  C_11 
REMARK    5  A    between atoms: N_7  and  C_19 
REMARK    6  A    between atoms: C_11  and  C_15 
REMARK    7  A    between atoms: C_14  and  C_16 
ROOT
HETATM    1  N   UNK N   1      37.043  12.805  10.470  0.00  0.00    -0.191 NA
HETATM    2  C   UNK N   1      35.911  14.344  12.252  0.00  0.00     0.113 C 
HETATM    3  C   UNK N   1      35.000  15.221  11.861  0.00  0.00     0.040 C 
HETATM    4  C   UNK N   1      36.563  13.467  11.291  0.00  0.00     0.105 C 
ENDROOT
BRANCH   2   5
HETATM    5  C   UNK N   1      36.117  14.205  13.694  0.00  0.00     0.264 C 
HETATM    6  O   UNK N   1      36.803  15.048  14.267  0.00  0.00    -0.267 OA
HETATM    7  N   UNK N   1      35.584  13.172  14.399  0.00  0.00    -0.348 N 
BRANCH   7   8
HETATM    8  C   UNK N   1      35.830  13.100  15.813  0.00  0.00     0.121 C 
HETATM    9  C   UNK N   1      34.519  13.258  16.551  0.00  0.00     0.026 C 
ENDBRANCH   7   8
BRANCH   7  10
HETATM   10  C   UNK N   1      34.991  12.022  13.740  0.00  0.00     0.121 C 
HETATM   11  C   UNK N   1      35.756  10.744  14.031  0.00  0.00     0.026 C 
ENDBRANCH   7  10
ENDBRANCH   2   5
BRANCH   3  12
HETATM   12  C   UNK N   1      34.572  15.360  10.499  0.00  0.00    -0.029 A 
HETATM   13  C   UNK N   1      34.777  16.581   9.953  0.00  0.00     0.050 A 
HETATM   14  C   UNK N   1      34.192  16.916   8.756  0.00  0.00     0.139 A 
HETATM   15  C   UNK N   1      33.292  16.005   8.133  0.00  0.00     0.132 A 
HETATM   16  C   UNK N   1      33.123  14.729   8.684  0.00  0.00     0.102 A 
HETATM   17  C   UNK N   1      33.784  14.412   9.842  0.00  0.00     0.051 A 
BRANCH  14  18
HETATM   18  N   UNK N   1      34.607  18.130   8.174  0.00  0.00    -0.113 N 
HETATM   19  O   UNK N   1      35.380  18.935   8.879  0.00  0.00    -0.532 OA
HETATM   20  O   UNK N   1      34.564  18.262   6.992  0.00  0.00    -0.532 OA
ENDBRANCH  14  18
BRANCH  15  21
HETATM   21  O   UNK N   1      32.626  16.334   7.016  0.00  0.00    -0.356 OA
HETATM   22  H   UNK N   1      32.856  17.099   6.526  0.00  0.00     0.218 HD
ENDBRANCH  15  21
BRANCH  16  23
HETATM   23  O   UNK N   1      32.325  13.812   8.114  0.00  0.00    -0.358 OA
HETATM   24  H   UNK N   1      31.990  13.942   7.249  0.00  0.00     0.217 HD
ENDBRANCH  16  23
ENDBRANCH   3  12
TORSDOF 7
ENDMDL
MODEL 6
REMARK VINA RESULT:      -6.2      1.906      2.784
REMARK  7 active torsions:
REMARK  status: ('A' for Active; 'I' for Inactive)
REMARK    1  A    between atoms: O_2  and  C_20 
REMARK    2  A    between atoms: O_3  and  C_21 
REMARK    3  A    between atoms: N_6  and  C_9 
REMARK    4  A    between atoms: N_6  and  C_10 
REMARK       I    between atoms: N_6  and  C_11 
REMARK    5  A    between atoms: N_7  and  C_19 
REMARK    6  A    between atoms: C_11  and  C_15 
REMARK    7  A    between atoms: C_14  and  C_16 
ROOT
HETATM    1  N   UNK N   1      33.109  16.678   4.210  0.00  0.00    -0.191 NA
HETATM    2  C   UNK N   1      31.032  16.989   5.763  0.00  0.00     0.113 C 
HETATM    3  C   UNK N   1      31.212  17.078   7.071  0.00  0.00     0.040 C 
HETATM    4  C   UNK N   1      32.163  16.817   4.864  0.00  0.00     0.105 C 
ENDROOT
BRANCH   2   5
HETATM    5  C   UNK N   1      29.674  17.212   5.268  0.00  0.00     0.264 C 
HETATM    6  O   UNK N   1      29.280  18.370   5.149  0.00  0.00    -0.267 OA
HETATM    7  N   UNK N   1      28.846  16.181   4.953  0.00  0.00    -0.348 N 
BRANCH   7   8
HETATM    8  C   UNK N   1      27.524  16.476   4.473  0.00  0.00     0.121 C 
HETATM    9  C   UNK N   1      26.515  16.080   5.528  0.00  0.00     0.026 C 
ENDBRANCH   7   8
BRANCH   7  10
HETATM   10  C   UNK N   1      29.160  14.810   5.315  0.00  0.00     0.121 C 
HETATM   11  C   UNK N   1      29.470  13.958   4.098  0.00  0.00     0.026 C 
ENDBRANCH   7  10
ENDBRANCH   2   5
BRANCH   3  12
HETATM   12  C   UNK N   1      32.504  17.043   7.694  0.00  0.00    -0.029 A 
HETATM   13  C   UNK N   1      32.703  16.013   8.549  0.00  0.00     0.050 A 
HETATM   14  C   UNK N   1      33.789  16.004   9.390  0.00  0.00     0.139 A 
HETATM   15  C   UNK N   1      34.662  17.130   9.424  0.00  0.00     0.132 A 
HETATM   16  C   UNK N   1      34.472  18.168   8.503  0.00  0.00     0.102 A 
HETATM   17  C   UNK N   1      33.415  18.100   7.633  0.00  0.00     0.051 A 
BRANCH  14  18
HETATM   18  N   UNK N   1      34.016  14.814  10.108  0.00  0.00    -0.113 N 
HETATM   19  O   UNK N   1      34.164  14.887  11.417  0.00  0.00    -0.532 OA
HETATM   20  O   UNK N   1      33.735  13.766   9.617  0.00  0.00    -0.532 OA
ENDBRANCH  14  18
BRANCH  15  21
HETATM   21  O   UNK N   1      35.676  17.203  10.298  0.00  0.00    -0.356 OA
HETATM   22  H   UNK N   1      36.269  17.929  10.288  0.00  0.00     0.218 HD
ENDBRANCH  15  21
BRANCH  16  23
HETATM   23  O   UNK N   1      35.291  19.231   8.456  0.00  0.00    -0.358 OA
HETATM   24  H   UNK N   1      34.997  20.045   8.098  0.00  0.00     0.217 HD
ENDBRANCH  16  23
ENDBRANCH   3  12
TORSDOF 7
ENDMDL
MODEL 7
REMARK VINA RESULT:      -6.2      4.118      7.084
REMARK  7 active torsions:
REMARK  status: ('A' for Active; 'I' for Inactive)
REMARK    1  A    between atoms: O_2  and  C_20 
REMARK    2  A    between atoms: O_3  and  C_21 
REMARK    3  A    between atoms: N_6  and  C_9 
REMARK    4  A    between atoms: N_6  and  C_10 
REMARK       I    between atoms: N_6  and  C_11 
REMARK    5  A    between atoms: N_7  and  C_19 
REMARK    6  A    between atoms: C_11  and  C_15 
REMARK    7  A    between atoms: C_14  and  C_16 
ROOT
HETATM    1  N   UNK N   1      37.628  14.071   9.729  0.00  0.00    -0.191 NA
HETATM    2  C   UNK N   1      35.570  15.525  10.420  0.00  0.00     0.113 C 
HETATM    3  C   UNK N   1      35.000  15.319  11.597  0.00  0.00     0.040 C 
HETATM    4  C   UNK N   1      36.719  14.738   9.999  0.00  0.00     0.105 C 
ENDROOT
BRANCH   2   5
HETATM    5  C   UNK N   1      35.081  16.663   9.641  0.00  0.00     0.264 C 
HETATM    6  O   UNK N   1      35.442  17.791   9.970  0.00  0.00    -0.267 OA
HETATM    7  N   UNK N   1      34.240  16.502   8.585  0.00  0.00    -0.348 N 
BRANCH   7   8
HETATM    8  C   UNK N   1      33.800  17.667   7.867  0.00  0.00     0.121 C 
HETATM    9  C   UNK N   1      32.364  17.962   8.238  0.00  0.00     0.026 C 
ENDBRANCH   7   8
BRANCH   7  10
HETATM   10  C   UNK N   1      33.584  15.235   8.317  0.00  0.00     0.121 C 
HETATM   11  C   UNK N   1      33.845  14.748   6.903  0.00  0.00     0.026 C 
ENDBRANCH   7  10
ENDBRANCH   2   5
BRANCH   3  12
HETATM   12  C   UNK N   1      35.472  14.348  12.541  0.00  0.00    -0.029 A 
HETATM   13  C   UNK N   1      34.753  13.203  12.597  0.00  0.00     0.050 A 
HETATM   14  C   UNK N   1      34.944  12.308  13.621  0.00  0.00     0.139 A 
HETATM   15  C   UNK N   1      35.841  12.632  14.681  0.00  0.00     0.132 A 
HETATM   16  C   UNK N   1      36.611  13.798  14.589  0.00  0.00     0.102 A 
HETATM   17  C   UNK N   1      36.438  14.626  13.510  0.00  0.00     0.051 A 
BRANCH  14  18
HETATM   18  N   UNK N   1      34.291  11.066  13.499  0.00  0.00    -0.113 N 
HETATM   19  O   UNK N   1      33.516  10.662  14.486  0.00  0.00    -0.532 OA
HETATM   20  O   UNK N   1      34.159  10.573  12.423  0.00  0.00    -0.532 OA
ENDBRANCH  14  18
BRANCH  15  21
HETATM   21  O   UNK N   1      35.982  11.831  15.747  0.00  0.00    -0.356 OA
HETATM   22  H   UNK N   1      35.483  11.977  16.527  0.00  0.00     0.218 HD
ENDBRANCH  15  21
BRANCH  16  23
HETATM   23  O   UNK N   1      37.506  14.130  15.533  0.00  0.00    -0.358 OA
HETATM   24  H   UNK N   1      37.422  14.932  16.010  0.00  0.00     0.217 HD
ENDBRANCH  16  23
ENDBRANCH   3  12
TORSDOF 7
ENDMDL
MODEL 8
REMARK VINA RESULT:      -6.1     12.175     15.948
REMARK  7 active torsions:
REMARK  status: ('A' for Active; 'I' for Inactive)
REMARK    1  A    between atoms: O_2  and  C_20 
REMARK    2  A    between atoms: O_3  and  C_21 
REMARK    3  A    between atoms: N_6  and  C_9 
REMARK    4  A    between atoms: N_6  and  C_10 
REMARK       I    between atoms: N_6  and  C_11 
REMARK    5  A    between atoms: N_7  and  C_19 
REMARK    6  A    between atoms: C_11  and  C_15 
REMARK    7  A    between atoms: C_14  and  C_16 
ROOT
HETATM    1  N   UNK N   1      30.890  25.857  -5.052  0.00  0.00    -0.191 NA
HETATM    2  C   UNK N   1      29.909  23.947  -3.565  0.00  0.00     0.113 C 
HETATM    3  C   UNK N   1      28.599  23.769  -3.523  0.00  0.00     0.040 C 
HETATM    4  C   UNK N   1      30.495  24.998  -4.382  0.00  0.00     0.105 C 
ENDROOT
BRANCH   2   5
HETATM    5  C   UNK N   1      30.731  22.955  -2.871  0.00  0.00     0.264 C 
HETATM    6  O   UNK N   1      30.842  23.042  -1.650  0.00  0.00    -0.267 OA
HETATM    7  N   UNK N   1      31.375  21.962  -3.539  0.00  0.00    -0.348 N 
BRANCH   7   8
HETATM    8  C   UNK N   1      32.166  21.023  -2.791  0.00  0.00     0.121 C 
HETATM    9  C   UNK N   1      33.570  21.000  -3.354  0.00  0.00     0.026 C 
ENDBRANCH   7   8
BRANCH   7  10
HETATM   10  C   UNK N   1      31.491  21.964  -4.987  0.00  0.00     0.121 C 
HETATM   11  C   UNK N   1      30.538  20.977  -5.635  0.00  0.00     0.026 C 
ENDBRANCH   7  10
ENDBRANCH   2   5
BRANCH   3  12
HETATM   12  C   UNK N   1      27.672  24.560  -4.280  0.00  0.00    -0.029 A 
HETATM   13  C   UNK N   1      27.228  25.678  -3.661  0.00  0.00     0.050 A 
HETATM   14  C   UNK N   1      26.162  26.380  -4.167  0.00  0.00     0.139 A 
HETATM   15  C   UNK N   1      25.461  25.875  -5.301  0.00  0.00     0.132 A 
HETATM   16  C   UNK N   1      25.956  24.743  -5.959  0.00  0.00     0.102 A 
HETATM   17  C   UNK N   1      27.068  24.116  -5.459  0.00  0.00     0.051 A 
BRANCH  14  18
HETATM   18  N   UNK N   1      25.889  27.625  -3.568  0.00  0.00    -0.113 N 
HETATM   19  O   UNK N   1      26.333  27.847  -2.345  0.00  0.00    -0.532 OA
HETATM   20  O   UNK N   1      25.588  28.554  -4.249  0.00  0.00    -0.532 OA
ENDBRANCH  14  18
BRANCH  15  21
HETATM   21  O   UNK N   1      24.357  26.477  -5.766  0.00  0.00    -0.356 OA
HETATM   22  H   UNK N   1      24.354  27.394  -5.958  0.00  0.00     0.218 HD
ENDBRANCH  15  21
BRANCH  16  23
HETATM   23  O   UNK N   1      25.366  24.249  -7.060  0.00  0.00    -0.358 OA
HETATM   24  H   UNK N   1      25.120  24.816  -7.764  0.00  0.00     0.217 HD
ENDBRANCH  16  23
ENDBRANCH   3  12
TORSDOF 7
ENDMDL
MODEL 9
REMARK VINA RESULT:      -6.1     10.103     12.625
REMARK  7 active torsions:
REMARK  status: ('A' for Active; 'I' for Inactive)
REMARK    1  A    between atoms: O_2  and  C_20 
REMARK    2  A    between atoms: O_3  and  C_21 
REMARK    3  A    between atoms: N_6  and  C_9 
REMARK    4  A    between atoms: N_6  and  C_10 
REMARK       I    between atoms: N_6  and  C_11 
REMARK    5  A    between atoms: N_7  and  C_19 
REMARK    6  A    between atoms: C_11  and  C_15 
REMARK    7  A    between atoms: C_14  and  C_16 
ROOT
HETATM    1  N   UNK N   1      18.077  15.888   5.471  0.00  0.00    -0.191 NA
HETATM    2  C   UNK N   1      20.560  16.164   6.235  0.00  0.00     0.113 C 
HETATM    3  C   UNK N   1      21.368  16.944   5.535  0.00  0.00     0.040 C 
HETATM    4  C   UNK N   1      19.170  15.986   5.843  0.00  0.00     0.105 C 
ENDROOT
BRANCH   2   5
HETATM    5  C   UNK N   1      21.091  15.616   7.484  0.00  0.00     0.264 C 
HETATM    6  O   UNK N   1      21.112  16.341   8.476  0.00  0.00    -0.267 OA
HETATM    7  N   UNK N   1      21.567  14.345   7.564  0.00  0.00    -0.348 N 
BRANCH   7   8
HETATM    8  C   UNK N   1      22.074  13.875   8.825  0.00  0.00     0.121 C 
HETATM    9  C   UNK N   1      23.466  13.319   8.620  0.00  0.00     0.026 C 
ENDBRANCH   7   8
BRANCH   7  10
HETATM   10  C   UNK N   1      21.805  13.541   6.379  0.00  0.00     0.121 C 
HETATM   11  C   UNK N   1      20.742  12.474   6.194  0.00  0.00     0.026 C 
ENDBRANCH   7  10
ENDBRANCH   2   5
BRANCH   3  12
HETATM   12  C   UNK N   1      20.947  17.680   4.378  0.00  0.00    -0.029 A 
HETATM   13  C   UNK N   1      20.906  16.970   3.227  0.00  0.00     0.050 A 
HETATM   14  C   UNK N   1      20.764  17.607   2.019  0.00  0.00     0.139 A 
HETATM   15  C   UNK N   1      20.751  19.031   1.971  0.00  0.00     0.132 A 
HETATM   16  C   UNK N   1      20.748  19.753   3.171  0.00  0.00     0.102 A 
HETATM   17  C   UNK N   1      20.818  19.070   4.358  0.00  0.00     0.051 A 
BRANCH  14  18
HETATM   18  N   UNK N   1      20.545  16.783   0.897  0.00  0.00    -0.113 N 
HETATM   19  O   UNK N   1      20.229  17.352  -0.250  0.00  0.00    -0.532 OA
HETATM   20  O   UNK N   1      20.969  15.670   0.892  0.00  0.00    -0.532 OA
ENDBRANCH  14  18
BRANCH  15  21
HETATM   21  O   UNK N   1      20.712  19.692   0.805  0.00  0.00    -0.356 OA
HETATM   22  H   UNK N   1      20.270  20.515   0.733  0.00  0.00     0.218 HD
ENDBRANCH  15  21
BRANCH  16  23
HETATM   23  O   UNK N   1      20.688  21.095   3.190  0.00  0.00    -0.358 OA
HETATM   24  H   UNK N   1      20.483  21.574   2.412  0.00  0.00     0.217 HD
ENDBRANCH  16  23
ENDBRANCH   3  12
TORSDOF 7
ENDMDL
