MODEL 1
REMARK VINA RESULT:      -7.2      0.000      0.000
REMARK  7 active torsions:
REMARK  status: ('A' for Active; 'I' for Inactive)
REMARK    1  A    between atoms: N_3  and  C_10 
REMARK       I    between atoms: N_4  and  C_13 
REMARK    2  A    between atoms: C_5  and  C_6 
REMARK    3  A    between atoms: C_6  and  C_11 
REMARK    4  A    between atoms: C_6  and  C_12 
REMARK    5  A    between atoms: C_6  and  C_13 
REMARK    6  A    between atoms: C_10  and  C_14 
REMARK    7  A    between atoms: C_14  and  C_19 
ROOT
HETATM    1  C   UNK N   1      28.976  22.410  -6.490  0.00  0.00     0.100 C 
ENDROOT
BRANCH   1   2
HETATM    2  C   UNK N   1      27.625  22.853  -7.143  0.00  0.00     0.042 C 
HETATM    3  C   UNK N   1      26.483  21.931  -7.473  0.00  0.00     0.038 C 
HETATM    4  C   UNK N   1      25.546  22.858  -8.257  0.00  0.00     0.273 C 
HETATM    5  N   UNK N   1      26.255  24.121  -8.550  0.00  0.00     0.089 N 
HETATM    6  C   UNK N   1      27.645  23.889  -8.248  0.00  0.00     0.279 C 
BRANCH   5   7
HETATM    7  C   UNK N   1      25.850  25.231  -7.681  0.00  0.00     0.277 C 
BRANCH   7   8
HETATM    8  C   UNK N   1      26.757  26.470  -7.767  0.00  0.00     0.068 C 
BRANCH   8   9
HETATM    9  C   UNK N   1      26.492  27.337  -6.594  0.00  0.00    -0.056 A 
HETATM   10  C   UNK N   1      27.363  28.404  -6.311  0.00  0.00     0.017 A 
HETATM   11  C   UNK N   1      27.172  29.126  -5.154  0.00  0.00    -0.022 A 
HETATM   12  C   UNK N   1      26.167  28.840  -4.302  0.00  0.00     0.075 A 
HETATM   13  C   UNK N   1      27.992  30.233  -4.636  0.00  0.00     0.068 A 
HETATM   14  O   UNK N   1      26.188  29.633  -3.238  0.00  0.00    -0.350 OA
HETATM   15  C   UNK N   1      25.255  27.810  -4.552  0.00  0.00     0.038 A 
HETATM   16  C   UNK N   1      27.255  30.521  -3.297  0.00  0.00     0.180 A 
HETATM   17  C   UNK N   1      25.431  27.041  -5.716  0.00  0.00     0.010 A 
ENDBRANCH   8   9
ENDBRANCH   7   8
ENDBRANCH   5   7
ENDBRANCH   1   2
BRANCH   1  18
HETATM   18  C   UNK N   1      30.222  21.978  -5.710  0.00  0.00    -0.035 A 
HETATM   19  C   UNK N   1      31.513  22.226  -6.206  0.00  0.00     0.009 A 
HETATM   20  C   UNK N   1      32.633  21.868  -5.449  0.00  0.00     0.001 A 
HETATM   21  C   UNK N   1      32.476  21.266  -4.197  0.00  0.00     0.000 A 
HETATM   22  C   UNK N   1      31.199  21.018  -3.692  0.00  0.00     0.001 A 
HETATM   23  C   UNK N   1      30.079  21.377  -4.437  0.00  0.00     0.009 A 
ENDBRANCH   1  18
BRANCH   1  24
HETATM   24  C   UNK N   1      28.762  23.649  -5.571  0.00  0.00    -0.035 A 
HETATM   25  C   UNK N   1      27.662  23.661  -4.679  0.00  0.00     0.009 A 
HETATM   26  C   UNK N   1      27.440  24.745  -3.827  0.00  0.00     0.001 A 
HETATM   27  C   UNK N   1      28.306  25.838  -3.850  0.00  0.00     0.000 A 
HETATM   28  C   UNK N   1      29.400  25.849  -4.719  0.00  0.00     0.001 A 
HETATM   29  C   UNK N   1      29.637  24.763  -5.573  0.00  0.00     0.009 A 
ENDBRANCH   1  24
BRANCH   1  30
HETATM   30  C   UNK N   1      29.242  21.378  -7.617  0.00  0.00     0.233 C 
HETATM   31  O   UNK N   1      29.641  21.750  -8.716  0.00  0.00    -0.272 OA
HETATM   32  N   UNK N   1      29.009  20.061  -7.420  0.00  0.00    -0.369 N 
HETATM   33  H   UNK N   1      29.306  19.130  -7.301  0.00  0.00     0.159 HD
HETATM   34  H   UNK N   1      28.027  20.002  -7.371  0.00  0.00     0.159 HD
ENDBRANCH   1  30
TORSDOF 7
ENDMDL
MODEL 2
REMARK VINA RESULT:      -7.1     11.257     13.271
REMARK  7 active torsions:
REMARK  status: ('A' for Active; 'I' for Inactive)
REMARK    1  A    between atoms: N_3  and  C_10 
REMARK       I    between atoms: N_4  and  C_13 
REMARK    2  A    between atoms: C_5  and  C_6 
REMARK    3  A    between atoms: C_6  and  C_11 
REMARK    4  A    between atoms: C_6  and  C_12 
REMARK    5  A    between atoms: C_6  and  C_13 
REMARK    6  A    between atoms: C_10  and  C_14 
REMARK    7  A    between atoms: C_14  and  C_19 
ROOT
HETATM    1  C   UNK N   1      29.652  16.321   5.362  0.00  0.00     0.100 C 
ENDROOT
BRANCH   1   2
HETATM    2  C   UNK N   1      28.216  15.853   4.956  0.00  0.00     0.042 C 
HETATM    3  C   UNK N   1      27.359  14.909   5.755  0.00  0.00     0.038 C 
HETATM    4  C   UNK N   1      26.186  14.662   4.799  0.00  0.00     0.273 C 
HETATM    5  N   UNK N   1      26.518  15.229   3.475  0.00  0.00     0.089 N 
HETATM    6  C   UNK N   1      27.926  15.535   3.504  0.00  0.00     0.279 C 
BRANCH   5   7
HETATM    7  C   UNK N   1      25.849  16.506   3.205  0.00  0.00     0.277 C 
BRANCH   7   8
HETATM    8  C   UNK N   1      25.189  17.151   4.434  0.00  0.00     0.068 C 
BRANCH   8   9
HETATM    9  C   UNK N   1      24.407  18.331   3.991  0.00  0.00    -0.056 A 
HETATM   10  C   UNK N   1      23.003  18.296   4.057  0.00  0.00     0.017 A 
HETATM   11  C   UNK N   1      22.289  19.350   3.533  0.00  0.00    -0.022 A 
HETATM   12  C   UNK N   1      22.905  20.412   2.975  0.00  0.00     0.075 A 
HETATM   13  C   UNK N   1      20.827  19.492   3.442  0.00  0.00     0.068 A 
HETATM   14  O   UNK N   1      22.031  21.292   2.503  0.00  0.00    -0.350 OA
HETATM   15  C   UNK N   1      24.298  20.510   2.912  0.00  0.00     0.038 A 
HETATM   16  C   UNK N   1      20.727  20.857   2.703  0.00  0.00     0.180 A 
HETATM   17  C   UNK N   1      25.059  19.443   3.422  0.00  0.00     0.010 A 
ENDBRANCH   8   9
ENDBRANCH   7   8
ENDBRANCH   5   7
ENDBRANCH   1   2
BRANCH   1  18
HETATM   18  C   UNK N   1      30.994  16.830   5.897  0.00  0.00    -0.035 A 
HETATM   19  C   UNK N   1      31.258  16.875   7.276  0.00  0.00     0.009 A 
HETATM   20  C   UNK N   1      32.510  17.295   7.735  0.00  0.00     0.001 A 
HETATM   21  C   UNK N   1      33.506  17.669   6.827  0.00  0.00     0.000 A 
HETATM   22  C   UNK N   1      33.258  17.624   5.454  0.00  0.00     0.001 A 
HETATM   23  C   UNK N   1      32.016  17.202   4.990  0.00  0.00     0.009 A 
ENDBRANCH   1  18
BRANCH   1  24
HETATM   24  C   UNK N   1      28.964  17.693   5.625  0.00  0.00    -0.035 A 
HETATM   25  C   UNK N   1      28.807  18.601   4.549  0.00  0.00     0.009 A 
HETATM   26  C   UNK N   1      28.184  19.837   4.736  0.00  0.00     0.001 A 
HETATM   27  C   UNK N   1      27.709  20.194   5.998  0.00  0.00     0.000 A 
HETATM   28  C   UNK N   1      27.849  19.314   7.075  0.00  0.00     0.001 A 
HETATM   29  C   UNK N   1      28.465  18.068   6.897  0.00  0.00     0.009 A 
ENDBRANCH   1  24
BRANCH   1  30
HETATM   30  C   UNK N   1      30.289  15.019   4.812  0.00  0.00     0.233 C 
HETATM   31  O   UNK N   1      30.516  14.898   3.613  0.00  0.00    -0.272 OA
HETATM   32  N   UNK N   1      30.573  13.985   5.637  0.00  0.00    -0.369 N 
HETATM   33  H   UNK N   1      31.201  13.396   6.114  0.00  0.00     0.159 HD
HETATM   34  H   UNK N   1      29.688  13.640   5.894  0.00  0.00     0.159 HD
ENDBRANCH   1  30
TORSDOF 7
ENDMDL
MODEL 3
REMARK VINA RESULT:      -6.9     11.192     15.358
REMARK  7 active torsions:
REMARK  status: ('A' for Active; 'I' for Inactive)
REMARK    1  A    between atoms: N_3  and  C_10 
REMARK       I    between atoms: N_4  and  C_13 
REMARK    2  A    between atoms: C_5  and  C_6 
REMARK    3  A    between atoms: C_6  and  C_11 
REMARK    4  A    between atoms: C_6  and  C_12 
REMARK    5  A    between atoms: C_6  and  C_13 
REMARK    6  A    between atoms: C_10  and  C_14 
REMARK    7  A    between atoms: C_14  and  C_19 
ROOT
HETATM    1  C   UNK N   1      27.469  18.943   6.185  0.00  0.00     0.100 C 
ENDROOT
BRANCH   1   2
HETATM    2  C   UNK N   1      28.320  18.400   7.380  0.00  0.00     0.042 C 
HETATM    3  C   UNK N   1      27.782  18.087   8.749  0.00  0.00     0.038 C 
HETATM    4  C   UNK N   1      29.067  17.800   9.535  0.00  0.00     0.273 C 
HETATM    5  N   UNK N   1      30.231  18.185   8.709  0.00  0.00     0.089 N 
HETATM    6  C   UNK N   1      29.712  18.953   7.606  0.00  0.00     0.279 C 
BRANCH   5   7
HETATM    7  C   UNK N   1      30.915  17.040   8.097  0.00  0.00     0.277 C 
BRANCH   7   8
HETATM    8  C   UNK N   1      32.266  17.380   7.446  0.00  0.00     0.068 C 
BRANCH   8   9
HETATM    9  C   UNK N   1      32.303  16.785   6.088  0.00  0.00    -0.056 A 
HETATM   10  C   UNK N   1      32.050  15.411   5.928  0.00  0.00     0.017 A 
HETATM   11  C   UNK N   1      32.205  14.851   4.679  0.00  0.00    -0.022 A 
HETATM   12  C   UNK N   1      32.577  15.591   3.615  0.00  0.00     0.075 A 
HETATM   13  C   UNK N   1      32.052  13.437   4.300  0.00  0.00     0.068 A 
HETATM   14  O   UNK N   1      32.700  14.849   2.522  0.00  0.00    -0.350 OA
HETATM   15  C   UNK N   1      32.810  16.966   3.715  0.00  0.00     0.038 A 
HETATM   16  C   UNK N   1      32.426  13.513   2.792  0.00  0.00     0.180 A 
HETATM   17  C   UNK N   1      32.680  17.568   4.979  0.00  0.00     0.010 A 
ENDBRANCH   8   9
ENDBRANCH   7   8
ENDBRANCH   5   7
ENDBRANCH   1   2
BRANCH   1  18
HETATM   18  C   UNK N   1      26.557  19.335   5.018  0.00  0.00    -0.035 A 
HETATM   19  C   UNK N   1      25.236  18.864   4.936  0.00  0.00     0.009 A 
HETATM   20  C   UNK N   1      24.410  19.280   3.888  0.00  0.00     0.001 A 
HETATM   21  C   UNK N   1      24.890  20.166   2.919  0.00  0.00     0.000 A 
HETATM   22  C   UNK N   1      26.199  20.644   2.991  0.00  0.00     0.001 A 
HETATM   23  C   UNK N   1      27.026  20.239   4.034  0.00  0.00     0.009 A 
ENDBRANCH   1  18
BRANCH   1  24
HETATM   24  C   UNK N   1      27.893  17.620   5.482  0.00  0.00    -0.035 A 
HETATM   25  C   UNK N   1      27.451  16.385   6.016  0.00  0.00     0.009 A 
HETATM   26  C   UNK N   1      27.795  15.175   5.411  0.00  0.00     0.001 A 
HETATM   27  C   UNK N   1      28.588  15.170   4.264  0.00  0.00     0.000 A 
HETATM   28  C   UNK N   1      29.034  16.375   3.714  0.00  0.00     0.001 A 
HETATM   29  C   UNK N   1      28.688  17.596   4.310  0.00  0.00     0.009 A 
ENDBRANCH   1  24
BRANCH   1  30
HETATM   30  C   UNK N   1      27.333  20.338   6.848  0.00  0.00     0.233 C 
HETATM   31  O   UNK N   1      28.092  21.249   6.535  0.00  0.00    -0.272 OA
HETATM   32  N   UNK N   1      26.401  20.564   7.801  0.00  0.00    -0.369 N 
HETATM   33  H   UNK N   1      25.569  20.976   8.128  0.00  0.00     0.159 HD
HETATM   34  H   UNK N   1      26.725  20.046   8.573  0.00  0.00     0.159 HD
ENDBRANCH   1  30
TORSDOF 7
ENDMDL
MODEL 4
REMARK VINA RESULT:      -6.6     12.150     15.921
REMARK  7 active torsions:
REMARK  status: ('A' for Active; 'I' for Inactive)
REMARK    1  A    between atoms: N_3  and  C_10 
REMARK       I    between atoms: N_4  and  C_13 
REMARK    2  A    between atoms: C_5  and  C_6 
REMARK    3  A    between atoms: C_6  and  C_11 
REMARK    4  A    between atoms: C_6  and  C_12 
REMARK    5  A    between atoms: C_6  and  C_13 
REMARK    6  A    between atoms: C_10  and  C_14 
REMARK    7  A    between atoms: C_14  and  C_19 
ROOT
HETATM    1  C   UNK N   1      26.924  18.781   5.666  0.00  0.00     0.100 C 
ENDROOT
BRANCH   1   2
HETATM    2  C   UNK N   1      28.011  18.197   6.628  0.00  0.00     0.042 C 
HETATM    3  C   UNK N   1      27.973  18.292   8.129  0.00  0.00     0.038 C 
HETATM    4  C   UNK N   1      29.354  17.746   8.514  0.00  0.00     0.273 C 
HETATM    5  N   UNK N   1      30.174  17.611   7.292  0.00  0.00     0.089 N 
HETATM    6  C   UNK N   1      29.472  18.316   6.249  0.00  0.00     0.279 C 
BRANCH   5   7
HETATM    7  C   UNK N   1      30.287  16.228   6.817  0.00  0.00     0.277 C 
BRANCH   7   8
HETATM    8  C   UNK N   1      31.650  15.876   6.200  0.00  0.00     0.068 C 
BRANCH   8   9
HETATM    9  C   UNK N   1      32.721  16.341   7.115  0.00  0.00    -0.056 A 
HETATM   10  C   UNK N   1      33.065  15.558   8.232  0.00  0.00     0.017 A 
HETATM   11  C   UNK N   1      33.976  16.058   9.135  0.00  0.00    -0.022 A 
HETATM   12  C   UNK N   1      34.550  17.266   8.963  0.00  0.00     0.075 A 
HETATM   13  C   UNK N   1      34.432  15.441  10.391  0.00  0.00     0.068 A 
HETATM   14  O   UNK N   1      35.366  17.566   9.965  0.00  0.00    -0.350 OA
HETATM   15  C   UNK N   1      34.266  18.069   7.855  0.00  0.00     0.038 A 
HETATM   16  C   UNK N   1      35.383  16.554  10.917  0.00  0.00     0.180 A 
HETATM   17  C   UNK N   1      33.326  17.598   6.921  0.00  0.00     0.010 A 
ENDBRANCH   8   9
ENDBRANCH   7   8
ENDBRANCH   5   7
ENDBRANCH   1   2
BRANCH   1  18
HETATM   18  C   UNK N   1      25.773  19.222   4.756  0.00  0.00    -0.035 A 
HETATM   19  C   UNK N   1      25.977  20.155   3.725  0.00  0.00     0.009 A 
HETATM   20  C   UNK N   1      24.921  20.500   2.877  0.00  0.00     0.001 A 
HETATM   21  C   UNK N   1      23.660  19.920   3.047  0.00  0.00     0.000 A 
HETATM   22  C   UNK N   1      23.446  18.990   4.064  0.00  0.00     0.001 A 
HETATM   23  C   UNK N   1      24.494  18.637   4.909  0.00  0.00     0.009 A 
ENDBRANCH   1  18
BRANCH   1  24
HETATM   24  C   UNK N   1      27.022  17.395   4.963  0.00  0.00    -0.035 A 
HETATM   25  C   UNK N   1      27.565  17.323   3.657  0.00  0.00     0.009 A 
HETATM   26  C   UNK N   1      27.685  16.101   2.994  0.00  0.00     0.001 A 
HETATM   27  C   UNK N   1      27.262  14.926   3.616  0.00  0.00     0.000 A 
HETATM   28  C   UNK N   1      26.724  14.970   4.906  0.00  0.00     0.001 A 
HETATM   29  C   UNK N   1      26.608  16.191   5.583  0.00  0.00     0.009 A 
ENDBRANCH   1  24
BRANCH   1  30
HETATM   30  C   UNK N   1      27.098  20.207   6.250  0.00  0.00     0.233 C 
HETATM   31  O   UNK N   1      28.011  20.928   5.863  0.00  0.00    -0.272 OA
HETATM   32  N   UNK N   1      26.270  20.666   7.216  0.00  0.00    -0.369 N 
HETATM   33  H   UNK N   1      25.551  21.254   7.543  0.00  0.00     0.159 HD
HETATM   34  H   UNK N   1      26.514  20.133   8.007  0.00  0.00     0.159 HD
ENDBRANCH   1  30
TORSDOF 7
ENDMDL
MODEL 5
REMARK VINA RESULT:      -6.6     11.547     14.411
REMARK  7 active torsions:
REMARK  status: ('A' for Active; 'I' for Inactive)
REMARK    1  A    between atoms: N_3  and  C_10 
REMARK       I    between atoms: N_4  and  C_13 
REMARK    2  A    between atoms: C_5  and  C_6 
REMARK    3  A    between atoms: C_6  and  C_11 
REMARK    4  A    between atoms: C_6  and  C_12 
REMARK    5  A    between atoms: C_6  and  C_13 
REMARK    6  A    between atoms: C_10  and  C_14 
REMARK    7  A    between atoms: C_14  and  C_19 
ROOT
HETATM    1  C   UNK N   1      24.793  16.929   3.910  0.00  0.00     0.100 C 
ENDROOT
BRANCH   1   2
HETATM    2  C   UNK N   1      26.132  16.385   3.312  0.00  0.00     0.042 C 
HETATM    3  C   UNK N   1      26.253  15.622   2.021  0.00  0.00     0.038 C 
HETATM    4  C   UNK N   1      27.723  15.184   2.051  0.00  0.00     0.273 C 
HETATM    5  N   UNK N   1      28.282  15.471   3.389  0.00  0.00     0.089 N 
HETATM    6  C   UNK N   1      27.162  15.779   4.242  0.00  0.00     0.279 C 
BRANCH   5   7
HETATM    7  C   UNK N   1      29.133  16.665   3.420  0.00  0.00     0.277 C 
BRANCH   7   8
HETATM    8  C   UNK N   1      29.265  17.317   4.806  0.00  0.00     0.068 C 
BRANCH   8   9
HETATM    9  C   UNK N   1      30.696  17.322   5.196  0.00  0.00    -0.056 A 
HETATM   10  C   UNK N   1      31.043  17.274   6.558  0.00  0.00     0.017 A 
HETATM   11  C   UNK N   1      32.369  17.399   6.908  0.00  0.00    -0.022 A 
HETATM   12  C   UNK N   1      33.333  17.552   5.978  0.00  0.00     0.075 A 
HETATM   13  C   UNK N   1      32.944  17.436   8.263  0.00  0.00     0.068 A 
HETATM   14  O   UNK N   1      34.530  17.689   6.533  0.00  0.00    -0.350 OA
HETATM   15  C   UNK N   1      33.045  17.576   4.611  0.00  0.00     0.038 A 
HETATM   16  C   UNK N   1      34.445  17.654   7.920  0.00  0.00     0.180 A 
HETATM   17  C   UNK N   1      31.699  17.468   4.217  0.00  0.00     0.010 A 
ENDBRANCH   8   9
ENDBRANCH   7   8
ENDBRANCH   5   7
ENDBRANCH   1   2
BRANCH   1  18
HETATM   18  C   UNK N   1      23.500  17.589   4.400  0.00  0.00    -0.035 A 
HETATM   19  C   UNK N   1      22.809  18.517   3.603  0.00  0.00     0.009 A 
HETATM   20  C   UNK N   1      21.604  19.065   4.054  0.00  0.00     0.001 A 
HETATM   21  C   UNK N   1      21.079  18.691   5.295  0.00  0.00     0.000 A 
HETATM   22  C   UNK N   1      21.754  17.767   6.094  0.00  0.00     0.001 A 
HETATM   23  C   UNK N   1      22.951  17.214   5.650  0.00  0.00     0.009 A 
ENDBRANCH   1  18
BRANCH   1  24
HETATM   24  C   UNK N   1      25.629  18.203   4.227  0.00  0.00    -0.035 A 
HETATM   25  C   UNK N   1      26.027  19.047   3.162  0.00  0.00     0.009 A 
HETATM   26  C   UNK N   1      26.766  20.207   3.401  0.00  0.00     0.001 A 
HETATM   27  C   UNK N   1      27.126  20.548   4.705  0.00  0.00     0.000 A 
HETATM   28  C   UNK N   1      26.743  19.733   5.774  0.00  0.00     0.001 A 
HETATM   29  C   UNK N   1      25.995  18.571   5.545  0.00  0.00     0.009 A 
ENDBRANCH   1  24
BRANCH   1  30
HETATM   30  C   UNK N   1      24.122  15.534   3.810  0.00  0.00     0.233 C 
HETATM   31  O   UNK N   1      24.379  14.663   4.634  0.00  0.00    -0.272 OA
HETATM   32  N   UNK N   1      23.271  15.245   2.799  0.00  0.00    -0.369 N 
HETATM   33  H   UNK N   1      22.375  15.053   2.440  0.00  0.00     0.159 HD
HETATM   34  H   UNK N   1      23.854  15.204   2.007  0.00  0.00     0.159 HD
ENDBRANCH   1  30
TORSDOF 7
ENDMDL
MODEL 6
REMARK VINA RESULT:      -6.6      2.602      4.419
REMARK  7 active torsions:
REMARK  status: ('A' for Active; 'I' for Inactive)
REMARK    1  A    between atoms: N_3  and  C_10 
REMARK       I    between atoms: N_4  and  C_13 
REMARK    2  A    between atoms: C_5  and  C_6 
REMARK    3  A    between atoms: C_6  and  C_11 
REMARK    4  A    between atoms: C_6  and  C_12 
REMARK    5  A    between atoms: C_6  and  C_13 
REMARK    6  A    between atoms: C_10  and  C_14 
REMARK    7  A    between atoms: C_14  and  C_19 
ROOT
HETATM    1  C   UNK N   1      29.531  23.596  -4.493  0.00  0.00     0.100 C 
ENDROOT
BRANCH   1   2
HETATM    2  C   UNK N   1      28.442  24.717  -4.421  0.00  0.00     0.042 C 
HETATM    3  C   UNK N   1      28.709  26.156  -4.075  0.00  0.00     0.038 C 
HETATM    4  C   UNK N   1      27.288  26.722  -3.961  0.00  0.00     0.273 C 
HETATM    5  N   UNK N   1      26.323  25.602  -3.988  0.00  0.00     0.089 N 
HETATM    6  C   UNK N   1      27.092  24.396  -3.815  0.00  0.00     0.279 C 
BRANCH   5   7
HETATM    7  C   UNK N   1      25.646  25.449  -5.280  0.00  0.00     0.277 C 
BRANCH   7   8
HETATM    8  C   UNK N   1      25.444  26.762  -6.053  0.00  0.00     0.068 C 
BRANCH   8   9
HETATM    9  C   UNK N   1      26.202  26.688  -7.326  0.00  0.00    -0.056 A 
HETATM   10  C   UNK N   1      27.420  27.380  -7.447  0.00  0.00     0.017 A 
HETATM   11  C   UNK N   1      28.052  27.398  -8.670  0.00  0.00    -0.022 A 
HETATM   12  C   UNK N   1      27.536  26.759  -9.740  0.00  0.00     0.075 A 
HETATM   13  C   UNK N   1      29.292  28.102  -9.034  0.00  0.00     0.068 A 
HETATM   14  O   UNK N   1      28.285  26.934 -10.822  0.00  0.00    -0.350 OA
HETATM   15  C   UNK N   1      26.346  26.032  -9.665  0.00  0.00     0.038 A 
HETATM   16  C   UNK N   1      29.380  27.745 -10.546  0.00  0.00     0.180 A 
HETATM   17  C   UNK N   1      25.663  26.007  -8.435  0.00  0.00     0.010 A 
ENDBRANCH   8   9
ENDBRANCH   7   8
ENDBRANCH   5   7
ENDBRANCH   1   2
BRANCH   1  18
HETATM   18  C   UNK N   1      30.658  22.577  -4.688  0.00  0.00    -0.035 A 
HETATM   19  C   UNK N   1      30.389  21.200  -4.773  0.00  0.00     0.009 A 
HETATM   20  C   UNK N   1      31.431  20.298  -5.004  0.00  0.00     0.001 A 
HETATM   21  C   UNK N   1      32.744  20.757  -5.154  0.00  0.00     0.000 A 
HETATM   22  C   UNK N   1      33.023  22.121  -5.075  0.00  0.00     0.001 A 
HETATM   23  C   UNK N   1      31.991  23.027  -4.851  0.00  0.00     0.009 A 
ENDBRANCH   1  18
BRANCH   1  24
HETATM   24  C   UNK N   1      29.088  23.474  -5.981  0.00  0.00    -0.035 A 
HETATM   25  C   UNK N   1      29.830  24.154  -6.977  0.00  0.00     0.009 A 
HETATM   26  C   UNK N   1      29.478  24.062  -8.325  0.00  0.00     0.001 A 
HETATM   27  C   UNK N   1      28.378  23.294  -8.707  0.00  0.00     0.000 A 
HETATM   28  C   UNK N   1      27.631  22.611  -7.743  0.00  0.00     0.001 A 
HETATM   29  C   UNK N   1      27.981  22.690  -6.389  0.00  0.00     0.009 A 
ENDBRANCH   1  24
BRANCH   1  30
HETATM   30  C   UNK N   1      29.706  23.595  -2.952  0.00  0.00     0.233 C 
HETATM   31  O   UNK N   1      30.577  24.281  -2.428  0.00  0.00    -0.272 OA
HETATM   32  N   UNK N   1      28.928  22.817  -2.166  0.00  0.00    -0.369 N 
HETATM   33  H   UNK N   1      28.218  22.684  -1.499  0.00  0.00     0.159 HD
HETATM   34  H   UNK N   1      29.233  21.902  -2.368  0.00  0.00     0.159 HD
ENDBRANCH   1  30
TORSDOF 7
ENDMDL
MODEL 7
REMARK VINA RESULT:      -6.4     15.393     17.127
REMARK  7 active torsions:
REMARK  status: ('A' for Active; 'I' for Inactive)
REMARK    1  A    between atoms: N_3  and  C_10 
REMARK       I    between atoms: N_4  and  C_13 
REMARK    2  A    between atoms: C_5  and  C_6 
REMARK    3  A    between atoms: C_6  and  C_11 
REMARK    4  A    between atoms: C_6  and  C_12 
REMARK    5  A    between atoms: C_6  and  C_13 
REMARK    6  A    between atoms: C_10  and  C_14 
REMARK    7  A    between atoms: C_14  and  C_19 
ROOT
HETATM    1  C   UNK N   1      22.533  12.341   7.207  0.00  0.00     0.100 C 
ENDROOT
BRANCH   1   2
HETATM    2  C   UNK N   1      21.641  12.398   5.923  0.00  0.00     0.042 C 
HETATM    3  C   UNK N   1      20.337  11.669   5.747  0.00  0.00     0.038 C 
HETATM    4  C   UNK N   1      20.030  11.925   4.266  0.00  0.00     0.273 C 
HETATM    5  N   UNK N   1      21.217  12.532   3.628  0.00  0.00     0.089 N 
HETATM    6  C   UNK N   1      22.305  12.380   4.562  0.00  0.00     0.279 C 
BRANCH   5   7
HETATM    7  C   UNK N   1      21.089  13.977   3.414  0.00  0.00     0.277 C 
BRANCH   7   8
HETATM    8  C   UNK N   1      22.413  14.695   3.105  0.00  0.00     0.068 C 
BRANCH   8   9
HETATM    9  C   UNK N   1      22.242  16.144   3.367  0.00  0.00    -0.056 A 
HETATM   10  C   UNK N   1      21.032  16.772   3.022  0.00  0.00     0.017 A 
HETATM   11  C   UNK N   1      20.931  18.138   3.162  0.00  0.00    -0.022 A 
HETATM   12  C   UNK N   1      21.956  18.877   3.632  0.00  0.00     0.075 A 
HETATM   13  C   UNK N   1      19.791  18.999   2.808  0.00  0.00     0.068 A 
HETATM   14  O   UNK N   1      21.658  20.169   3.652  0.00  0.00    -0.350 OA
HETATM   15  C   UNK N   1      23.168  18.298   4.019  0.00  0.00     0.038 A 
HETATM   16  C   UNK N   1      20.377  20.395   3.163  0.00  0.00     0.180 A 
HETATM   17  C   UNK N   1      23.313  16.907   3.873  0.00  0.00     0.010 A 
ENDBRANCH   8   9
ENDBRANCH   7   8
ENDBRANCH   5   7
ENDBRANCH   1   2
BRANCH   1  18
HETATM   18  C   UNK N   1      23.273  12.310   8.548  0.00  0.00    -0.035 A 
HETATM   19  C   UNK N   1      24.445  13.059   8.750  0.00  0.00     0.009 A 
HETATM   20  C   UNK N   1      25.071  13.053  10.000  0.00  0.00     0.001 A 
HETATM   21  C   UNK N   1      24.535  12.308  11.055  0.00  0.00     0.000 A 
HETATM   22  C   UNK N   1      23.369  11.564  10.868  0.00  0.00     0.001 A 
HETATM   23  C   UNK N   1      22.738  11.569   9.628  0.00  0.00     0.009 A 
ENDBRANCH   1  18
BRANCH   1  24
HETATM   24  C   UNK N   1      21.885  13.719   7.533  0.00  0.00    -0.035 A 
HETATM   25  C   UNK N   1      20.934  13.801   8.580  0.00  0.00     0.009 A 
HETATM   26  C   UNK N   1      20.338  15.017   8.916  0.00  0.00     0.001 A 
HETATM   27  C   UNK N   1      20.673  16.175   8.214  0.00  0.00     0.000 A 
HETATM   28  C   UNK N   1      21.611  16.121   7.178  0.00  0.00     0.001 A 
HETATM   29  C   UNK N   1      22.221  14.907   6.838  0.00  0.00     0.009 A 
ENDBRANCH   1  24
BRANCH   1  30
HETATM   30  C   UNK N   1      23.321  11.119   6.668  0.00  0.00     0.233 C 
HETATM   31  O   UNK N   1      22.865   9.987   6.784  0.00  0.00    -0.272 OA
HETATM   32  N   UNK N   1      24.535  11.276   6.092  0.00  0.00    -0.369 N 
HETATM   33  H   UNK N   1      25.141  11.269   5.317  0.00  0.00     0.159 HD
HETATM   34  H   UNK N   1      25.119  11.531   6.843  0.00  0.00     0.159 HD
ENDBRANCH   1  30
TORSDOF 7
ENDMDL
MODEL 8
REMARK VINA RESULT:      -6.4     12.366     15.987
REMARK  7 active torsions:
REMARK  status: ('A' for Active; 'I' for Inactive)
REMARK    1  A    between atoms: N_3  and  C_10 
REMARK       I    between atoms: N_4  and  C_13 
REMARK    2  A    between atoms: C_5  and  C_6 
REMARK    3  A    between atoms: C_6  and  C_11 
REMARK    4  A    between atoms: C_6  and  C_12 
REMARK    5  A    between atoms: C_6  and  C_13 
REMARK    6  A    between atoms: C_10  and  C_14 
REMARK    7  A    between atoms: C_14  and  C_19 
ROOT
HETATM    1  C   UNK N   1      28.894  16.896   4.887  0.00  0.00     0.100 C 
ENDROOT
BRANCH   1   2
HETATM    2  C   UNK N   1      29.457  15.586   4.243  0.00  0.00     0.042 C 
HETATM    3  C   UNK N   1      29.641  15.362   2.767  0.00  0.00     0.038 C 
HETATM    4  C   UNK N   1      30.016  13.876   2.719  0.00  0.00     0.273 C 
HETATM    5  N   UNK N   1      29.794  13.281   4.054  0.00  0.00     0.089 N 
HETATM    6  C   UNK N   1      29.037  14.246   4.810  0.00  0.00     0.279 C 
BRANCH   5   7
HETATM    7  C   UNK N   1      31.032  13.079   4.814  0.00  0.00     0.277 C 
BRANCH   7   8
HETATM    8  C   UNK N   1      32.294  13.639   4.136  0.00  0.00     0.068 C 
BRANCH   8   9
HETATM    9  C   UNK N   1      33.320  13.895   5.175  0.00  0.00    -0.056 A 
HETATM   10  C   UNK N   1      33.003  13.679   6.528  0.00  0.00     0.017 A 
HETATM   11  C   UNK N   1      33.924  14.033   7.489  0.00  0.00    -0.022 A 
HETATM   12  C   UNK N   1      35.118  14.565   7.159  0.00  0.00     0.075 A 
HETATM   13  C   UNK N   1      33.778  13.952   8.951  0.00  0.00     0.068 A 
HETATM   14  O   UNK N   1      35.834  14.864   8.235  0.00  0.00    -0.350 OA
HETATM   15  C   UNK N   1      35.494  14.771   5.829  0.00  0.00     0.038 A 
HETATM   16  C   UNK N   1      35.138  14.560   9.399  0.00  0.00     0.180 A 
HETATM   17  C   UNK N   1      34.571  14.438   4.822  0.00  0.00     0.010 A 
ENDBRANCH   8   9
ENDBRANCH   7   8
ENDBRANCH   5   7
ENDBRANCH   1   2
BRANCH   1  18
HETATM   18  C   UNK N   1      28.461  18.257   5.443  0.00  0.00    -0.035 A 
HETATM   19  C   UNK N   1      28.190  19.339   4.589  0.00  0.00     0.009 A 
HETATM   20  C   UNK N   1      27.747  20.554   5.120  0.00  0.00     0.001 A 
HETATM   21  C   UNK N   1      27.567  20.699   6.499  0.00  0.00     0.000 A 
HETATM   22  C   UNK N   1      27.829  19.630   7.357  0.00  0.00     0.001 A 
HETATM   23  C   UNK N   1      28.266  18.416   6.836  0.00  0.00     0.009 A 
ENDBRANCH   1  18
BRANCH   1  24
HETATM   24  C   UNK N   1      30.353  17.090   5.398  0.00  0.00    -0.035 A 
HETATM   25  C   UNK N   1      31.361  17.461   4.475  0.00  0.00     0.009 A 
HETATM   26  C   UNK N   1      32.679  17.658   4.890  0.00  0.00     0.001 A 
HETATM   27  C   UNK N   1      33.020  17.488   6.232  0.00  0.00     0.000 A 
HETATM   28  C   UNK N   1      32.042  17.125   7.163  0.00  0.00     0.001 A 
HETATM   29  C   UNK N   1      30.715  16.932   6.758  0.00  0.00     0.009 A 
ENDBRANCH   1  24
BRANCH   1  30
HETATM   30  C   UNK N   1      27.432  16.482   4.578  0.00  0.00     0.233 C 
HETATM   31  O   UNK N   1      26.976  16.616   3.448  0.00  0.00    -0.272 OA
HETATM   32  N   UNK N   1      26.628  15.999   5.552  0.00  0.00    -0.369 N 
HETATM   33  H   UNK N   1      26.122  15.276   5.988  0.00  0.00     0.159 HD
HETATM   34  H   UNK N   1      26.460  16.781   6.126  0.00  0.00     0.159 HD
ENDBRANCH   1  30
TORSDOF 7
ENDMDL
MODEL 9
REMARK VINA RESULT:      -6.4     15.753     18.005
REMARK  7 active torsions:
REMARK  status: ('A' for Active; 'I' for Inactive)
REMARK    1  A    between atoms: N_3  and  C_10 
REMARK       I    between atoms: N_4  and  C_13 
REMARK    2  A    between atoms: C_5  and  C_6 
REMARK    3  A    between atoms: C_6  and  C_11 
REMARK    4  A    between atoms: C_6  and  C_12 
REMARK    5  A    between atoms: C_6  and  C_13 
REMARK    6  A    between atoms: C_10  and  C_14 
REMARK    7  A    between atoms: C_14  and  C_19 
ROOT
HETATM    1  C   UNK N   1      21.589  15.250   3.921  0.00  0.00     0.100 C 
ENDROOT
BRANCH   1   2
HETATM    2  C   UNK N   1      20.771  15.690   5.180  0.00  0.00     0.042 C 
HETATM    3  C   UNK N   1      19.269  15.712   5.266  0.00  0.00     0.038 C 
HETATM    4  C   UNK N   1      19.041  16.404   6.616  0.00  0.00     0.273 C 
HETATM    5  N   UNK N   1      20.328  16.948   7.100  0.00  0.00     0.089 N 
HETATM    6  C   UNK N   1      21.243  16.880   5.988  0.00  0.00     0.279 C 
BRANCH   5   7
HETATM    7  C   UNK N   1      20.941  16.138   8.157  0.00  0.00     0.277 C 
BRANCH   7   8
HETATM    8  C   UNK N   1      20.158  14.864   8.519  0.00  0.00     0.068 C 
BRANCH   8   9
HETATM    9  C   UNK N   1      20.993  14.031   9.418  0.00  0.00    -0.056 A 
HETATM   10  C   UNK N   1      22.387  13.998   9.234  0.00  0.00     0.017 A 
HETATM   11  C   UNK N   1      23.135  13.130   9.998  0.00  0.00    -0.022 A 
HETATM   12  C   UNK N   1      22.563  12.329  10.920  0.00  0.00     0.075 A 
HETATM   13  C   UNK N   1      24.585  12.890   9.931  0.00  0.00     0.068 A 
HETATM   14  O   UNK N   1      23.458  11.552  11.515  0.00  0.00    -0.350 OA
HETATM   15  C   UNK N   1      21.187  12.346  11.163  0.00  0.00     0.038 A 
HETATM   16  C   UNK N   1      24.731  11.772  11.003  0.00  0.00     0.180 A 
HETATM   17  C   UNK N   1      20.389  13.207  10.388  0.00  0.00     0.010 A 
ENDBRANCH   8   9
ENDBRANCH   7   8
ENDBRANCH   5   7
ENDBRANCH   1   2
BRANCH   1  18
HETATM   18  C   UNK N   1      22.322  14.676   2.704  0.00  0.00    -0.035 A 
HETATM   19  C   UNK N   1      21.652  13.881   1.759  0.00  0.00     0.009 A 
HETATM   20  C   UNK N   1      22.333  13.413   0.631  0.00  0.00     0.001 A 
HETATM   21  C   UNK N   1      23.679  13.735   0.435  0.00  0.00     0.000 A 
HETATM   22  C   UNK N   1      24.355  14.527   1.364  0.00  0.00     0.001 A 
HETATM   23  C   UNK N   1      23.683  15.001   2.487  0.00  0.00     0.009 A 
ENDBRANCH   1  18
BRANCH   1  24
HETATM   24  C   UNK N   1      22.068  14.081   4.831  0.00  0.00    -0.035 A 
HETATM   25  C   UNK N   1      21.163  13.036   5.141  0.00  0.00     0.009 A 
HETATM   26  C   UNK N   1      21.553  11.960   5.941  0.00  0.00     0.001 A 
HETATM   27  C   UNK N   1      22.850  11.906   6.451  0.00  0.00     0.000 A 
HETATM   28  C   UNK N   1      23.763  12.923   6.158  0.00  0.00     0.001 A 
HETATM   29  C   UNK N   1      23.384  14.003   5.349  0.00  0.00     0.009 A 
ENDBRANCH   1  24
BRANCH   1  30
HETATM   30  C   UNK N   1      21.284  16.584   3.192  0.00  0.00     0.233 C 
HETATM   31  O   UNK N   1      22.017  17.555   3.344  0.00  0.00    -0.272 OA
HETATM   32  N   UNK N   1      20.191  16.709   2.405  0.00  0.00    -0.369 N 
HETATM   33  H   UNK N   1      19.752  16.807   1.530  0.00  0.00     0.159 HD
HETATM   34  H   UNK N   1      19.441  16.694   3.043  0.00  0.00     0.159 HD
ENDBRANCH   1  30
TORSDOF 7
ENDMDL
