REMARK  2 active torsions:
REMARK  status: ('A' for Active; 'I' for Inactive)
REMARK    1  A    between atoms: C_7  and  O_2 
REMARK    2  A    between atoms: O_4  and  C_21 
ROOT
HETATM    1  O   UNK N   1       1.093  -0.533  -0.751  0.00  0.00    -0.334 OA
HETATM    2  O   UNK N   1       0.028  -2.842   0.573  0.00  0.00    -0.295 OA
HETATM    3  N   UNK N   1       6.172  -1.299  -0.750  0.00  0.00     0.092 N 
HETATM    4  C   UNK N   1       3.256  -1.383  -0.468  0.00  0.00     0.058 C 
HETATM    5  C   UNK N   1       4.140  -2.179   0.492  0.00  0.00     0.104 C 
HETATM    6  C   UNK N   1       5.507  -1.391   0.573  0.00  0.00     0.262 C 
HETATM    7  C   UNK N   1       1.751  -1.767  -0.636  0.00  0.00     0.214 C 
HETATM    8  C   UNK N   1       3.929  -1.321  -1.854  0.00  0.00     0.051 C 
HETATM    9  C   UNK N   1       3.096  -0.004   0.018  0.00  0.00    -0.001 A 
HETATM   10  C   UNK N   1       3.443  -2.268   1.848  0.00  0.00     0.049 C 
HETATM   11  C   UNK N   1       5.335   0.069   1.115  0.00  0.00     0.078 C 
HETATM   12  C   UNK N   1       5.330  -0.700  -1.794  0.00  0.00     0.273 C 
HETATM   13  C   UNK N   1       4.056   0.745   0.673  0.00  0.00    -0.046 A 
HETATM   14  C   UNK N   1       2.062  -2.931   1.751  0.00  0.00     0.084 C 
HETATM   15  C   UNK N   1       1.204  -2.516   0.571  0.00  0.00     0.157 C 
HETATM   16  C   UNK N   1       1.864   0.448  -0.267  0.00  0.00     0.111 A 
HETATM   17  C   UNK N   1       6.695  -2.579  -1.213  0.00  0.00     0.310 C 
HETATM   18  C   UNK N   1       3.743   2.077   0.991  0.00  0.00     0.011 A 
HETATM   19  C   UNK N   1       1.514   1.778  -0.011  0.00  0.00     0.102 A 
HETATM   20  C   UNK N   1       2.483   2.606   0.615  0.00  0.00     0.040 A 
ENDROOT
BRANCH   5  21
HETATM   21  O   UNK N   1       4.339  -3.479   0.010  0.00  0.00    -0.386 OA
HETATM   22  H   UNK N   1       3.629  -4.048  -0.323  0.00  0.00     0.210 HD
ENDBRANCH   5  21
BRANCH  19  23
HETATM   23  O   UNK N   1       0.289   2.235  -0.360  0.00  0.00    -0.353 OA
HETATM   24  C   UNK N   1      -0.073   3.558  -0.247  0.00  0.00     0.210 C 
ENDBRANCH  19  23
TORSDOF 2
