MODEL 1
REMARK VINA RESULT:      -6.5      0.000      0.000
REMARK  2 active torsions:
REMARK  status: ('A' for Active; 'I' for Inactive)
REMARK    1  A    between atoms: C_7  and  O_2 
REMARK    2  A    between atoms: O_4  and  C_21 
ROOT
HETATM    1  O   UNK N   1      29.748  16.126   6.066  0.00  0.00    -0.334 OA
HETATM    2  O   UNK N   1      28.472  17.511   8.228  0.00  0.00    -0.295 OA
HETATM    3  N   UNK N   1      34.494  15.183   7.789  0.00  0.00     0.092 N 
HETATM    4  C   UNK N   1      31.710  15.978   7.335  0.00  0.00     0.058 C 
HETATM    5  C   UNK N   1      32.561  16.727   8.361  0.00  0.00     0.104 C 
HETATM    6  C   UNK N   1      34.053  16.598   7.858  0.00  0.00     0.262 C 
HETATM    7  C   UNK N   1      30.151  16.064   7.409  0.00  0.00     0.214 C 
HETATM    8  C   UNK N   1      32.141  14.498   7.292  0.00  0.00     0.051 C 
HETATM    9  C   UNK N   1      31.916  16.548   5.995  0.00  0.00    -0.001 A 
HETATM   10  C   UNK N   1      32.095  18.180   8.424  0.00  0.00     0.049 C 
HETATM   11  C   UNK N   1      34.273  17.229   6.441  0.00  0.00     0.078 C 
HETATM   12  C   UNK N   1      33.629  14.335   6.957  0.00  0.00     0.273 C 
HETATM   13  C   UNK N   1      33.103  17.054   5.499  0.00  0.00    -0.046 A 
HETATM   14  C   UNK N   1      30.612  18.301   8.800  0.00  0.00     0.084 C 
HETATM   15  C   UNK N   1      29.672  17.314   8.134  0.00  0.00     0.157 C 
HETATM   16  C   UNK N   1      30.771  16.509   5.294  0.00  0.00     0.111 A 
HETATM   17  C   UNK N   1      34.662  14.575   9.104  0.00  0.00     0.310 C 
HETATM   18  C   UNK N   1      33.123  17.484   4.162  0.00  0.00     0.011 A 
HETATM   19  C   UNK N   1      30.745  16.884   3.946  0.00  0.00     0.102 A 
HETATM   20  C   UNK N   1      31.952  17.364   3.373  0.00  0.00     0.040 A 
ENDROOT
BRANCH   5  21
HETATM   21  O   UNK N   1      32.409  16.157   9.631  0.00  0.00    -0.386 OA
HETATM   22  H   UNK N   1      31.824  15.409   9.824  0.00  0.00     0.210 HD
ENDBRANCH   5  21
BRANCH  19  23
HETATM   23  O   UNK N   1      29.598  16.782   3.236  0.00  0.00    -0.353 OA
HETATM   24  C   UNK N   1      29.210  15.618   2.611  0.00  0.00     0.210 C 
ENDBRANCH  19  23
TORSDOF 2
ENDMDL
MODEL 2
REMARK VINA RESULT:      -6.5     12.842     15.763
REMARK  2 active torsions:
REMARK  status: ('A' for Active; 'I' for Inactive)
REMARK    1  A    between atoms: C_7  and  O_2 
REMARK    2  A    between atoms: O_4  and  C_21 
ROOT
HETATM    1  O   UNK N   1      26.999  24.077  -3.705  0.00  0.00    -0.334 OA
HETATM    2  O   UNK N   1      25.310  23.462  -5.938  0.00  0.00    -0.295 OA
HETATM    3  N   UNK N   1      27.502  29.187  -3.864  0.00  0.00     0.092 N 
HETATM    4  C   UNK N   1      26.878  26.350  -4.255  0.00  0.00     0.058 C 
HETATM    5  C   UNK N   1      26.802  27.319  -5.435  0.00  0.00     0.104 C 
HETATM    6  C   UNK N   1      27.839  28.467  -5.117  0.00  0.00     0.262 C 
HETATM    7  C   UNK N   1      26.124  24.983  -4.323  0.00  0.00     0.214 C 
HETATM    8  C   UNK N   1      26.490  27.088  -2.958  0.00  0.00     0.051 C 
HETATM    9  C   UNK N   1      28.254  25.853  -4.098  0.00  0.00    -0.001 A 
HETATM   10  C   UNK N   1      27.148  26.566  -6.718  0.00  0.00     0.049 C 
HETATM   11  C   UNK N   1      29.307  27.938  -4.975  0.00  0.00     0.078 C 
HETATM   12  C   UNK N   1      27.381  28.308  -2.693  0.00  0.00     0.273 C 
HETATM   13  C   UNK N   1      29.411  26.575  -4.328  0.00  0.00    -0.046 A 
HETATM   14  C   UNK N   1      26.209  25.377  -6.967  0.00  0.00     0.084 C 
HETATM   15  C   UNK N   1      25.865  24.533  -5.754  0.00  0.00     0.157 C 
HETATM   16  C   UNK N   1      28.241  24.575  -3.687  0.00  0.00     0.111 A 
HETATM   17  C   UNK N   1      26.307  30.012  -3.987  0.00  0.00     0.310 C 
HETATM   18  C   UNK N   1      30.638  25.952  -4.045  0.00  0.00     0.011 A 
HETATM   19  C   UNK N   1      29.431  23.921  -3.350  0.00  0.00     0.102 A 
HETATM   20  C   UNK N   1      30.647  24.635  -3.520  0.00  0.00     0.040 A 
ENDROOT
BRANCH   5  21
HETATM   21  O   UNK N   1      25.506  27.835  -5.560  0.00  0.00    -0.386 OA
HETATM   22  H   UNK N   1      25.284  28.621  -6.082  0.00  0.00     0.210 HD
ENDBRANCH   5  21
BRANCH  19  23
HETATM   23  O   UNK N   1      29.397  22.653  -2.880  0.00  0.00    -0.353 OA
HETATM   24  C   UNK N   1      30.294  21.687  -3.275  0.00  0.00     0.210 C 
ENDBRANCH  19  23
TORSDOF 2
ENDMDL
MODEL 3
REMARK VINA RESULT:      -6.5      2.348      4.966
REMARK  2 active torsions:
REMARK  status: ('A' for Active; 'I' for Inactive)
REMARK    1  A    between atoms: C_7  and  O_2 
REMARK    2  A    between atoms: O_4  and  C_21 
ROOT
HETATM    1  O   UNK N   1      31.699  16.833   7.453  0.00  0.00    -0.334 OA
HETATM    2  O   UNK N   1      34.277  17.715   6.562  0.00  0.00    -0.295 OA
HETATM    3  N   UNK N   1      29.792  14.238   3.451  0.00  0.00     0.092 N 
HETATM    4  C   UNK N   1      31.349  15.801   5.381  0.00  0.00     0.058 C 
HETATM    5  C   UNK N   1      31.624  15.941   3.884  0.00  0.00     0.104 C 
HETATM    6  C   UNK N   1      30.257  15.616   3.162  0.00  0.00     0.262 C 
HETATM    7  C   UNK N   1      32.434  16.242   6.414  0.00  0.00     0.214 C 
HETATM    8  C   UNK N   1      30.904  14.357   5.688  0.00  0.00     0.051 C 
HETATM    9  C   UNK N   1      30.259  16.704   5.781  0.00  0.00    -0.001 A 
HETATM   10  C   UNK N   1      32.104  17.363   3.600  0.00  0.00     0.049 C 
HETATM   11  C   UNK N   1      29.106  16.596   3.572  0.00  0.00     0.078 C 
HETATM   12  C   UNK N   1      29.662  13.947   4.885  0.00  0.00     0.273 C 
HETATM   13  C   UNK N   1      29.153  17.032   5.020  0.00  0.00    -0.046 A 
HETATM   14  C   UNK N   1      33.370  17.720   4.392  0.00  0.00     0.084 C 
HETATM   15  C   UNK N   1      33.402  17.267   5.839  0.00  0.00     0.157 C 
HETATM   16  C   UNK N   1      30.482  17.179   7.017  0.00  0.00     0.111 A 
HETATM   17  C   UNK N   1      30.614  13.216   2.814  0.00  0.00     0.310 C 
HETATM   18  C   UNK N   1      28.175  17.852   5.606  0.00  0.00     0.011 A 
HETATM   19  C   UNK N   1      29.522  17.964   7.664  0.00  0.00     0.102 A 
HETATM   20  C   UNK N   1      28.341  18.289   6.944  0.00  0.00     0.040 A 
ENDROOT
BRANCH   5  21
HETATM   21  O   UNK N   1      32.626  15.048   3.484  0.00  0.00    -0.386 OA
HETATM   22  H   UNK N   1      33.568  15.170   3.675  0.00  0.00     0.210 HD
ENDBRANCH   5  21
BRANCH  19  23
HETATM   23  O   UNK N   1      29.734  18.385   8.933  0.00  0.00    -0.353 OA
HETATM   24  C   UNK N   1      29.258  17.707  10.032  0.00  0.00     0.210 C 
ENDBRANCH  19  23
TORSDOF 2
ENDMDL
MODEL 4
REMARK VINA RESULT:      -6.4      8.917     10.835
REMARK  2 active torsions:
REMARK  status: ('A' for Active; 'I' for Inactive)
REMARK    1  A    between atoms: C_7  and  O_2 
REMARK    2  A    between atoms: O_4  and  C_21 
ROOT
HETATM    1  O   UNK N   1      20.462  13.302   9.391  0.00  0.00    -0.334 OA
HETATM    2  O   UNK N   1      22.029  12.240  11.543  0.00  0.00    -0.295 OA
HETATM    3  N   UNK N   1      23.322  12.469   5.206  0.00  0.00     0.092 N 
HETATM    4  C   UNK N   1      22.141  12.686   7.880  0.00  0.00     0.058 C 
HETATM    5  C   UNK N   1      23.656  12.560   7.722  0.00  0.00     0.104 C 
HETATM    6  C   UNK N   1      23.996  13.191   6.313  0.00  0.00     0.262 C 
HETATM    7  C   UNK N   1      21.472  12.339   9.249  0.00  0.00     0.214 C 
HETATM    8  C   UNK N   1      21.440  11.903   6.752  0.00  0.00     0.051 C 
HETATM    9  C   UNK N   1      21.736  14.096   7.769  0.00  0.00    -0.001 A 
HETATM   10  C   UNK N   1      24.337  13.305   8.868  0.00  0.00     0.049 C 
HETATM   11  C   UNK N   1      23.586  14.699   6.209  0.00  0.00     0.078 C 
HETATM   12  C   UNK N   1      21.863  12.384   5.358  0.00  0.00     0.273 C 
HETATM   13  C   UNK N   1      22.310  15.045   6.944  0.00  0.00    -0.046 A 
HETATM   14  C   UNK N   1      23.917  12.768  10.243  0.00  0.00     0.084 C 
HETATM   15  C   UNK N   1      22.443  12.455  10.416  0.00  0.00     0.157 C 
HETATM   16  C   UNK N   1      20.706  14.349   8.593  0.00  0.00     0.111 A 
HETATM   17  C   UNK N   1      23.872  11.138   4.978  0.00  0.00     0.310 C 
HETATM   18  C   UNK N   1      21.733  16.325   6.918  0.00  0.00     0.011 A 
HETATM   19  C   UNK N   1      20.067  15.593   8.577  0.00  0.00     0.102 A 
HETATM   20  C   UNK N   1      20.586  16.589   7.708  0.00  0.00     0.040 A 
ENDROOT
BRANCH   5  21
HETATM   21  O   UNK N   1      24.044  11.215   7.775  0.00  0.00    -0.386 OA
HETATM   22  H   UNK N   1      23.928  10.589   7.045  0.00  0.00     0.210 HD
ENDBRANCH   5  21
BRANCH  19  23
HETATM   23  O   UNK N   1      18.992  15.812   9.369  0.00  0.00    -0.353 OA
HETATM   24  C   UNK N   1      18.111  16.849   9.160  0.00  0.00     0.210 C 
ENDBRANCH  19  23
TORSDOF 2
ENDMDL
MODEL 5
REMARK VINA RESULT:      -6.4      2.104      4.066
REMARK  2 active torsions:
REMARK  status: ('A' for Active; 'I' for Inactive)
REMARK    1  A    between atoms: C_7  and  O_2 
REMARK    2  A    between atoms: O_4  and  C_21 
ROOT
HETATM    1  O   UNK N   1      31.080  16.082   8.091  0.00  0.00    -0.334 OA
HETATM    2  O   UNK N   1      33.612  16.873   9.179  0.00  0.00    -0.295 OA
HETATM    3  N   UNK N   1      32.140  14.760   3.242  0.00  0.00     0.092 N 
HETATM    4  C   UNK N   1      32.116  15.630   6.041  0.00  0.00     0.058 C 
HETATM    5  C   UNK N   1      33.228  16.100   5.103  0.00  0.00     0.104 C 
HETATM    6  C   UNK N   1      32.596  16.110   3.655  0.00  0.00     0.262 C 
HETATM    7  C   UNK N   1      32.329  15.687   7.587  0.00  0.00     0.214 C 
HETATM    8  C   UNK N   1      31.669  14.210   5.635  0.00  0.00     0.051 C 
HETATM    9  C   UNK N   1      30.950  16.519   5.928  0.00  0.00    -0.001 A 
HETATM   10  C   UNK N   1      33.689  17.489   5.541  0.00  0.00     0.049 C 
HETATM   11  C   UNK N   1      31.369  17.077   3.534  0.00  0.00     0.078 C 
HETATM   12  C   UNK N   1      31.191  14.144   4.179  0.00  0.00     0.273 C 
HETATM   13  C   UNK N   1      30.507  17.140   4.775  0.00  0.00    -0.046 A 
HETATM   14  C   UNK N   1      34.197  17.504   6.989  0.00  0.00     0.084 C 
HETATM   15  C   UNK N   1      33.379  16.712   7.992  0.00  0.00     0.157 C 
HETATM   16  C   UNK N   1      30.352  16.652   7.123  0.00  0.00     0.111 A 
HETATM   17  C   UNK N   1      33.243  13.842   2.983  0.00  0.00     0.310 C 
HETATM   18  C   UNK N   1      29.323  17.892   4.849  0.00  0.00     0.011 A 
HETATM   19  C   UNK N   1      29.148  17.354   7.246  0.00  0.00     0.102 A 
HETATM   20  C   UNK N   1      28.622  17.969   6.079  0.00  0.00     0.040 A 
ENDROOT
BRANCH   5  21
HETATM   21  O   UNK N   1      34.323  15.229   5.166  0.00  0.00    -0.386 OA
HETATM   22  H   UNK N   1      34.551  14.594   4.471  0.00  0.00     0.210 HD
ENDBRANCH   5  21
BRANCH  19  23
HETATM   23  O   UNK N   1      28.526  17.427   8.445  0.00  0.00    -0.353 OA
HETATM   24  C   UNK N   1      28.798  18.412   9.367  0.00  0.00     0.210 C 
ENDBRANCH  19  23
TORSDOF 2
ENDMDL
MODEL 6
REMARK VINA RESULT:      -6.4      1.666      4.869
REMARK  2 active torsions:
REMARK  status: ('A' for Active; 'I' for Inactive)
REMARK    1  A    between atoms: C_7  and  O_2 
REMARK    2  A    between atoms: O_4  and  C_21 
ROOT
HETATM    1  O   UNK N   1      32.911  17.364   8.982  0.00  0.00    -0.334 OA
HETATM    2  O   UNK N   1      30.435  18.754   9.379  0.00  0.00    -0.295 OA
HETATM    3  N   UNK N   1      32.713  15.787   4.098  0.00  0.00     0.092 N 
HETATM    4  C   UNK N   1      32.291  16.916   6.770  0.00  0.00     0.058 C 
HETATM    5  C   UNK N   1      31.092  16.594   5.878  0.00  0.00     0.104 C 
HETATM    6  C   UNK N   1      31.555  15.406   4.945  0.00  0.00     0.262 C 
HETATM    7  C   UNK N   1      32.128  17.917   7.958  0.00  0.00     0.214 C 
HETATM    8  C   UNK N   1      33.482  17.349   5.892  0.00  0.00     0.051 C 
HETATM    9  C   UNK N   1      32.697  15.719   7.522  0.00  0.00    -0.001 A 
HETATM   10  C   UNK N   1      29.908  16.206   6.762  0.00  0.00     0.049 C 
HETATM   11  C   UNK N   1      31.963  14.125   5.750  0.00  0.00     0.078 C 
HETATM   12  C   UNK N   1      33.866  16.280   4.862  0.00  0.00     0.273 C 
HETATM   13  C   UNK N   1      32.653  14.415   7.064  0.00  0.00    -0.046 A 
HETATM   14  C   UNK N   1      29.530  17.318   7.750  0.00  0.00     0.084 C 
HETATM   15  C   UNK N   1      30.686  18.026   8.432  0.00  0.00     0.157 C 
HETATM   16  C   UNK N   1      33.132  16.066   8.745  0.00  0.00     0.111 A 
HETATM   17  C   UNK N   1      32.364  16.747   3.058  0.00  0.00     0.310 C 
HETATM   18  C   UNK N   1      33.160  13.409   7.903  0.00  0.00     0.011 A 
HETATM   19  C   UNK N   1      33.686  15.110   9.603  0.00  0.00     0.102 A 
HETATM   20  C   UNK N   1      33.712  13.762   9.160  0.00  0.00     0.040 A 
ENDROOT
BRANCH   5  21
HETATM   21  O   UNK N   1      30.731  17.715   5.120  0.00  0.00    -0.386 OA
HETATM   22  H   UNK N   1      31.288  18.500   5.014  0.00  0.00     0.210 HD
ENDBRANCH   5  21
BRANCH  19  23
HETATM   23  O   UNK N   1      34.175  15.485  10.808  0.00  0.00    -0.353 OA
HETATM   24  C   UNK N   1      35.438  16.008  10.970  0.00  0.00     0.210 C 
ENDBRANCH  19  23
TORSDOF 2
ENDMDL
MODEL 7
REMARK VINA RESULT:      -6.3      9.225     11.040
REMARK  2 active torsions:
REMARK  status: ('A' for Active; 'I' for Inactive)
REMARK    1  A    between atoms: C_7  and  O_2 
REMARK    2  A    between atoms: O_4  and  C_21 
ROOT
HETATM    1  O   UNK N   1      20.330  18.007   2.511  0.00  0.00    -0.334 OA
HETATM    2  O   UNK N   1      21.794  20.430   2.964  0.00  0.00    -0.295 OA
HETATM    3  N   UNK N   1      21.443  15.071   6.576  0.00  0.00     0.092 N 
HETATM    4  C   UNK N   1      21.165  17.140   4.518  0.00  0.00     0.058 C 
HETATM    5  C   UNK N   1      22.399  17.120   5.421  0.00  0.00     0.104 C 
HETATM    6  C   UNK N   1      22.608  15.609   5.832  0.00  0.00     0.262 C 
HETATM    7  C   UNK N   1      20.777  18.452   3.764  0.00  0.00     0.214 C 
HETATM    8  C   UNK N   1      19.946  16.618   5.304  0.00  0.00     0.051 C 
HETATM    9  C   UNK N   1      21.370  16.254   3.362  0.00  0.00    -0.001 A 
HETATM   10  C   UNK N   1      23.590  17.678   4.644  0.00  0.00     0.049 C 
HETATM   11  C   UNK N   1      22.851  14.673   4.599  0.00  0.00     0.078 C 
HETATM   12  C   UNK N   1      20.169  15.204   5.855  0.00  0.00     0.273 C 
HETATM   13  C   UNK N   1      22.062  15.057   3.367  0.00  0.00    -0.046 A 
HETATM   14  C   UNK N   1      23.341  19.108   4.144  0.00  0.00     0.084 C 
HETATM   15  C   UNK N   1      21.965  19.384   3.570  0.00  0.00     0.157 C 
HETATM   16  C   UNK N   1      20.780  16.770   2.272  0.00  0.00     0.111 A 
HETATM   17  C   UNK N   1      21.313  15.636   7.914  0.00  0.00     0.310 C 
HETATM   18  C   UNK N   1      22.083  14.308   2.178  0.00  0.00     0.011 A 
HETATM   19  C   UNK N   1      20.734  16.048   1.075  0.00  0.00     0.102 A 
HETATM   20  C   UNK N   1      21.386  14.787   1.040  0.00  0.00     0.040 A 
ENDROOT
BRANCH   5  21
HETATM   21  O   UNK N   1      22.192  17.922   6.550  0.00  0.00    -0.386 OA
HETATM   22  H   UNK N   1      22.686  17.829   7.379  0.00  0.00     0.210 HD
ENDBRANCH   5  21
BRANCH  19  23
HETATM   23  O   UNK N   1      20.083  16.555   0.003  0.00  0.00    -0.353 OA
HETATM   24  C   UNK N   1      18.786  16.216  -0.310  0.00  0.00     0.210 C 
ENDBRANCH  19  23
TORSDOF 2
ENDMDL
MODEL 8
REMARK VINA RESULT:      -6.2     14.010     16.907
REMARK  2 active torsions:
REMARK  status: ('A' for Active; 'I' for Inactive)
REMARK    1  A    between atoms: C_7  and  O_2 
REMARK    2  A    between atoms: O_4  and  C_21 
ROOT
HETATM    1  O   UNK N   1      25.792  26.320  -4.404  0.00  0.00    -0.334 OA
HETATM    2  O   UNK N   1      26.689  24.314  -2.563  0.00  0.00    -0.295 OA
HETATM    3  N   UNK N   1      27.282  24.579  -9.001  0.00  0.00     0.092 N 
HETATM    4  C   UNK N   1      26.685  25.076  -6.175  0.00  0.00     0.058 C 
HETATM    5  C   UNK N   1      27.845  24.159  -6.562  0.00  0.00     0.104 C 
HETATM    6  C   UNK N   1      28.346  24.668  -7.971  0.00  0.00     0.262 C 
HETATM    7  C   UNK N   1      26.069  24.986  -4.742  0.00  0.00     0.214 C 
HETATM    8  C   UNK N   1      25.562  24.953  -7.225  0.00  0.00     0.051 C 
HETATM    9  C   UNK N   1      27.132  26.477  -6.154  0.00  0.00    -0.001 A 
HETATM   10  C   UNK N   1      28.932  24.259  -5.493  0.00  0.00     0.049 C 
HETATM   11  C   UNK N   1      28.845  26.153  -7.938  0.00  0.00     0.078 C 
HETATM   12  C   UNK N   1      26.049  25.291  -8.640  0.00  0.00     0.273 C 
HETATM   13  C   UNK N   1      28.059  27.048  -7.006  0.00  0.00    -0.046 A 
HETATM   14  C   UNK N   1      28.415  23.874  -4.099  0.00  0.00     0.084 C 
HETATM   15  C   UNK N   1      27.043  24.404  -3.727  0.00  0.00     0.157 C 
HETATM   16  C   UNK N   1      26.505  27.149  -5.175  0.00  0.00     0.111 A 
HETATM   17  C   UNK N   1      26.966  23.206  -9.374  0.00  0.00     0.310 C 
HETATM   18  C   UNK N   1      28.299  28.427  -6.882  0.00  0.00     0.011 A 
HETATM   19  C   UNK N   1      26.675  28.530  -5.035  0.00  0.00     0.102 A 
HETATM   20  C   UNK N   1      27.579  29.177  -5.920  0.00  0.00     0.040 A 
ENDROOT
BRANCH   5  21
HETATM   21  O   UNK N   1      27.415  22.828  -6.634  0.00  0.00    -0.386 OA
HETATM   22  H   UNK N   1      27.459  22.204  -5.894  0.00  0.00     0.210 HD
ENDBRANCH   5  21
BRANCH  19  23
HETATM   23  O   UNK N   1      25.989  29.204  -4.083  0.00  0.00    -0.353 OA
HETATM   24  C   UNK N   1      26.320  30.480  -3.687  0.00  0.00     0.210 C 
ENDBRANCH  19  23
TORSDOF 2
ENDMDL
MODEL 9
REMARK VINA RESULT:      -6.2     14.432     16.227
REMARK  2 active torsions:
REMARK  status: ('A' for Active; 'I' for Inactive)
REMARK    1  A    between atoms: C_7  and  O_2 
REMARK    2  A    between atoms: O_4  and  C_21 
ROOT
HETATM    1  O   UNK N   1      26.599  22.544  -6.880  0.00  0.00    -0.334 OA
HETATM    2  O   UNK N   1      24.995  23.457  -9.074  0.00  0.00    -0.295 OA
HETATM    3  N   UNK N   1      27.047  26.657  -3.836  0.00  0.00     0.092 N 
HETATM    4  C   UNK N   1      26.470  24.673  -5.915  0.00  0.00     0.058 C 
HETATM    5  C   UNK N   1      26.423  26.164  -6.247  0.00  0.00     0.104 C 
HETATM    6  C   UNK N   1      27.435  26.860  -5.254  0.00  0.00     0.262 C 
HETATM    7  C   UNK N   1      25.735  23.649  -6.838  0.00  0.00     0.214 C 
HETATM    8  C   UNK N   1      26.029  24.458  -4.453  0.00  0.00     0.051 C 
HETATM    9  C   UNK N   1      27.845  24.169  -6.050  0.00  0.00    -0.001 A 
HETATM   10  C   UNK N   1      26.822  26.359  -7.709  0.00  0.00     0.049 C 
HETATM   11  C   UNK N   1      28.903  26.338  -5.418  0.00  0.00     0.078 C 
HETATM   12  C   UNK N   1      26.895  25.245  -3.462  0.00  0.00     0.273 C 
HETATM   13  C   UNK N   1      29.001  24.864  -5.746  0.00  0.00    -0.046 A 
HETATM   14  C   UNK N   1      25.907  25.588  -8.670  0.00  0.00     0.084 C 
HETATM   15  C   UNK N   1      25.531  24.180  -8.249  0.00  0.00     0.157 C 
HETATM   16  C   UNK N   1      27.834  22.909  -6.516  0.00  0.00     0.111 A 
HETATM   17  C   UNK N   1      25.846  27.397  -3.465  0.00  0.00     0.310 C 
HETATM   18  C   UNK N   1      30.225  24.185  -5.865  0.00  0.00     0.011 A 
HETATM   19  C   UNK N   1      29.019  22.173  -6.614  0.00  0.00     0.102 A 
HETATM   20  C   UNK N   1      30.231  22.825  -6.264  0.00  0.00     0.040 A 
ENDROOT
BRANCH   5  21
HETATM   21  O   UNK N   1      25.126  26.664  -6.072  0.00  0.00    -0.386 OA
HETATM   22  H   UNK N   1      24.901  27.387  -5.469  0.00  0.00     0.210 HD
ENDBRANCH   5  21
BRANCH  19  23
HETATM   23  O   UNK N   1      28.984  20.885  -7.027  0.00  0.00    -0.353 OA
HETATM   24  C   UNK N   1      30.092  20.069  -7.020  0.00  0.00     0.210 C 
ENDBRANCH  19  23
TORSDOF 2
ENDMDL
