MODEL 1
REMARK VINA RESULT:      -6.7      0.000      0.000
REMARK  9 active torsions:
REMARK  status: ('A' for Active; 'I' for Inactive)
REMARK    1  A    between atoms: C_1  and  N_7 
REMARK    2  A    between atoms: N_7  and  C_8 
REMARK    3  A    between atoms: C_9  and  C_14 
REMARK       I    between atoms: C_14  and  N_15 
REMARK    4  A    between atoms: N_15  and  O_17 
REMARK    5  A    between atoms: O_17  and  C_18 
REMARK    6  A    between atoms: C_18  and  C_19 
REMARK    7  A    between atoms: C_19  and  C_20 
REMARK    8  A    between atoms: C_19  and  O_21 
REMARK    9  A    between atoms: C_20  and  O_22 
ROOT
HETATM    1  C   UNK N   1      32.312  17.340   6.318  0.00  0.00     0.090 A 
HETATM    2  C   UNK N   1      32.649  17.549   7.676  0.00  0.00     0.064 A 
HETATM    3  C   UNK N   1      31.634  17.723   8.624  0.00  0.00     0.022 A 
HETATM    4  C   UNK N   1      30.295  17.624   8.255  0.00  0.00     0.046 A 
HETATM    5  C   UNK N   1      29.952  17.379   6.928  0.00  0.00     0.157 A 
HETATM    6  C   UNK N   1      30.949  17.247   5.953  0.00  0.00     0.182 A 
HETATM    7  F   UNK N   1      30.584  17.027   4.666  0.00  0.00    -0.200 F 
HETATM    8  F   UNK N   1      28.644  17.292   6.581  0.00  0.00    -0.203 F 
ENDROOT
BRANCH   2   9
HETATM    9  C   UNK N   1      34.054  17.687   8.124  0.00  0.00     0.277 C 
HETATM   10  N   UNK N   1      34.790  16.618   8.518  0.00  0.00    -0.231 N 
HETATM   11  H   UNK N   1      35.757  16.741   8.660  0.00  0.00     0.197 HD
HETATM   12  O   UNK N   1      34.539  18.799   8.223  0.00  0.00    -0.265 OA
BRANCH  10  13
HETATM   13  O   UNK N   1      34.261  15.400   8.722  0.00  0.00    -0.275 OA
BRANCH  13  14
HETATM   14  C   UNK N   1      35.188  14.668   9.517  0.00  0.00     0.235 C 
BRANCH  14  15
HETATM   15  C   UNK N   1      34.899  14.668  11.034  0.00  0.00     0.167 C 
BRANCH  15  16
HETATM   16  C   UNK N   1      35.811  15.649  11.750  0.00  0.00     0.198 C 
BRANCH  16  17
HETATM   17  O   UNK N   1      36.720  16.206  10.847  0.00  0.00    -0.398 OA
HETATM   18  H   UNK N   1      37.001  15.837   9.995  0.00  0.00     0.209 HD
ENDBRANCH  16  17
ENDBRANCH  15  16
BRANCH  15  19
HETATM   19  O   UNK N   1      33.567  15.016  11.266  0.00  0.00    -0.391 OA
HETATM   20  H   UNK N   1      33.050  14.552  11.942  0.00  0.00     0.210 HD
ENDBRANCH  15  19
ENDBRANCH  14  15
ENDBRANCH  13  14
ENDBRANCH  10  13
ENDBRANCH   2   9
BRANCH   1  21
HETATM   21  N   UNK N   1      33.349  17.303   5.338  0.00  0.00    -0.350 N 
HETATM   22  H   UNK N   1      33.807  18.148   5.125  0.00  0.00     0.166 HD
BRANCH  21  23
HETATM   23  C   UNK N   1      33.769  16.127   4.643  0.00  0.00     0.071 A 
HETATM   24  C   UNK N   1      34.469  15.096   5.296  0.00  0.00     0.034 A 
HETATM   25  C   UNK N   1      34.824  13.932   4.610  0.00  0.00     0.020 A 
HETATM   26  C   UNK N   1      34.471  13.777   3.268  0.00  0.00     0.009 A 
HETATM   27  C   UNK N   1      33.762  14.787   2.614  0.00  0.00     0.062 A 
HETATM   28  I   UNK N   1      34.985  12.013   2.240  0.00  0.00    -0.044 I 
HETATM   29  C   UNK N   1      33.411  15.958   3.296  0.00  0.00     0.144 A 
HETATM   30  F   UNK N   1      32.702  16.918   2.652  0.00  0.00    -0.204 F 
ENDBRANCH  21  23
ENDBRANCH   1  21
TORSDOF 9
ENDMDL
MODEL 2
REMARK VINA RESULT:      -6.7      8.069     11.633
REMARK  9 active torsions:
REMARK  status: ('A' for Active; 'I' for Inactive)
REMARK    1  A    between atoms: C_1  and  N_7 
REMARK    2  A    between atoms: N_7  and  C_8 
REMARK    3  A    between atoms: C_9  and  C_14 
REMARK       I    between atoms: C_14  and  N_15 
REMARK    4  A    between atoms: N_15  and  O_17 
REMARK    5  A    between atoms: O_17  and  C_18 
REMARK    6  A    between atoms: C_18  and  C_19 
REMARK    7  A    between atoms: C_19  and  C_20 
REMARK    8  A    between atoms: C_19  and  O_21 
REMARK    9  A    between atoms: C_20  and  O_22 
ROOT
HETATM    1  C   UNK N   1      35.686  13.424  16.687  0.00  0.00     0.090 A 
HETATM    2  C   UNK N   1      36.534  13.634  15.575  0.00  0.00     0.064 A 
HETATM    3  C   UNK N   1      37.250  14.832  15.465  0.00  0.00     0.022 A 
HETATM    4  C   UNK N   1      37.189  15.789  16.473  0.00  0.00     0.046 A 
HETATM    5  C   UNK N   1      36.389  15.575  17.593  0.00  0.00     0.157 A 
HETATM    6  C   UNK N   1      35.627  14.405  17.704  0.00  0.00     0.182 A 
HETATM    7  F   UNK N   1      34.843  14.232  18.796  0.00  0.00    -0.200 F 
HETATM    8  F   UNK N   1      36.334  16.518  18.565  0.00  0.00    -0.203 F 
ENDROOT
BRANCH   2   9
HETATM    9  C   UNK N   1      36.621  12.663  14.459  0.00  0.00     0.277 C 
HETATM   10  N   UNK N   1      35.951  12.846  13.295  0.00  0.00    -0.231 N 
HETATM   11  H   UNK N   1      36.160  12.257  12.534  0.00  0.00     0.197 HD
HETATM   12  O   UNK N   1      37.244  11.630  14.619  0.00  0.00    -0.265 OA
BRANCH  10  13
HETATM   13  O   UNK N   1      35.014  13.796  13.130  0.00  0.00    -0.275 OA
BRANCH  13  14
HETATM   14  C   UNK N   1      35.472  14.664  12.100  0.00  0.00     0.235 C 
BRANCH  14  15
HETATM   15  C   UNK N   1      34.556  14.756  10.860  0.00  0.00     0.167 C 
BRANCH  15  16
HETATM   16  C   UNK N   1      34.675  13.499  10.015  0.00  0.00     0.198 C 
BRANCH  16  17
HETATM   17  O   UNK N   1      34.262  12.385  10.751  0.00  0.00    -0.398 OA
HETATM   18  H   UNK N   1      33.357  12.157  11.012  0.00  0.00     0.209 HD
ENDBRANCH  16  17
ENDBRANCH  15  16
BRANCH  15  19
HETATM   19  O   UNK N   1      33.228  14.923  11.259  0.00  0.00    -0.391 OA
HETATM   20  H   UNK N   1      32.621  14.168  11.269  0.00  0.00     0.210 HD
ENDBRANCH  15  19
ENDBRANCH  14  15
ENDBRANCH  13  14
ENDBRANCH  10  13
ENDBRANCH   2   9
BRANCH   1  21
HETATM   21  N   UNK N   1      34.854  12.265  16.723  0.00  0.00    -0.350 N 
HETATM   22  H   UNK N   1      33.975  12.319  16.283  0.00  0.00     0.166 HD
BRANCH  21  23
HETATM   23  C   UNK N   1      35.206  11.031  17.352  0.00  0.00     0.071 A 
HETATM   24  C   UNK N   1      35.711  10.990  18.664  0.00  0.00     0.034 A 
HETATM   25  C   UNK N   1      35.999   9.768  19.278  0.00  0.00     0.020 A 
HETATM   26  C   UNK N   1      35.770   8.572  18.595  0.00  0.00     0.009 A 
HETATM   27  C   UNK N   1      35.253   8.599  17.298  0.00  0.00     0.062 A 
HETATM   28  I   UNK N   1      36.181   6.731  19.529  0.00  0.00    -0.044 I 
HETATM   29  C   UNK N   1      34.971   9.822  16.676  0.00  0.00     0.144 A 
HETATM   30  F   UNK N   1      34.448   9.829  15.426  0.00  0.00    -0.204 F 
ENDBRANCH  21  23
ENDBRANCH   1  21
TORSDOF 9
ENDMDL
MODEL 3
REMARK VINA RESULT:      -6.5      3.303      5.141
REMARK  9 active torsions:
REMARK  status: ('A' for Active; 'I' for Inactive)
REMARK    1  A    between atoms: C_1  and  N_7 
REMARK    2  A    between atoms: N_7  and  C_8 
REMARK    3  A    between atoms: C_9  and  C_14 
REMARK       I    between atoms: C_14  and  N_15 
REMARK    4  A    between atoms: N_15  and  O_17 
REMARK    5  A    between atoms: O_17  and  C_18 
REMARK    6  A    between atoms: C_18  and  C_19 
REMARK    7  A    between atoms: C_19  and  C_20 
REMARK    8  A    between atoms: C_19  and  O_21 
REMARK    9  A    between atoms: C_20  and  O_22 
ROOT
HETATM    1  C   UNK N   1      31.125  16.791   5.929  0.00  0.00     0.090 A 
HETATM    2  C   UNK N   1      32.136  17.280   6.788  0.00  0.00     0.064 A 
HETATM    3  C   UNK N   1      33.412  17.547   6.277  0.00  0.00     0.022 A 
HETATM    4  C   UNK N   1      33.675  17.400   4.918  0.00  0.00     0.046 A 
HETATM    5  C   UNK N   1      32.675  16.957   4.056  0.00  0.00     0.157 A 
HETATM    6  C   UNK N   1      31.405  16.640   4.551  0.00  0.00     0.182 A 
HETATM    7  F   UNK N   1      30.456  16.194   3.691  0.00  0.00    -0.200 F 
HETATM    8  F   UNK N   1      32.947  16.813   2.735  0.00  0.00    -0.203 F 
ENDROOT
BRANCH   2   9
HETATM    9  C   UNK N   1      31.923  17.433   8.246  0.00  0.00     0.277 C 
HETATM   10  N   UNK N   1      32.382  16.522   9.138  0.00  0.00    -0.231 N 
HETATM   11  H   UNK N   1      32.348  16.744  10.097  0.00  0.00     0.197 HD
HETATM   12  O   UNK N   1      31.244  18.359   8.653  0.00  0.00    -0.265 OA
BRANCH  10  13
HETATM   13  O   UNK N   1      32.882  15.328   8.775  0.00  0.00    -0.275 OA
BRANCH  13  14
HETATM   14  C   UNK N   1      34.272  15.346   9.077  0.00  0.00     0.235 C 
BRANCH  14  15
HETATM   15  C   UNK N   1      34.626  15.144  10.566  0.00  0.00     0.167 C 
BRANCH  15  16
HETATM   16  C   UNK N   1      35.383  16.347  11.102  0.00  0.00     0.198 C 
BRANCH  16  17
HETATM   17  O   UNK N   1      35.387  17.373  10.154  0.00  0.00    -0.398 OA
HETATM   18  H   UNK N   1      34.670  17.612   9.546  0.00  0.00     0.209 HD
ENDBRANCH  16  17
ENDBRANCH  15  16
BRANCH  15  19
HETATM   19  O   UNK N   1      33.460  14.959  11.312  0.00  0.00    -0.391 OA
HETATM   20  H   UNK N   1      33.505  14.863  12.276  0.00  0.00     0.210 HD
ENDBRANCH  15  19
ENDBRANCH  14  15
ENDBRANCH  13  14
ENDBRANCH  10  13
ENDBRANCH   2   9
BRANCH   1  21
HETATM   21  N   UNK N   1      29.872  16.389   6.482  0.00  0.00    -0.350 N 
HETATM   22  H   UNK N   1      29.883  15.719   7.204  0.00  0.00     0.166 HD
BRANCH  21  23
HETATM   23  C   UNK N   1      28.600  16.890   6.063  0.00  0.00     0.071 A 
HETATM   24  C   UNK N   1      28.356  18.270   5.940  0.00  0.00     0.034 A 
HETATM   25  C   UNK N   1      27.122  18.735   5.478  0.00  0.00     0.020 A 
HETATM   26  C   UNK N   1      26.123  17.828   5.118  0.00  0.00     0.009 A 
HETATM   27  C   UNK N   1      26.360  16.455   5.221  0.00  0.00     0.062 A 
HETATM   28  I   UNK N   1      24.272  18.528   4.399  0.00  0.00    -0.044 I 
HETATM   29  C   UNK N   1      27.593  15.985   5.691  0.00  0.00     0.144 A 
HETATM   30  F   UNK N   1      27.814  14.650   5.762  0.00  0.00    -0.204 F 
ENDBRANCH  21  23
ENDBRANCH   1  21
TORSDOF 9
ENDMDL
MODEL 4
REMARK VINA RESULT:      -6.4     14.027     15.849
REMARK  9 active torsions:
REMARK  status: ('A' for Active; 'I' for Inactive)
REMARK    1  A    between atoms: C_1  and  N_7 
REMARK    2  A    between atoms: N_7  and  C_8 
REMARK    3  A    between atoms: C_9  and  C_14 
REMARK       I    between atoms: C_14  and  N_15 
REMARK    4  A    between atoms: N_15  and  O_17 
REMARK    5  A    between atoms: O_17  and  C_18 
REMARK    6  A    between atoms: C_18  and  C_19 
REMARK    7  A    between atoms: C_19  and  C_20 
REMARK    8  A    between atoms: C_19  and  O_21 
REMARK    9  A    between atoms: C_20  and  O_22 
ROOT
HETATM    1  C   UNK N   1      25.784  25.843  -4.744  0.00  0.00     0.090 A 
HETATM    2  C   UNK N   1      26.690  25.648  -3.676  0.00  0.00     0.064 A 
HETATM    3  C   UNK N   1      27.235  26.757  -3.017  0.00  0.00     0.022 A 
HETATM    4  C   UNK N   1      26.842  28.047  -3.359  0.00  0.00     0.046 A 
HETATM    5  C   UNK N   1      25.920  28.250  -4.382  0.00  0.00     0.157 A 
HETATM    6  C   UNK N   1      25.396  27.159  -5.087  0.00  0.00     0.182 A 
HETATM    7  F   UNK N   1      24.513  27.387  -6.091  0.00  0.00    -0.200 F 
HETATM    8  F   UNK N   1      25.550  29.513  -4.709  0.00  0.00    -0.203 F 
ENDROOT
BRANCH   2   9
HETATM    9  C   UNK N   1      27.163  24.300  -3.284  0.00  0.00     0.277 C 
HETATM   10  N   UNK N   1      28.472  23.952  -3.351  0.00  0.00    -0.231 N 
HETATM   11  H   UNK N   1      28.754  23.103  -2.939  0.00  0.00     0.197 HD
HETATM   12  O   UNK N   1      26.348  23.452  -2.970  0.00  0.00    -0.265 OA
BRANCH  10  13
HETATM   13  O   UNK N   1      29.402  24.711  -3.956  0.00  0.00    -0.275 OA
BRANCH  13  14
HETATM   14  C   UNK N   1      30.673  24.248  -3.515  0.00  0.00     0.235 C 
BRANCH  14  15
HETATM   15  C   UNK N   1      30.670  22.858  -2.842  0.00  0.00     0.167 C 
BRANCH  15  16
HETATM   16  C   UNK N   1      31.946  22.102  -3.176  0.00  0.00     0.198 C 
BRANCH  16  17
HETATM   17  O   UNK N   1      32.377  21.375  -2.063  0.00  0.00    -0.398 OA
HETATM   18  H   UNK N   1      31.830  21.025  -1.343  0.00  0.00     0.209 HD
ENDBRANCH  16  17
ENDBRANCH  15  16
BRANCH  15  19
HETATM   19  O   UNK N   1      30.562  22.998  -1.457  0.00  0.00    -0.391 OA
HETATM   20  H   UNK N   1      30.622  22.222  -0.879  0.00  0.00     0.210 HD
ENDBRANCH  15  19
ENDBRANCH  14  15
ENDBRANCH  13  14
ENDBRANCH  10  13
ENDBRANCH   2   9
BRANCH   1  21
HETATM   21  N   UNK N   1      25.341  24.716  -5.500  0.00  0.00    -0.350 N 
HETATM   22  H   UNK N   1      24.484  24.304  -5.248  0.00  0.00     0.166 HD
BRANCH  21  23
HETATM   23  C   UNK N   1      26.055  24.143  -6.598  0.00  0.00     0.071 A 
HETATM   24  C   UNK N   1      27.030  24.872  -7.304  0.00  0.00     0.034 A 
HETATM   25  C   UNK N   1      27.753  24.274  -8.340  0.00  0.00     0.020 A 
HETATM   26  C   UNK N   1      27.522  22.938  -8.672  0.00  0.00     0.009 A 
HETATM   27  C   UNK N   1      26.568  22.200  -7.968  0.00  0.00     0.062 A 
HETATM   28  I   UNK N   1      28.627  22.030 -10.218  0.00  0.00    -0.044 I 
HETATM   29  C   UNK N   1      25.836  22.797  -6.934  0.00  0.00     0.144 A 
HETATM   30  F   UNK N   1      24.932  22.060  -6.245  0.00  0.00    -0.204 F 
ENDBRANCH  21  23
ENDBRANCH   1  21
TORSDOF 9
ENDMDL
MODEL 5
REMARK VINA RESULT:      -6.4      5.807      8.593
REMARK  9 active torsions:
REMARK  status: ('A' for Active; 'I' for Inactive)
REMARK    1  A    between atoms: C_1  and  N_7 
REMARK    2  A    between atoms: N_7  and  C_8 
REMARK    3  A    between atoms: C_9  and  C_14 
REMARK       I    between atoms: C_14  and  N_15 
REMARK    4  A    between atoms: N_15  and  O_17 
REMARK    5  A    between atoms: O_17  and  C_18 
REMARK    6  A    between atoms: C_18  and  C_19 
REMARK    7  A    between atoms: C_19  and  C_20 
REMARK    8  A    between atoms: C_19  and  O_21 
REMARK    9  A    between atoms: C_20  and  O_22 
ROOT
HETATM    1  C   UNK N   1      35.044  12.404  13.576  0.00  0.00     0.090 A 
HETATM    2  C   UNK N   1      36.215  13.186  13.438  0.00  0.00     0.064 A 
HETATM    3  C   UNK N   1      36.738  13.854  14.552  0.00  0.00     0.022 A 
HETATM    4  C   UNK N   1      36.157  13.702  15.807  0.00  0.00     0.046 A 
HETATM    5  C   UNK N   1      35.027  12.902  15.962  0.00  0.00     0.157 A 
HETATM    6  C   UNK N   1      34.459  12.261  14.855  0.00  0.00     0.182 A 
HETATM    7  F   UNK N   1      33.348  11.503  15.033  0.00  0.00    -0.200 F 
HETATM    8  F   UNK N   1      34.467  12.767  17.189  0.00  0.00    -0.203 F 
ENDROOT
BRANCH   2   9
HETATM    9  C   UNK N   1      36.864  13.404  12.124  0.00  0.00     0.277 C 
HETATM   10  N   UNK N   1      36.803  14.597  11.484  0.00  0.00    -0.231 N 
HETATM   11  H   UNK N   1      37.373  14.736  10.693  0.00  0.00     0.197 HD
HETATM   12  O   UNK N   1      37.397  12.465  11.562  0.00  0.00    -0.265 OA
BRANCH  10  13
HETATM   13  O   UNK N   1      35.999  15.600  11.878  0.00  0.00    -0.275 OA
BRANCH  13  14
HETATM   14  C   UNK N   1      35.367  16.114  10.711  0.00  0.00     0.235 C 
BRANCH  14  15
HETATM   15  C   UNK N   1      34.067  15.392  10.293  0.00  0.00     0.167 C 
BRANCH  15  16
HETATM   16  C   UNK N   1      34.338  14.425   9.153  0.00  0.00     0.198 C 
BRANCH  16  17
HETATM   17  O   UNK N   1      34.840  13.221   9.654  0.00  0.00    -0.398 OA
HETATM   18  H   UNK N   1      35.692  13.079  10.095  0.00  0.00     0.209 HD
ENDBRANCH  16  17
ENDBRANCH  15  16
BRANCH  15  19
HETATM   19  O   UNK N   1      33.540  14.692  11.381  0.00  0.00    -0.391 OA
HETATM   20  H   UNK N   1      33.651  15.031  12.282  0.00  0.00     0.210 HD
ENDBRANCH  15  19
ENDBRANCH  14  15
ENDBRANCH  13  14
ENDBRANCH  10  13
ENDBRANCH   2   9
BRANCH   1  21
HETATM   21  N   UNK N   1      34.439  11.841  12.413  0.00  0.00    -0.350 N 
HETATM   22  H   UNK N   1      33.971  12.452  11.799  0.00  0.00     0.166 HD
BRANCH  21  23
HETATM   23  C   UNK N   1      34.463  10.452  12.075  0.00  0.00     0.071 A 
HETATM   24  C   UNK N   1      35.237   9.530  12.803  0.00  0.00     0.034 A 
HETATM   25  C   UNK N   1      35.204   8.169  12.489  0.00  0.00     0.020 A 
HETATM   26  C   UNK N   1      34.387   7.710  11.453  0.00  0.00     0.009 A 
HETATM   27  C   UNK N   1      33.602   8.615  10.733  0.00  0.00     0.062 A 
HETATM   28  I   UNK N   1      34.320   5.657  10.994  0.00  0.00    -0.044 I 
HETATM   29  C   UNK N   1      33.638   9.981  11.041  0.00  0.00     0.144 A 
HETATM   30  F   UNK N   1      32.853  10.840  10.348  0.00  0.00    -0.204 F 
ENDBRANCH  21  23
ENDBRANCH   1  21
TORSDOF 9
ENDMDL
MODEL 6
REMARK VINA RESULT:      -6.4      3.396      5.098
REMARK  9 active torsions:
REMARK  status: ('A' for Active; 'I' for Inactive)
REMARK    1  A    between atoms: C_1  and  N_7 
REMARK    2  A    between atoms: N_7  and  C_8 
REMARK    3  A    between atoms: C_9  and  C_14 
REMARK       I    between atoms: C_14  and  N_15 
REMARK    4  A    between atoms: N_15  and  O_17 
REMARK    5  A    between atoms: O_17  and  C_18 
REMARK    6  A    between atoms: C_18  and  C_19 
REMARK    7  A    between atoms: C_19  and  C_20 
REMARK    8  A    between atoms: C_19  and  O_21 
REMARK    9  A    between atoms: C_20  and  O_22 
ROOT
HETATM    1  C   UNK N   1      34.890  15.577   7.125  0.00  0.00     0.090 A 
HETATM    2  C   UNK N   1      34.631  16.419   8.233  0.00  0.00     0.064 A 
HETATM    3  C   UNK N   1      34.834  15.937   9.532  0.00  0.00     0.022 A 
HETATM    4  C   UNK N   1      35.352  14.663   9.743  0.00  0.00     0.046 A 
HETATM    5  C   UNK N   1      35.648  13.841   8.658  0.00  0.00     0.157 A 
HETATM    6  C   UNK N   1      35.411  14.282   7.351  0.00  0.00     0.182 A 
HETATM    7  F   UNK N   1      35.693  13.453   6.315  0.00  0.00    -0.200 F 
HETATM    8  F   UNK N   1      36.147  12.599   8.878  0.00  0.00    -0.203 F 
ENDROOT
BRANCH   2   9
HETATM    9  C   UNK N   1      34.056  17.775   8.072  0.00  0.00     0.277 C 
HETATM   10  N   UNK N   1      32.738  18.023   8.270  0.00  0.00    -0.231 N 
HETATM   11  H   UNK N   1      32.436  18.960   8.300  0.00  0.00     0.197 HD
HETATM   12  O   UNK N   1      34.768  18.677   7.670  0.00  0.00    -0.265 OA
BRANCH  10  13
HETATM   13  O   UNK N   1      31.825  17.050   8.428  0.00  0.00    -0.275 OA
BRANCH  13  14
HETATM   14  C   UNK N   1      30.654  17.456   7.729  0.00  0.00     0.235 C 
BRANCH  14  15
HETATM   15  C   UNK N   1      29.643  18.277   8.559  0.00  0.00     0.167 C 
BRANCH  15  16
HETATM   16  C   UNK N   1      28.364  17.485   8.775  0.00  0.00     0.198 C 
BRANCH  16  17
HETATM   17  O   UNK N   1      27.397  18.292   9.378  0.00  0.00    -0.398 OA
HETATM   18  H   UNK N   1      27.218  19.228   9.198  0.00  0.00     0.209 HD
ENDBRANCH  16  17
ENDBRANCH  15  16
BRANCH  15  19
HETATM   19  O   UNK N   1      30.199  18.608   9.796  0.00  0.00    -0.391 OA
HETATM   20  H   UNK N   1      29.726  19.198  10.404  0.00  0.00     0.210 HD
ENDBRANCH  15  19
ENDBRANCH  14  15
ENDBRANCH  13  14
ENDBRANCH  10  13
ENDBRANCH   2   9
BRANCH   1  21
HETATM   21  N   UNK N   1      34.550  16.025   5.814  0.00  0.00    -0.350 N 
HETATM   22  H   UNK N   1      35.272  16.388   5.252  0.00  0.00     0.166 HD
BRANCH  21  23
HETATM   23  C   UNK N   1      33.234  15.983   5.257  0.00  0.00     0.071 A 
HETATM   24  C   UNK N   1      32.401  14.861   5.417  0.00  0.00     0.034 A 
HETATM   25  C   UNK N   1      31.099  14.864   4.910  0.00  0.00     0.020 A 
HETATM   26  C   UNK N   1      30.609  15.992   4.249  0.00  0.00     0.009 A 
HETATM   27  C   UNK N   1      31.422  17.118   4.097  0.00  0.00     0.062 A 
HETATM   28  I   UNK N   1      28.640  16.005   3.505  0.00  0.00    -0.044 I 
HETATM   29  C   UNK N   1      32.730  17.116   4.598  0.00  0.00     0.144 A 
HETATM   30  F   UNK N   1      33.496  18.226   4.463  0.00  0.00    -0.204 F 
ENDBRANCH  21  23
ENDBRANCH   1  21
TORSDOF 9
ENDMDL
MODEL 7
REMARK VINA RESULT:      -6.3      8.233     10.708
REMARK  9 active torsions:
REMARK  status: ('A' for Active; 'I' for Inactive)
REMARK    1  A    between atoms: C_1  and  N_7 
REMARK    2  A    between atoms: N_7  and  C_8 
REMARK    3  A    between atoms: C_9  and  C_14 
REMARK       I    between atoms: C_14  and  N_15 
REMARK    4  A    between atoms: N_15  and  O_17 
REMARK    5  A    between atoms: O_17  and  C_18 
REMARK    6  A    between atoms: C_18  and  C_19 
REMARK    7  A    between atoms: C_19  and  C_20 
REMARK    8  A    between atoms: C_19  and  O_21 
REMARK    9  A    between atoms: C_20  and  O_22 
ROOT
HETATM    1  C   UNK N   1      26.864  18.782   4.541  0.00  0.00     0.090 A 
HETATM    2  C   UNK N   1      26.385  20.105   4.392  0.00  0.00     0.064 A 
HETATM    3  C   UNK N   1      26.566  21.028   5.428  0.00  0.00     0.022 A 
HETATM    4  C   UNK N   1      27.272  20.677   6.576  0.00  0.00     0.046 A 
HETATM    5  C   UNK N   1      27.782  19.389   6.716  0.00  0.00     0.157 A 
HETATM    6  C   UNK N   1      27.574  18.434   5.713  0.00  0.00     0.182 A 
HETATM    7  F   UNK N   1      28.067  17.182   5.885  0.00  0.00    -0.200 F 
HETATM    8  F   UNK N   1      28.462  19.058   7.841  0.00  0.00    -0.203 F 
ENDROOT
BRANCH   2   9
HETATM    9  C   UNK N   1      25.607  20.530   3.206  0.00  0.00     0.277 C 
HETATM   10  N   UNK N   1      24.289  20.243   3.072  0.00  0.00    -0.231 N 
HETATM   11  H   UNK N   1      23.785  20.676   2.345  0.00  0.00     0.197 HD
HETATM   12  O   UNK N   1      26.182  21.080   2.284  0.00  0.00    -0.265 OA
BRANCH  10  13
HETATM   13  O   UNK N   1      23.637  19.396   3.887  0.00  0.00    -0.275 OA
BRANCH  13  14
HETATM   14  C   UNK N   1      22.262  19.436   3.520  0.00  0.00     0.235 C 
BRANCH  14  15
HETATM   15  C   UNK N   1      21.909  20.433   2.395  0.00  0.00     0.167 C 
BRANCH  15  16
HETATM   16  C   UNK N   1      20.552  20.101   1.797  0.00  0.00     0.198 C 
BRANCH  16  17
HETATM   17  O   UNK N   1      20.695  19.745   0.453  0.00  0.00    -0.398 OA
HETATM   18  H   UNK N   1      20.608  18.859   0.068  0.00  0.00     0.209 HD
ENDBRANCH  16  17
ENDBRANCH  15  16
BRANCH  15  19
HETATM   19  O   UNK N   1      21.888  21.734   2.900  0.00  0.00    -0.391 OA
HETATM   20  H   UNK N   1      21.075  22.100   3.280  0.00  0.00     0.210 HD
ENDBRANCH  15  19
ENDBRANCH  14  15
ENDBRANCH  13  14
ENDBRANCH  10  13
ENDBRANCH   2   9
BRANCH   1  21
HETATM   21  N   UNK N   1      26.553  17.810   3.543  0.00  0.00    -0.350 N 
HETATM   22  H   UNK N   1      26.956  17.925   2.651  0.00  0.00     0.166 HD
BRANCH  21  23
HETATM   23  C   UNK N   1      25.699  16.682   3.744  0.00  0.00     0.071 A 
HETATM   24  C   UNK N   1      24.914  16.549   4.904  0.00  0.00     0.034 A 
HETATM   25  C   UNK N   1      24.047  15.464   5.056  0.00  0.00     0.020 A 
HETATM   26  C   UNK N   1      23.941  14.507   4.044  0.00  0.00     0.009 A 
HETATM   27  C   UNK N   1      24.704  14.637   2.881  0.00  0.00     0.062 A 
HETATM   28  I   UNK N   1      22.617  12.885   4.263  0.00  0.00    -0.044 I 
HETATM   29  C   UNK N   1      25.580  15.719   2.729  0.00  0.00     0.144 A 
HETATM   30  F   UNK N   1      26.295  15.841   1.584  0.00  0.00    -0.204 F 
ENDBRANCH  21  23
ENDBRANCH   1  21
TORSDOF 9
ENDMDL
MODEL 8
REMARK VINA RESULT:      -6.3      5.753      9.064
REMARK  9 active torsions:
REMARK  status: ('A' for Active; 'I' for Inactive)
REMARK    1  A    between atoms: C_1  and  N_7 
REMARK    2  A    between atoms: N_7  and  C_8 
REMARK    3  A    between atoms: C_9  and  C_14 
REMARK       I    between atoms: C_14  and  N_15 
REMARK    4  A    between atoms: N_15  and  O_17 
REMARK    5  A    between atoms: O_17  and  C_18 
REMARK    6  A    between atoms: C_18  and  C_19 
REMARK    7  A    between atoms: C_19  and  C_20 
REMARK    8  A    between atoms: C_19  and  O_21 
REMARK    9  A    between atoms: C_20  and  O_22 
ROOT
HETATM    1  C   UNK N   1      35.629  12.790  11.388  0.00  0.00     0.090 A 
HETATM    2  C   UNK N   1      36.037  14.065  10.931  0.00  0.00     0.064 A 
HETATM    3  C   UNK N   1      37.112  14.171  10.040  0.00  0.00     0.022 A 
HETATM    4  C   UNK N   1      37.738  13.030   9.546  0.00  0.00     0.046 A 
HETATM    5  C   UNK N   1      37.318  11.768   9.959  0.00  0.00     0.157 A 
HETATM    6  C   UNK N   1      36.276  11.638  10.884  0.00  0.00     0.182 A 
HETATM    7  F   UNK N   1      35.900  10.397  11.282  0.00  0.00    -0.200 F 
HETATM    8  F   UNK N   1      37.941  10.665   9.475  0.00  0.00    -0.203 F 
ENDROOT
BRANCH   2   9
HETATM    9  C   UNK N   1      35.425  15.315  11.438  0.00  0.00     0.277 C 
HETATM   10  N   UNK N   1      34.498  16.001  10.725  0.00  0.00    -0.231 N 
HETATM   11  H   UNK N   1      34.014  16.735  11.168  0.00  0.00     0.197 HD
HETATM   12  O   UNK N   1      35.824  15.788  12.486  0.00  0.00    -0.265 OA
BRANCH  10  13
HETATM   13  O   UNK N   1      34.208  15.724   9.442  0.00  0.00    -0.275 OA
BRANCH  13  14
HETATM   14  C   UNK N   1      34.587  16.860   8.673  0.00  0.00     0.235 C 
BRANCH  14  15
HETATM   15  C   UNK N   1      33.781  17.073   7.373  0.00  0.00     0.167 C 
BRANCH  15  16
HETATM   16  C   UNK N   1      32.363  17.517   7.692  0.00  0.00     0.198 C 
BRANCH  16  17
HETATM   17  O   UNK N   1      32.157  17.509   9.074  0.00  0.00    -0.398 OA
HETATM   18  H   UNK N   1      32.487  18.153   9.720  0.00  0.00     0.209 HD
ENDBRANCH  16  17
ENDBRANCH  15  16
BRANCH  15  19
HETATM   19  O   UNK N   1      34.402  18.038   6.579  0.00  0.00    -0.391 OA
HETATM   20  H   UNK N   1      34.758  18.847   6.979  0.00  0.00     0.210 HD
ENDBRANCH  15  19
ENDBRANCH  14  15
ENDBRANCH  13  14
ENDBRANCH  10  13
ENDBRANCH   2   9
BRANCH   1  21
HETATM   21  N   UNK N   1      34.627  12.699  12.400  0.00  0.00    -0.350 N 
HETATM   22  H   UNK N   1      33.716  12.991  12.170  0.00  0.00     0.166 HD
BRANCH  21  23
HETATM   23  C   UNK N   1      34.854  12.215  13.726  0.00  0.00     0.071 A 
HETATM   24  C   UNK N   1      35.656  12.920  14.642  0.00  0.00     0.034 A 
HETATM   25  C   UNK N   1      35.820  12.455  15.949  0.00  0.00     0.020 A 
HETATM   26  C   UNK N   1      35.173  11.288  16.362  0.00  0.00     0.009 A 
HETATM   27  C   UNK N   1      34.362  10.588  15.466  0.00  0.00     0.062 A 
HETATM   28  I   UNK N   1      35.403  10.600  18.338  0.00  0.00    -0.044 I 
HETATM   29  C   UNK N   1      34.201  11.047  14.153  0.00  0.00     0.144 A 
HETATM   30  F   UNK N   1      33.390  10.368  13.305  0.00  0.00    -0.204 F 
ENDBRANCH  21  23
ENDBRANCH   1  21
TORSDOF 9
ENDMDL
MODEL 9
REMARK VINA RESULT:      -6.3      4.743      7.188
REMARK  9 active torsions:
REMARK  status: ('A' for Active; 'I' for Inactive)
REMARK    1  A    between atoms: C_1  and  N_7 
REMARK    2  A    between atoms: N_7  and  C_8 
REMARK    3  A    between atoms: C_9  and  C_14 
REMARK       I    between atoms: C_14  and  N_15 
REMARK    4  A    between atoms: N_15  and  O_17 
REMARK    5  A    between atoms: O_17  and  C_18 
REMARK    6  A    between atoms: C_18  and  C_19 
REMARK    7  A    between atoms: C_19  and  C_20 
REMARK    8  A    between atoms: C_19  and  O_21 
REMARK    9  A    between atoms: C_20  and  O_22 
ROOT
HETATM    1  C   UNK N   1      29.620  17.570   6.491  0.00  0.00     0.090 A 
HETATM    2  C   UNK N   1      29.455  17.895   7.858  0.00  0.00     0.064 A 
HETATM    3  C   UNK N   1      30.542  17.777   8.734  0.00  0.00     0.022 A 
HETATM    4  C   UNK N   1      31.798  17.410   8.260  0.00  0.00     0.046 A 
HETATM    5  C   UNK N   1      31.980  17.128   6.909  0.00  0.00     0.157 A 
HETATM    6  C   UNK N   1      30.899  17.193   6.021  0.00  0.00     0.182 A 
HETATM    7  F   UNK N   1      31.102  16.895   4.714  0.00  0.00    -0.200 F 
HETATM    8  F   UNK N   1      33.207  16.766   6.461  0.00  0.00    -0.203 F 
ENDROOT
BRANCH   2   9
HETATM    9  C   UNK N   1      28.139  18.267   8.425  0.00  0.00     0.277 C 
HETATM   10  N   UNK N   1      27.412  19.301   7.934  0.00  0.00    -0.231 N 
HETATM   11  H   UNK N   1      26.484  19.411   8.242  0.00  0.00     0.197 HD
HETATM   12  O   UNK N   1      27.732  17.684   9.414  0.00  0.00    -0.265 OA
BRANCH  10  13
HETATM   13  O   UNK N   1      27.901  20.182   7.045  0.00  0.00    -0.275 OA
BRANCH  13  14
HETATM   14  C   UNK N   1      26.800  20.939   6.556  0.00  0.00     0.235 C 
BRANCH  14  15
HETATM   15  C   UNK N   1      26.037  20.303   5.373  0.00  0.00     0.167 C 
BRANCH  15  16
HETATM   16  C   UNK N   1      26.825  20.463   4.084  0.00  0.00     0.198 C 
BRANCH  16  17
HETATM   17  O   UNK N   1      28.121  19.970   4.250  0.00  0.00    -0.398 OA
HETATM   18  H   UNK N   1      28.380  19.113   4.623  0.00  0.00     0.209 HD
ENDBRANCH  16  17
ENDBRANCH  15  16
BRANCH  15  19
HETATM   19  O   UNK N   1      25.819  18.946   5.620  0.00  0.00    -0.391 OA
HETATM   20  H   UNK N   1      25.759  18.318   4.884  0.00  0.00     0.210 HD
ENDBRANCH  15  19
ENDBRANCH  14  15
ENDBRANCH  13  14
ENDBRANCH  10  13
ENDBRANCH   2   9
BRANCH   1  21
HETATM   21  N   UNK N   1      28.478  17.557   5.635  0.00  0.00    -0.350 N 
HETATM   22  H   UNK N   1      27.969  18.394   5.538  0.00  0.00     0.166 HD
BRANCH  21  23
HETATM   23  C   UNK N   1      28.021  16.415   4.907  0.00  0.00     0.071 A 
HETATM   24  C   UNK N   1      28.299  16.253   3.538  0.00  0.00     0.034 A 
HETATM   25  C   UNK N   1      27.888  15.103   2.859  0.00  0.00     0.020 A 
HETATM   26  C   UNK N   1      27.207  14.094   3.544  0.00  0.00     0.009 A 
HETATM   27  C   UNK N   1      26.939  14.237   4.907  0.00  0.00     0.062 A 
HETATM   28  I   UNK N   1      26.607  12.351   2.527  0.00  0.00    -0.044 I 
HETATM   29  C   UNK N   1      27.343  15.391   5.589  0.00  0.00     0.144 A 
HETATM   30  F   UNK N   1      27.096  15.502   6.917  0.00  0.00    -0.204 F 
ENDBRANCH  21  23
ENDBRANCH   1  21
TORSDOF 9
ENDMDL
