MODEL 1
REMARK VINA RESULT:      -6.7      0.000      0.000
REMARK  5 active torsions:
REMARK  status: ('A' for Active; 'I' for Inactive)
REMARK    1  A    between atoms: O_2  and  C_12 
REMARK    2  A    between atoms: O_2  and  C_21 
REMARK       I    between atoms: N_7  and  C_13 
REMARK    3  A    between atoms: N_7  and  C_17 
REMARK    4  A    between atoms: N_10  and  C_19 
REMARK    5  A    between atoms: C_11  and  C_13 
ROOT
HETATM    1  O   UNK N   1      19.235  15.786   5.111  0.00  0.00    -0.267 OA
HETATM    2  N   UNK N   1      21.238  16.784   5.121  0.00  0.00    -0.303 N 
HETATM    3  C   UNK N   1      20.323  15.921   5.648  0.00  0.00     0.260 C 
HETATM    4  H   UNK N   1      22.109  16.876   5.571  0.00  0.00     0.171 HD
ENDROOT
BRANCH   3   5
HETATM    5  C   UNK N   1      20.624  15.132   6.877  0.00  0.00     0.066 A 
HETATM    6  C   UNK N   1      20.720  15.774   8.139  0.00  0.00     0.094 A 
HETATM    7  C   UNK N   1      21.005  15.007   9.281  0.00  0.00     0.038 A 
HETATM    8  C   UNK N   1      21.193  13.628   9.182  0.00  0.00     0.003 A 
HETATM    9  C   UNK N   1      21.098  12.998   7.941  0.00  0.00     0.001 A 
HETATM   10  C   UNK N   1      20.816  13.744   6.793  0.00  0.00     0.020 A 
BRANCH   6  11
HETATM   11  O   UNK N   1      20.532  17.121   8.209  0.00  0.00    -0.278 OA
BRANCH  11  12
HETATM   12  C   UNK N   1      19.602  17.826   8.903  0.00  0.00     0.260 C 
HETATM   13  O   UNK N   1      19.870  18.893   9.431  0.00  0.00    -0.265 OA
HETATM   14  C   UNK N   1      18.222  17.274   9.016  0.00  0.00     0.126 C 
ENDBRANCH  11  12
ENDBRANCH   6  11
ENDBRANCH   3   5
BRANCH   2  15
HETATM   15  C   UNK N   1      20.994  17.560   3.947  0.00  0.00     0.153 A 
HETATM   16  S   UNK N   1      21.500  19.113   3.658  0.00  0.00    -0.028 SA
HETATM   17  C   UNK N   1      20.844  19.269   2.162  0.00  0.00     0.162 A 
HETATM   18  C   UNK N   1      20.198  18.056   1.867  0.00  0.00     0.134 A 
HETATM   19  N   UNK N   1      20.290  17.108   2.874  0.00  0.00    -0.343 N 
ATOM     20  HN  UNK N   1      19.876  16.177   2.817  1.00  0.00     0.167 HD
BRANCH  17  21
HETATM   21  N   UNK N   1      20.927  20.421   1.342  0.00  0.00    -0.107 N 
HETATM   22  O   UNK N   1      20.927  20.301   0.032  0.00  0.00    -0.531 OA
HETATM   23  O   UNK N   1      20.997  21.504   1.837  0.00  0.00    -0.531 OA
ENDBRANCH  17  21
ENDBRANCH   2  15
TORSDOF 5
ENDMDL
MODEL 2
REMARK VINA RESULT:      -6.6      1.834      2.126
REMARK  5 active torsions:
REMARK  status: ('A' for Active; 'I' for Inactive)
REMARK    1  A    between atoms: O_2  and  C_12 
REMARK    2  A    between atoms: O_2  and  C_21 
REMARK       I    between atoms: N_7  and  C_13 
REMARK    3  A    between atoms: N_7  and  C_17 
REMARK    4  A    between atoms: N_10  and  C_19 
REMARK    5  A    between atoms: C_11  and  C_13 
ROOT
HETATM    1  O   UNK N   1      21.885  14.956   5.594  0.00  0.00    -0.267 OA
HETATM    2  N   UNK N   1      22.102  16.842   6.779  0.00  0.00    -0.303 N 
HETATM    3  C   UNK N   1      21.882  15.499   6.687  0.00  0.00     0.260 C 
HETATM    4  H   UNK N   1      22.095  17.258   7.671  0.00  0.00     0.171 HD
ENDROOT
BRANCH   3   5
HETATM    5  C   UNK N   1      21.636  14.673   7.903  0.00  0.00     0.066 A 
HETATM    6  C   UNK N   1      20.445  14.838   8.658  0.00  0.00     0.094 A 
HETATM    7  C   UNK N   1      20.237  14.047   9.799  0.00  0.00     0.038 A 
HETATM    8  C   UNK N   1      21.189  13.105  10.193  0.00  0.00     0.003 A 
HETATM    9  C   UNK N   1      22.359  12.943   9.451  0.00  0.00     0.001 A 
HETATM   10  C   UNK N   1      22.583  13.722   8.312  0.00  0.00     0.020 A 
BRANCH   6  11
HETATM   11  O   UNK N   1      19.532  15.764   8.252  0.00  0.00    -0.278 OA
BRANCH  11  12
HETATM   12  C   UNK N   1      19.227  16.969   8.798  0.00  0.00     0.260 C 
HETATM   13  O   UNK N   1      20.049  17.868   8.864  0.00  0.00    -0.265 OA
HETATM   14  C   UNK N   1      17.850  17.189   9.326  0.00  0.00     0.126 C 
ENDBRANCH  11  12
ENDBRANCH   6  11
ENDBRANCH   3   5
BRANCH   2  15
HETATM   15  C   UNK N   1      22.343  17.674   5.643  0.00  0.00     0.153 A 
HETATM   16  S   UNK N   1      21.247  18.660   4.882  0.00  0.00    -0.028 SA
HETATM   17  C   UNK N   1      22.259  19.242   3.729  0.00  0.00     0.162 A 
HETATM   18  C   UNK N   1      23.513  18.643   3.941  0.00  0.00     0.134 A 
HETATM   19  N   UNK N   1      23.546  17.768   5.016  0.00  0.00    -0.343 N 
ATOM     20  HN  UNK N   1      24.379  17.253   5.303  1.00  0.00     0.167 HD
BRANCH  17  21
HETATM   21  N   UNK N   1      21.910  20.172   2.720  0.00  0.00    -0.107 N 
HETATM   22  O   UNK N   1      22.423  21.384   2.732  0.00  0.00    -0.531 OA
HETATM   23  O   UNK N   1      21.150  19.860   1.855  0.00  0.00    -0.531 OA
ENDBRANCH  17  21
ENDBRANCH   2  15
TORSDOF 5
ENDMDL
MODEL 3
REMARK VINA RESULT:      -6.5     12.992     14.549
REMARK  5 active torsions:
REMARK  status: ('A' for Active; 'I' for Inactive)
REMARK    1  A    between atoms: O_2  and  C_12 
REMARK    2  A    between atoms: O_2  and  C_21 
REMARK       I    between atoms: N_7  and  C_13 
REMARK    3  A    between atoms: N_7  and  C_17 
REMARK    4  A    between atoms: N_10  and  C_19 
REMARK    5  A    between atoms: C_11  and  C_13 
ROOT
HETATM    1  O   UNK N   1      31.866  15.262   9.436  0.00  0.00    -0.267 OA
HETATM    2  N   UNK N   1      33.223  16.956   8.890  0.00  0.00    -0.303 N 
HETATM    3  C   UNK N   1      32.005  16.341   8.883  0.00  0.00     0.260 C 
HETATM    4  H   UNK N   1      33.311  17.826   8.438  0.00  0.00     0.171 HD
ENDROOT
BRANCH   3   5
HETATM    5  C   UNK N   1      30.830  16.963   8.209  0.00  0.00     0.066 A 
HETATM    6  C   UNK N   1      30.792  17.084   6.795  0.00  0.00     0.094 A 
HETATM    7  C   UNK N   1      29.673  17.674   6.185  0.00  0.00     0.038 A 
HETATM    8  C   UNK N   1      28.606  18.138   6.955  0.00  0.00     0.003 A 
HETATM    9  C   UNK N   1      28.644  18.018   8.345  0.00  0.00     0.001 A 
HETATM   10  C   UNK N   1      29.749  17.434   8.969  0.00  0.00     0.020 A 
BRANCH   6  11
HETATM   11  O   UNK N   1      31.846  16.624   6.066  0.00  0.00    -0.278 OA
BRANCH  11  12
HETATM   12  C   UNK N   1      32.803  17.320   5.400  0.00  0.00     0.260 C 
HETATM   13  O   UNK N   1      33.754  17.816   5.980  0.00  0.00    -0.265 OA
HETATM   14  C   UNK N   1      32.677  17.477   3.923  0.00  0.00     0.126 C 
ENDBRANCH  11  12
ENDBRANCH   6  11
ENDBRANCH   3   5
BRANCH   2  15
HETATM   15  C   UNK N   1      34.376  16.399   9.523  0.00  0.00     0.153 A 
HETATM   16  S   UNK N   1      35.306  15.143   8.968  0.00  0.00    -0.028 SA
HETATM   17  C   UNK N   1      36.380  15.118  10.208  0.00  0.00     0.162 A 
HETATM   18  C   UNK N   1      36.001  16.135  11.102  0.00  0.00     0.134 A 
HETATM   19  N   UNK N   1      34.878  16.844  10.707  0.00  0.00    -0.343 N 
ATOM     20  HN  UNK N   1      34.474  17.613  11.243  1.00  0.00     0.167 HD
BRANCH  17  21
HETATM   21  N   UNK N   1      37.475  14.228  10.332  0.00  0.00    -0.107 N 
HETATM   22  O   UNK N   1      38.502  14.325   9.515  0.00  0.00    -0.531 OA
HETATM   23  O   UNK N   1      37.470  13.388  11.178  0.00  0.00    -0.531 OA
ENDBRANCH  17  21
ENDBRANCH   2  15
TORSDOF 5
ENDMDL
MODEL 4
REMARK VINA RESULT:      -6.5     14.753     15.976
REMARK  5 active torsions:
REMARK  status: ('A' for Active; 'I' for Inactive)
REMARK    1  A    between atoms: O_2  and  C_12 
REMARK    2  A    between atoms: O_2  and  C_21 
REMARK       I    between atoms: N_7  and  C_13 
REMARK    3  A    between atoms: N_7  and  C_17 
REMARK    4  A    between atoms: N_10  and  C_19 
REMARK    5  A    between atoms: C_11  and  C_13 
ROOT
HETATM    1  O   UNK N   1      36.054  12.696  10.512  0.00  0.00    -0.267 OA
HETATM    2  N   UNK N   1      34.147  13.741  11.045  0.00  0.00    -0.303 N 
HETATM    3  C   UNK N   1      35.079  12.764  11.244  0.00  0.00     0.260 C 
HETATM    4  H   UNK N   1      33.369  13.775  11.647  0.00  0.00     0.171 HD
ENDROOT
BRANCH   3   5
HETATM    5  C   UNK N   1      34.932  11.769  12.344  0.00  0.00     0.066 A 
HETATM    6  C   UNK N   1      34.894  12.193  13.698  0.00  0.00     0.094 A 
HETATM    7  C   UNK N   1      34.755  11.236  14.716  0.00  0.00     0.038 A 
HETATM    8  C   UNK N   1      34.653   9.879  14.405  0.00  0.00     0.003 A 
HETATM    9  C   UNK N   1      34.690   9.462  13.074  0.00  0.00     0.001 A 
HETATM   10  C   UNK N   1      34.828  10.401  12.048  0.00  0.00     0.020 A 
BRANCH   6  11
HETATM   11  O   UNK N   1      34.995  13.523  13.975  0.00  0.00    -0.278 OA
BRANCH  11  12
HETATM   12  C   UNK N   1      36.105  14.287  14.137  0.00  0.00     0.260 C 
HETATM   13  O   UNK N   1      36.418  15.142  13.324  0.00  0.00    -0.265 OA
HETATM   14  C   UNK N   1      36.957  14.069  15.340  0.00  0.00     0.126 C 
ENDBRANCH  11  12
ENDBRANCH   6  11
ENDBRANCH   3   5
BRANCH   2  15
HETATM   15  C   UNK N   1      34.246  14.715  10.005  0.00  0.00     0.153 A 
HETATM   16  S   UNK N   1      34.630  16.319  10.177  0.00  0.00    -0.028 SA
HETATM   17  C   UNK N   1      34.536  16.726   8.591  0.00  0.00     0.162 A 
HETATM   18  C   UNK N   1      34.188  15.559   7.886  0.00  0.00     0.134 A 
HETATM   19  N   UNK N   1      34.028  14.441   8.690  0.00  0.00    -0.343 N 
ATOM     20  HN  UNK N   1      33.777  13.518   8.335  1.00  0.00     0.167 HD
BRANCH  17  21
HETATM   21  N   UNK N   1      34.766  18.016   8.056  0.00  0.00    -0.107 N 
HETATM   22  O   UNK N   1      35.311  18.954   8.800  0.00  0.00    -0.531 OA
HETATM   23  O   UNK N   1      34.465  18.258   6.927  0.00  0.00    -0.531 OA
ENDBRANCH  17  21
ENDBRANCH   2  15
TORSDOF 5
ENDMDL
MODEL 5
REMARK VINA RESULT:      -6.4     12.983     14.659
REMARK  5 active torsions:
REMARK  status: ('A' for Active; 'I' for Inactive)
REMARK    1  A    between atoms: O_2  and  C_12 
REMARK    2  A    between atoms: O_2  and  C_21 
REMARK       I    between atoms: N_7  and  C_13 
REMARK    3  A    between atoms: N_7  and  C_17 
REMARK    4  A    between atoms: N_10  and  C_19 
REMARK    5  A    between atoms: C_11  and  C_13 
ROOT
HETATM    1  O   UNK N   1      34.589  17.837   7.450  0.00  0.00    -0.267 OA
HETATM    2  N   UNK N   1      33.413  16.130   8.294  0.00  0.00    -0.303 N 
HETATM    3  C   UNK N   1      33.643  17.074   7.337  0.00  0.00     0.260 C 
HETATM    4  H   UNK N   1      32.644  15.527   8.181  0.00  0.00     0.171 HD
ENDROOT
BRANCH   3   5
HETATM    5  C   UNK N   1      32.757  17.197   6.144  0.00  0.00     0.066 A 
HETATM    6  C   UNK N   1      31.350  17.070   6.277  0.00  0.00     0.094 A 
HETATM    7  C   UNK N   1      30.538  17.190   5.138  0.00  0.00     0.038 A 
HETATM    8  C   UNK N   1      31.102  17.430   3.884  0.00  0.00     0.003 A 
HETATM    9  C   UNK N   1      32.486  17.554   3.754  0.00  0.00     0.001 A 
HETATM   10  C   UNK N   1      33.311  17.438   4.877  0.00  0.00     0.020 A 
BRANCH   6  11
HETATM   11  O   UNK N   1      30.823  16.836   7.511  0.00  0.00    -0.278 OA
BRANCH  11  12
HETATM   12  C   UNK N   1      29.908  17.558   8.208  0.00  0.00     0.260 C 
HETATM   13  O   UNK N   1      28.716  17.306   8.151  0.00  0.00    -0.265 OA
HETATM   14  C   UNK N   1      30.383  18.683   9.061  0.00  0.00     0.126 C 
ENDBRANCH  11  12
ENDBRANCH   6  11
ENDBRANCH   3   5
BRANCH   2  15
HETATM   15  C   UNK N   1      34.234  15.976   9.453  0.00  0.00     0.153 A 
HETATM   16  S   UNK N   1      34.744  14.549  10.128  0.00  0.00    -0.028 SA
HETATM   17  C   UNK N   1      35.601  15.201  11.365  0.00  0.00     0.162 A 
HETATM   18  C   UNK N   1      35.489  16.598  11.253  0.00  0.00     0.134 A 
HETATM   19  N   UNK N   1      34.721  17.018  10.179  0.00  0.00    -0.343 N 
ATOM     20  HN  UNK N   1      34.541  17.998   9.958  1.00  0.00     0.167 HD
BRANCH  17  21
HETATM   21  N   UNK N   1      36.313  14.472  12.349  0.00  0.00    -0.107 N 
HETATM   22  O   UNK N   1      36.374  14.916  13.586  0.00  0.00    -0.531 OA
HETATM   23  O   UNK N   1      36.859  13.452  12.059  0.00  0.00    -0.531 OA
ENDBRANCH  17  21
ENDBRANCH   2  15
TORSDOF 5
ENDMDL
MODEL 6
REMARK VINA RESULT:      -6.4      8.235      8.834
REMARK  5 active torsions:
REMARK  status: ('A' for Active; 'I' for Inactive)
REMARK    1  A    between atoms: O_2  and  C_12 
REMARK    2  A    between atoms: O_2  and  C_21 
REMARK       I    between atoms: N_7  and  C_13 
REMARK    3  A    between atoms: N_7  and  C_17 
REMARK    4  A    between atoms: N_10  and  C_19 
REMARK    5  A    between atoms: C_11  and  C_13 
ROOT
HETATM    1  O   UNK N   1      28.600  16.749   4.183  0.00  0.00    -0.267 OA
HETATM    2  N   UNK N   1      28.426  18.769   5.132  0.00  0.00    -0.303 N 
HETATM    3  C   UNK N   1      29.133  17.646   4.818  0.00  0.00     0.260 C 
HETATM    4  H   UNK N   1      28.877  19.479   5.644  0.00  0.00     0.171 HD
ENDROOT
BRANCH   3   5
HETATM    5  C   UNK N   1      30.555  17.486   5.236  0.00  0.00     0.066 A 
HETATM    6  C   UNK N   1      30.881  17.205   6.588  0.00  0.00     0.094 A 
HETATM    7  C   UNK N   1      32.228  17.059   6.956  0.00  0.00     0.038 A 
HETATM    8  C   UNK N   1      33.242  17.189   6.005  0.00  0.00     0.003 A 
HETATM    9  C   UNK N   1      32.921  17.465   4.676  0.00  0.00     0.001 A 
HETATM   10  C   UNK N   1      31.585  17.613   4.291  0.00  0.00     0.020 A 
BRANCH   6  11
HETATM   11  O   UNK N   1      29.873  17.083   7.497  0.00  0.00    -0.278 OA
BRANCH  11  12
HETATM   12  C   UNK N   1      29.310  18.029   8.291  0.00  0.00     0.260 C 
HETATM   13  O   UNK N   1      28.158  18.397   8.130  0.00  0.00    -0.265 OA
HETATM   14  C   UNK N   1      30.129  18.628   9.383  0.00  0.00     0.126 C 
ENDBRANCH  11  12
ENDBRANCH   6  11
ENDBRANCH   3   5
BRANCH   2  15
HETATM   15  C   UNK N   1      27.063  18.967   4.753  0.00  0.00     0.153 A 
HETATM   16  S   UNK N   1      26.483  20.074   3.663  0.00  0.00    -0.028 SA
HETATM   17  C   UNK N   1      24.896  19.678   3.790  0.00  0.00     0.162 A 
HETATM   18  C   UNK N   1      24.807  18.632   4.726  0.00  0.00     0.134 A 
HETATM   19  N   UNK N   1      26.026  18.244   5.257  0.00  0.00    -0.343 N 
ATOM     20  HN  UNK N   1      26.134  17.500   5.947  1.00  0.00     0.167 HD
BRANCH  17  21
HETATM   21  N   UNK N   1      23.835  20.289   3.079  0.00  0.00    -0.107 N 
HETATM   22  O   UNK N   1      22.589  20.098   3.457  0.00  0.00    -0.531 OA
HETATM   23  O   UNK N   1      24.067  20.981   2.135  0.00  0.00    -0.531 OA
ENDBRANCH  17  21
ENDBRANCH   2  15
TORSDOF 5
ENDMDL
MODEL 7
REMARK VINA RESULT:      -6.2     13.931     15.653
REMARK  5 active torsions:
REMARK  status: ('A' for Active; 'I' for Inactive)
REMARK    1  A    between atoms: O_2  and  C_12 
REMARK    2  A    between atoms: O_2  and  C_21 
REMARK       I    between atoms: N_7  and  C_13 
REMARK    3  A    between atoms: N_7  and  C_17 
REMARK    4  A    between atoms: N_10  and  C_19 
REMARK    5  A    between atoms: C_11  and  C_13 
ROOT
HETATM    1  O   UNK N   1      35.204  14.093   6.789  0.00  0.00    -0.267 OA
HETATM    2  N   UNK N   1      33.708  14.834   8.280  0.00  0.00    -0.303 N 
HETATM    3  C   UNK N   1      34.232  14.793   7.021  0.00  0.00     0.260 C 
HETATM    4  H   UNK N   1      32.924  15.406   8.443  0.00  0.00     0.171 HD
ENDROOT
BRANCH   3   5
HETATM    5  C   UNK N   1      33.637  15.592   5.912  0.00  0.00     0.066 A 
HETATM    6  C   UNK N   1      33.852  16.993   5.837  0.00  0.00     0.094 A 
HETATM    7  C   UNK N   1      33.280  17.722   4.782  0.00  0.00     0.038 A 
HETATM    8  C   UNK N   1      32.507  17.081   3.813  0.00  0.00     0.003 A 
HETATM    9  C   UNK N   1      32.296  15.704   3.887  0.00  0.00     0.001 A 
HETATM   10  C   UNK N   1      32.857  14.962   4.930  0.00  0.00     0.020 A 
BRANCH   6  11
HETATM   11  O   UNK N   1      34.610  17.595   6.795  0.00  0.00    -0.278 OA
BRANCH  11  12
HETATM   12  C   UNK N   1      34.221  18.359   7.847  0.00  0.00     0.260 C 
HETATM   13  O   UNK N   1      34.977  19.163   8.368  0.00  0.00    -0.265 OA
HETATM   14  C   UNK N   1      32.835  18.205   8.372  0.00  0.00     0.126 C 
ENDBRANCH  11  12
ENDBRANCH   6  11
ENDBRANCH   3   5
BRANCH   2  15
HETATM   15  C   UNK N   1      34.244  14.087   9.373  0.00  0.00     0.153 A 
HETATM   16  S   UNK N   1      34.492  14.628  10.922  0.00  0.00    -0.028 SA
HETATM   17  C   UNK N   1      35.103  13.233  11.533  0.00  0.00     0.162 A 
HETATM   18  C   UNK N   1      35.118  12.296  10.484  0.00  0.00     0.134 A 
HETATM   19  N   UNK N   1      34.634  12.787   9.282  0.00  0.00    -0.343 N 
ATOM     20  HN  UNK N   1      34.578  12.235   8.425  1.00  0.00     0.167 HD
BRANCH  17  21
HETATM   21  N   UNK N   1      35.529  13.036  12.868  0.00  0.00    -0.107 N 
HETATM   22  O   UNK N   1      34.779  13.442  13.869  0.00  0.00    -0.531 OA
HETATM   23  O   UNK N   1      36.571  12.499  13.091  0.00  0.00    -0.531 OA
ENDBRANCH  17  21
ENDBRANCH   2  15
TORSDOF 5
ENDMDL
MODEL 8
REMARK VINA RESULT:      -6.2     10.299     11.512
REMARK  5 active torsions:
REMARK  status: ('A' for Active; 'I' for Inactive)
REMARK    1  A    between atoms: O_2  and  C_12 
REMARK    2  A    between atoms: O_2  and  C_21 
REMARK       I    between atoms: N_7  and  C_13 
REMARK    3  A    between atoms: N_7  and  C_17 
REMARK    4  A    between atoms: N_10  and  C_19 
REMARK    5  A    between atoms: C_11  and  C_13 
ROOT
HETATM    1  O   UNK N   1      31.188  17.720   4.090  0.00  0.00    -0.267 OA
HETATM    2  N   UNK N   1      30.609  16.974   6.119  0.00  0.00    -0.303 N 
HETATM    3  C   UNK N   1      30.311  17.301   4.828  0.00  0.00     0.260 C 
HETATM    4  H   UNK N   1      29.886  16.637   6.696  0.00  0.00     0.171 HD
ENDROOT
BRANCH   3   5
HETATM    5  C   UNK N   1      28.926  17.157   4.295  0.00  0.00     0.066 A 
HETATM    6  C   UNK N   1      27.940  18.138   4.578  0.00  0.00     0.094 A 
HETATM    7  C   UNK N   1      26.643  17.978   4.063  0.00  0.00     0.038 A 
HETATM    8  C   UNK N   1      26.321  16.868   3.282  0.00  0.00     0.003 A 
HETATM    9  C   UNK N   1      27.291  15.904   3.004  0.00  0.00     0.001 A 
HETATM   10  C   UNK N   1      28.587  16.046   3.508  0.00  0.00     0.020 A 
BRANCH   6  11
HETATM   11  O   UNK N   1      28.280  19.212   5.343  0.00  0.00    -0.278 OA
BRANCH  11  12
HETATM   12  C   UNK N   1      27.707  19.671   6.486  0.00  0.00     0.260 C 
HETATM   13  O   UNK N   1      27.873  19.108   7.555  0.00  0.00    -0.265 OA
HETATM   14  C   UNK N   1      26.858  20.893   6.420  0.00  0.00     0.126 C 
ENDBRANCH  11  12
ENDBRANCH   6  11
ENDBRANCH   3   5
BRANCH   2  15
HETATM   15  C   UNK N   1      31.920  17.095   6.673  0.00  0.00     0.153 A 
HETATM   16  S   UNK N   1      32.374  18.046   7.954  0.00  0.00    -0.028 SA
HETATM   17  C   UNK N   1      33.963  17.638   7.961  0.00  0.00     0.162 A 
HETATM   18  C   UNK N   1      34.156  16.715   6.917  0.00  0.00     0.134 A 
HETATM   19  N   UNK N   1      33.004  16.420   6.204  0.00  0.00    -0.343 N 
ATOM     20  HN  UNK N   1      32.974  15.771   5.418  1.00  0.00     0.167 HD
BRANCH  17  21
HETATM   21  N   UNK N   1      34.938  18.134   8.860  0.00  0.00    -0.107 N 
HETATM   22  O   UNK N   1      35.473  19.321   8.666  0.00  0.00    -0.531 OA
HETATM   23  O   UNK N   1      35.278  17.478   9.796  0.00  0.00    -0.531 OA
ENDBRANCH  17  21
ENDBRANCH   2  15
TORSDOF 5
ENDMDL
MODEL 9
REMARK VINA RESULT:      -6.1     15.287     16.614
REMARK  5 active torsions:
REMARK  status: ('A' for Active; 'I' for Inactive)
REMARK    1  A    between atoms: O_2  and  C_12 
REMARK    2  A    between atoms: O_2  and  C_21 
REMARK       I    between atoms: N_7  and  C_13 
REMARK    3  A    between atoms: N_7  and  C_17 
REMARK    4  A    between atoms: N_10  and  C_19 
REMARK    5  A    between atoms: C_11  and  C_13 
ROOT
HETATM    1  O   UNK N   1      34.577  12.609  10.826  0.00  0.00    -0.267 OA
HETATM    2  N   UNK N   1      34.956  14.490  11.979  0.00  0.00    -0.303 N 
HETATM    3  C   UNK N   1      34.905  13.130  11.880  0.00  0.00     0.260 C 
HETATM    4  H   UNK N   1      35.222  14.887  12.839  0.00  0.00     0.171 HD
ENDROOT
BRANCH   3   5
HETATM    5  C   UNK N   1      35.243  12.259  13.042  0.00  0.00     0.066 A 
HETATM    6  C   UNK N   1      36.597  12.013  13.388  0.00  0.00     0.094 A 
HETATM    7  C   UNK N   1      36.888  11.189  14.486  0.00  0.00     0.038 A 
HETATM    8  C   UNK N   1      35.861  10.613  15.235  0.00  0.00     0.003 A 
HETATM    9  C   UNK N   1      34.529  10.855  14.894  0.00  0.00     0.001 A 
HETATM   10  C   UNK N   1      34.220  11.673  13.804  0.00  0.00     0.020 A 
BRANCH   6  11
HETATM   11  O   UNK N   1      37.582  12.586  12.642  0.00  0.00    -0.278 OA
BRANCH  11  12
HETATM   12  C   UNK N   1      37.993  12.288  11.382  0.00  0.00     0.260 C 
HETATM   13  O   UNK N   1      38.452  13.141  10.640  0.00  0.00    -0.265 OA
HETATM   14  C   UNK N   1      37.876  10.881  10.905  0.00  0.00     0.126 C 
ENDBRANCH  11  12
ENDBRANCH   6  11
ENDBRANCH   3   5
BRANCH   2  15
HETATM   15  C   UNK N   1      34.641  15.364  10.894  0.00  0.00     0.153 A 
HETATM   16  S   UNK N   1      35.555  16.633  10.341  0.00  0.00    -0.028 SA
HETATM   17  C   UNK N   1      34.548  17.103   9.134  0.00  0.00     0.162 A 
HETATM   18  C   UNK N   1      33.443  16.234   9.158  0.00  0.00     0.134 A 
HETATM   19  N   UNK N   1      33.508  15.265  10.148  0.00  0.00    -0.343 N 
ATOM     20  HN  UNK N   1      32.787  14.559  10.299  1.00  0.00     0.167 HD
BRANCH  17  21
HETATM   21  N   UNK N   1      34.772  18.185   8.249  0.00  0.00    -0.107 N 
HETATM   22  O   UNK N   1      34.424  18.087   6.984  0.00  0.00    -0.531 OA
HETATM   23  O   UNK N   1      35.277  19.189   8.647  0.00  0.00    -0.531 OA
ENDBRANCH  17  21
ENDBRANCH   2  15
TORSDOF 5
ENDMDL
