MODEL 1
REMARK VINA RESULT:      -4.2      0.000      0.000
REMARK  7 active torsions:
REMARK  status: ('A' for Active; 'I' for Inactive)
REMARK    1  A    between atoms: O_1  and  C_9 
REMARK    2  A    between atoms: N_3  and  C_8 
REMARK    3  A    between atoms: C_4  and  C_5 
REMARK    4  A    between atoms: C_4  and  C_6 
REMARK    5  A    between atoms: C_5  and  C_7 
REMARK    6  A    between atoms: C_6  and  C_8 
REMARK    7  A    between atoms: C_7  and  C_9 
ROOT
HETATM    1  C   UNK N   1      30.597  17.122   8.037  0.00  0.00     0.002 C 
ENDROOT
BRANCH   1   2
HETATM    2  C   UNK N   1      31.976  17.360   7.467  0.00  0.00     0.010 C 
BRANCH   2   3
HETATM    3  C   UNK N   1      32.898  18.049   8.458  0.00  0.00     0.110 C 
BRANCH   3   4
HETATM    4  C   UNK N   1      34.232  18.352   7.835  0.00  0.00     0.139 C 
HETATM    5  O   UNK N   1      35.037  19.083   8.398  0.00  0.00    -0.650 OA
BRANCH   4   6
HETATM    6  O   UNK N   1      34.548  17.815   6.644  0.00  0.00    -0.776 OA
HETATM    7  H   UNK N   1      35.285  18.140   6.165  0.00  0.00     0.167 HD
ENDBRANCH   4   6
ENDBRANCH   3   4
ENDBRANCH   2   3
ENDBRANCH   1   2
BRANCH   1   8
HETATM    8  C   UNK N   1      30.241  18.358   8.833  0.00  0.00     0.019 C 
BRANCH   8   9
HETATM    9  C   UNK N   1      29.029  18.123   9.704  0.00  0.00     0.111 C 
BRANCH   9  10
HETATM   10  N   UNK N   1      27.850  18.587   8.996  0.00  0.00    -0.430 N 
HETATM   11  H   UNK N   1      27.719  19.583   8.822  0.00  0.00     0.149 HD
HETATM   12  H   UNK N   1      27.152  17.916   8.674  0.00  0.00     0.149 HD
ENDBRANCH   9  10
ENDBRANCH   8   9
ENDBRANCH   1   8
TORSDOF 7
ENDMDL
MODEL 2
REMARK VINA RESULT:      -3.9     10.617     11.027
REMARK  7 active torsions:
REMARK  status: ('A' for Active; 'I' for Inactive)
REMARK    1  A    between atoms: O_1  and  C_9 
REMARK    2  A    between atoms: N_3  and  C_8 
REMARK    3  A    between atoms: C_4  and  C_5 
REMARK    4  A    between atoms: C_4  and  C_6 
REMARK    5  A    between atoms: C_5  and  C_7 
REMARK    6  A    between atoms: C_6  and  C_8 
REMARK    7  A    between atoms: C_7  and  C_9 
ROOT
HETATM    1  C   UNK N   1      35.110  13.266  17.742  0.00  0.00     0.002 C 
ENDROOT
BRANCH   1   2
HETATM    2  C   UNK N   1      34.893  13.068  16.259  0.00  0.00     0.010 C 
BRANCH   2   3
HETATM    3  C   UNK N   1      36.195  12.834  15.514  0.00  0.00     0.110 C 
BRANCH   3   4
HETATM    4  C   UNK N   1      36.737  14.121  14.956  0.00  0.00     0.139 C 
HETATM    5  O   UNK N   1      36.353  14.549  13.875  0.00  0.00    -0.650 OA
BRANCH   4   6
HETATM    6  O   UNK N   1      37.656  14.813  15.651  0.00  0.00    -0.776 OA
HETATM    7  H   UNK N   1      37.492  15.043  16.545  0.00  0.00     0.167 HD
ENDBRANCH   4   6
ENDBRANCH   3   4
ENDBRANCH   2   3
ENDBRANCH   1   2
BRANCH   1   8
HETATM    8  C   UNK N   1      35.301  11.887  18.337  0.00  0.00     0.019 C 
BRANCH   8   9
HETATM    9  C   UNK N   1      35.431  11.949  19.840  0.00  0.00     0.111 C 
BRANCH   9  10
HETATM   10  N   UNK N   1      34.884  13.212  20.304  0.00  0.00    -0.430 N 
HETATM   11  H   UNK N   1      35.302  14.091  20.001  0.00  0.00     0.149 HD
HETATM   12  H   UNK N   1      34.080  13.218  20.932  0.00  0.00     0.149 HD
ENDBRANCH   9  10
ENDBRANCH   8   9
ENDBRANCH   1   8
TORSDOF 7
ENDMDL
MODEL 3
REMARK VINA RESULT:      -3.8     10.834     11.949
REMARK  7 active torsions:
REMARK  status: ('A' for Active; 'I' for Inactive)
REMARK    1  A    between atoms: O_1  and  C_9 
REMARK    2  A    between atoms: N_3  and  C_8 
REMARK    3  A    between atoms: C_4  and  C_5 
REMARK    4  A    between atoms: C_4  and  C_6 
REMARK    5  A    between atoms: C_5  and  C_7 
REMARK    6  A    between atoms: C_6  and  C_8 
REMARK    7  A    between atoms: C_7  and  C_9 
ROOT
HETATM    1  C   UNK N   1      22.185  12.191  11.385  0.00  0.00     0.002 C 
ENDROOT
BRANCH   1   2
HETATM    2  C   UNK N   1      21.052  12.695  10.521  0.00  0.00     0.010 C 
BRANCH   2   3
HETATM    3  C   UNK N   1      21.413  13.972   9.785  0.00  0.00     0.110 C 
BRANCH   3   4
HETATM    4  C   UNK N   1      20.307  14.393   8.857  0.00  0.00     0.139 C 
HETATM    5  O   UNK N   1      19.452  15.191   9.220  0.00  0.00    -0.650 OA
BRANCH   4   6
HETATM    6  O   UNK N   1      20.254  13.888   7.613  0.00  0.00    -0.776 OA
HETATM    7  H   UNK N   1      19.646  14.238   6.991  0.00  0.00     0.167 HD
ENDBRANCH   4   6
ENDBRANCH   3   4
ENDBRANCH   2   3
ENDBRANCH   1   2
BRANCH   1   8
HETATM    8  C   UNK N   1      23.331  11.872  10.449  0.00  0.00     0.019 C 
BRANCH   8   9
HETATM    9  C   UNK N   1      24.666  12.059  11.129  0.00  0.00     0.111 C 
BRANCH   9  10
HETATM   10  N   UNK N   1      25.332  13.207  10.540  0.00  0.00    -0.430 N 
HETATM   11  H   UNK N   1      24.876  14.119  10.543  0.00  0.00     0.149 HD
HETATM   12  H   UNK N   1      26.257  13.100  10.122  0.00  0.00     0.149 HD
ENDBRANCH   9  10
ENDBRANCH   8   9
ENDBRANCH   1   8
TORSDOF 7
ENDMDL
MODEL 4
REMARK VINA RESULT:      -3.8      2.201      2.751
REMARK  7 active torsions:
REMARK  status: ('A' for Active; 'I' for Inactive)
REMARK    1  A    between atoms: O_1  and  C_9 
REMARK    2  A    between atoms: N_3  and  C_8 
REMARK    3  A    between atoms: C_4  and  C_5 
REMARK    4  A    between atoms: C_4  and  C_6 
REMARK    5  A    between atoms: C_5  and  C_7 
REMARK    6  A    between atoms: C_6  and  C_8 
REMARK    7  A    between atoms: C_7  and  C_9 
ROOT
HETATM    1  C   UNK N   1      31.298  16.604   7.659  0.00  0.00     0.002 C 
ENDROOT
BRANCH   1   2
HETATM    2  C   UNK N   1      31.996  17.794   8.276  0.00  0.00     0.010 C 
BRANCH   2   3
HETATM    3  C   UNK N   1      33.412  17.467   8.715  0.00  0.00     0.110 C 
BRANCH   3   4
HETATM    4  C   UNK N   1      34.420  18.237   7.908  0.00  0.00     0.139 C 
HETATM    5  O   UNK N   1      34.511  18.076   6.697  0.00  0.00    -0.650 OA
BRANCH   4   6
HETATM    6  O   UNK N   1      35.233  19.114   8.520  0.00  0.00    -0.776 OA
HETATM    7  H   UNK N   1      36.006  18.811   8.956  0.00  0.00     0.167 HD
ENDBRANCH   4   6
ENDBRANCH   3   4
ENDBRANCH   2   3
ENDBRANCH   1   2
BRANCH   1   8
HETATM    8  C   UNK N   1      31.332  16.815   6.161  0.00  0.00     0.019 C 
BRANCH   8   9
HETATM    9  C   UNK N   1      29.950  17.075   5.609  0.00  0.00     0.111 C 
BRANCH   9  10
HETATM   10  N   UNK N   1      30.071  17.901   4.421  0.00  0.00    -0.430 N 
HETATM   11  H   UNK N   1      30.989  18.078   4.014  0.00  0.00     0.149 HD
HETATM   12  H   UNK N   1      29.236  18.304   3.994  0.00  0.00     0.149 HD
ENDBRANCH   9  10
ENDBRANCH   8   9
ENDBRANCH   1   8
TORSDOF 7
ENDMDL
MODEL 5
REMARK VINA RESULT:      -3.8     10.637     11.336
REMARK  7 active torsions:
REMARK  status: ('A' for Active; 'I' for Inactive)
REMARK    1  A    between atoms: O_1  and  C_9 
REMARK    2  A    between atoms: N_3  and  C_8 
REMARK    3  A    between atoms: C_4  and  C_5 
REMARK    4  A    between atoms: C_4  and  C_6 
REMARK    5  A    between atoms: C_5  and  C_7 
REMARK    6  A    between atoms: C_6  and  C_8 
REMARK    7  A    between atoms: C_7  and  C_9 
ROOT
HETATM    1  C   UNK N   1      21.308  13.069   9.340  0.00  0.00     0.002 C 
ENDROOT
BRANCH   1   2
HETATM    2  C   UNK N   1      21.581  12.396  10.665  0.00  0.00     0.010 C 
BRANCH   2   3
HETATM    3  C   UNK N   1      22.892  11.630  10.663  0.00  0.00     0.110 C 
BRANCH   3   4
HETATM    4  C   UNK N   1      23.731  11.990  11.857  0.00  0.00     0.139 C 
HETATM    5  O   UNK N   1      23.274  11.920  12.991  0.00  0.00    -0.650 OA
BRANCH   4   6
HETATM    6  O   UNK N   1      25.000  12.396  11.681  0.00  0.00    -0.776 OA
HETATM    7  H   UNK N   1      25.499  12.071  10.956  0.00  0.00     0.167 HD
ENDBRANCH   4   6
ENDBRANCH   3   4
ENDBRANCH   2   3
ENDBRANCH   1   2
BRANCH   1   8
HETATM    8  C   UNK N   1      20.494  14.307   9.646  0.00  0.00     0.019 C 
BRANCH   8   9
HETATM    9  C   UNK N   1      20.762  15.404   8.643  0.00  0.00     0.111 C 
BRANCH   9  10
HETATM   10  N   UNK N   1      21.847  14.985   7.773  0.00  0.00    -0.430 N 
HETATM   11  H   UNK N   1      22.763  14.771   8.166  0.00  0.00     0.149 HD
HETATM   12  H   UNK N   1      21.692  14.905   6.768  0.00  0.00     0.149 HD
ENDBRANCH   9  10
ENDBRANCH   8   9
ENDBRANCH   1   8
TORSDOF 7
ENDMDL
MODEL 6
REMARK VINA RESULT:      -3.7      4.086      5.071
REMARK  7 active torsions:
REMARK  status: ('A' for Active; 'I' for Inactive)
REMARK    1  A    between atoms: O_1  and  C_9 
REMARK    2  A    between atoms: N_3  and  C_8 
REMARK    3  A    between atoms: C_4  and  C_5 
REMARK    4  A    between atoms: C_4  and  C_6 
REMARK    5  A    between atoms: C_5  and  C_7 
REMARK    6  A    between atoms: C_6  and  C_8 
REMARK    7  A    between atoms: C_7  and  C_9 
ROOT
HETATM    1  C   UNK N   1      30.961  16.835   8.531  0.00  0.00     0.002 C 
ENDROOT
BRANCH   1   2
HETATM    2  C   UNK N   1      30.635  18.282   8.818  0.00  0.00     0.010 C 
BRANCH   2   3
HETATM    3  C   UNK N   1      29.541  18.431   9.860  0.00  0.00     0.110 C 
BRANCH   3   4
HETATM    4  C   UNK N   1      28.190  18.133   9.272  0.00  0.00     0.139 C 
HETATM    5  O   UNK N   1      27.606  17.089   9.535  0.00  0.00    -0.650 OA
BRANCH   4   6
HETATM    6  O   UNK N   1      27.612  19.022   8.446  0.00  0.00    -0.776 OA
HETATM    7  H   UNK N   1      26.732  18.887   8.155  0.00  0.00     0.167 HD
ENDBRANCH   4   6
ENDBRANCH   3   4
ENDBRANCH   2   3
ENDBRANCH   1   2
BRANCH   1   8
HETATM    8  C   UNK N   1      32.461  16.761   8.346  0.00  0.00     0.019 C 
BRANCH   8   9
HETATM    9  C   UNK N   1      33.061  15.634   9.154  0.00  0.00     0.111 C 
BRANCH   9  10
HETATM   10  N   UNK N   1      32.080  15.183  10.124  0.00  0.00    -0.430 N 
HETATM   11  H   UNK N   1      32.197  15.410  11.112  0.00  0.00     0.149 HD
HETATM   12  H   UNK N   1      31.273  14.639   9.818  0.00  0.00     0.149 HD
ENDBRANCH   9  10
ENDBRANCH   8   9
ENDBRANCH   1   8
TORSDOF 7
ENDMDL
MODEL 7
REMARK VINA RESULT:      -3.7      3.352      3.958
REMARK  7 active torsions:
REMARK  status: ('A' for Active; 'I' for Inactive)
REMARK    1  A    between atoms: O_1  and  C_9 
REMARK    2  A    between atoms: N_3  and  C_8 
REMARK    3  A    between atoms: C_4  and  C_5 
REMARK    4  A    between atoms: C_4  and  C_6 
REMARK    5  A    between atoms: C_5  and  C_7 
REMARK    6  A    between atoms: C_6  and  C_8 
REMARK    7  A    between atoms: C_7  and  C_9 
ROOT
HETATM    1  C   UNK N   1      32.014  17.187   6.477  0.00  0.00     0.002 C 
ENDROOT
BRANCH   1   2
HETATM    2  C   UNK N   1      33.453  17.616   6.299  0.00  0.00     0.010 C 
BRANCH   2   3
HETATM    3  C   UNK N   1      34.375  16.976   7.321  0.00  0.00     0.110 C 
BRANCH   3   4
HETATM    4  C   UNK N   1      34.588  17.884   8.500  0.00  0.00     0.139 C 
HETATM    5  O   UNK N   1      34.972  19.037   8.345  0.00  0.00    -0.650 OA
BRANCH   4   6
HETATM    6  O   UNK N   1      34.356  17.426   9.742  0.00  0.00    -0.776 OA
HETATM    7  H   UNK N   1      33.477  17.273  10.028  0.00  0.00     0.167 HD
ENDBRANCH   4   6
ENDBRANCH   3   4
ENDBRANCH   2   3
ENDBRANCH   1   2
BRANCH   1   8
HETATM    8  C   UNK N   1      31.419  17.091   5.089  0.00  0.00     0.019 C 
BRANCH   8   9
HETATM    9  C   UNK N   1      32.379  17.605   4.041  0.00  0.00     0.111 C 
BRANCH   9  10
HETATM   10  N   UNK N   1      31.864  17.260   2.728  0.00  0.00    -0.430 N 
HETATM   11  H   UNK N   1      30.864  17.104   2.597  0.00  0.00     0.149 HD
HETATM   12  H   UNK N   1      32.502  17.172   1.938  0.00  0.00     0.149 HD
ENDBRANCH   9  10
ENDBRANCH   8   9
ENDBRANCH   1   8
TORSDOF 7
ENDMDL
MODEL 8
REMARK VINA RESULT:      -3.7     12.170     12.899
REMARK  7 active torsions:
REMARK  status: ('A' for Active; 'I' for Inactive)
REMARK    1  A    between atoms: O_1  and  C_9 
REMARK    2  A    between atoms: N_3  and  C_8 
REMARK    3  A    between atoms: C_4  and  C_5 
REMARK    4  A    between atoms: C_4  and  C_6 
REMARK    5  A    between atoms: C_5  and  C_7 
REMARK    6  A    between atoms: C_6  and  C_8 
REMARK    7  A    between atoms: C_7  and  C_9 
ROOT
HETATM    1  C   UNK N   1      30.392  21.553  -4.952  0.00  0.00     0.002 C 
ENDROOT
BRANCH   1   2
HETATM    2  C   UNK N   1      30.553  22.913  -4.313  0.00  0.00     0.010 C 
BRANCH   2   3
HETATM    3  C   UNK N   1      29.302  23.354  -3.575  0.00  0.00     0.110 C 
BRANCH   3   4
HETATM    4  C   UNK N   1      29.415  23.074  -2.103  0.00  0.00     0.139 C 
HETATM    5  O   UNK N   1      30.511  22.946  -1.569  0.00  0.00    -0.650 OA
BRANCH   4   6
HETATM    6  O   UNK N   1      28.302  22.963  -1.358  0.00  0.00    -0.776 OA
HETATM    7  H   UNK N   1      27.460  22.986  -1.769  0.00  0.00     0.167 HD
ENDBRANCH   4   6
ENDBRANCH   3   4
ENDBRANCH   2   3
ENDBRANCH   1   2
BRANCH   1   8
HETATM    8  C   UNK N   1      31.229  20.592  -4.134  0.00  0.00     0.019 C 
BRANCH   8   9
HETATM    9  C   UNK N   1      32.607  21.152  -3.868  0.00  0.00     0.111 C 
BRANCH   9  10
HETATM   10  N   UNK N   1      32.924  20.960  -2.464  0.00  0.00    -0.430 N 
HETATM   11  H   UNK N   1      32.241  21.207  -1.748  0.00  0.00     0.149 HD
HETATM   12  H   UNK N   1      33.831  20.580  -2.195  0.00  0.00     0.149 HD
ENDBRANCH   9  10
ENDBRANCH   8   9
ENDBRANCH   1   8
TORSDOF 7
ENDMDL
MODEL 9
REMARK VINA RESULT:      -3.6     10.770     11.417
REMARK  7 active torsions:
REMARK  status: ('A' for Active; 'I' for Inactive)
REMARK    1  A    between atoms: O_1  and  C_9 
REMARK    2  A    between atoms: N_3  and  C_8 
REMARK    3  A    between atoms: C_4  and  C_5 
REMARK    4  A    between atoms: C_4  and  C_6 
REMARK    5  A    between atoms: C_5  and  C_7 
REMARK    6  A    between atoms: C_6  and  C_8 
REMARK    7  A    between atoms: C_7  and  C_9 
ROOT
HETATM    1  C   UNK N   1      35.861  12.433  15.645  0.00  0.00     0.002 C 
ENDROOT
BRANCH   1   2
HETATM    2  C   UNK N   1      34.814  12.689  16.704  0.00  0.00     0.010 C 
BRANCH   2   3
HETATM    3  C   UNK N   1      35.238  12.175  18.068  0.00  0.00     0.110 C 
BRANCH   3   4
HETATM    4  C   UNK N   1      35.244  13.282  19.085  0.00  0.00     0.139 C 
HETATM    5  O   UNK N   1      35.547  14.426  18.769  0.00  0.00    -0.650 OA
BRANCH   4   6
HETATM    6  O   UNK N   1      34.913  13.016  20.361  0.00  0.00    -0.776 OA
HETATM    7  H   UNK N   1      35.031  13.671  21.021  0.00  0.00     0.167 HD
ENDBRANCH   4   6
ENDBRANCH   3   4
ENDBRANCH   2   3
ENDBRANCH   1   2
BRANCH   1   8
HETATM    8  C   UNK N   1      36.632  13.724  15.480  0.00  0.00     0.019 C 
BRANCH   8   9
HETATM    9  C   UNK N   1      36.476  14.285  14.086  0.00  0.00     0.111 C 
BRANCH   9  10
HETATM   10  N   UNK N   1      36.964  13.306  13.132  0.00  0.00    -0.430 N 
HETATM   11  H   UNK N   1      36.418  12.466  12.937  0.00  0.00     0.149 HD
HETATM   12  H   UNK N   1      37.854  13.457  12.657  0.00  0.00     0.149 HD
ENDBRANCH   9  10
ENDBRANCH   8   9
ENDBRANCH   1   8
TORSDOF 7
ENDMDL
