MODEL 1
REMARK VINA RESULT:      -7.2      0.000      0.000
REMARK  7 active torsions:
REMARK  status: ('A' for Active; 'I' for Inactive)
REMARK    1  A    between atoms: S_1  and  N_6 
REMARK    2  A    between atoms: S_1  and  C_18 
REMARK    3  A    between atoms: O_4  and  C_25 
REMARK    4  A    between atoms: O_4  and  C_34 
REMARK    5  A    between atoms: C_21  and  C_23 
REMARK    6  A    between atoms: C_27  and  C_29 
REMARK    7  A    between atoms: C_29  and  C_31 
ROOT
HETATM    1  C   UNK N   1      26.657  27.405  -4.258  0.00  0.00     0.075 A 
HETATM    2  C   UNK N   1      27.461  26.328  -3.935  0.00  0.00     0.042 A 
HETATM    3  C   UNK N   1      27.208  25.062  -4.448  0.00  0.00     0.043 A 
HETATM    4  C   UNK N   1      25.544  27.228  -5.084  0.00  0.00     0.027 A 
HETATM    5  C   UNK N   1      26.092  24.861  -5.292  0.00  0.00     0.082 A 
HETATM    6  C   UNK N   1      25.253  25.956  -5.591  0.00  0.00     0.039 A 
ENDROOT
BRANCH   3   7
HETATM    7  C   UNK N   1      28.213  24.024  -4.182  0.00  0.00     0.121 A 
HETATM    8  N   UNK N   1      28.642  23.229  -5.205  0.00  0.00    -0.338 N 
HETATM    9  C   UNK N   1      29.723  22.448  -4.997  0.00  0.00     0.092 A 
HETATM   10  H   UNK N   1      28.177  23.224  -6.072  0.00  0.00     0.167 HD
HETATM   11  C   UNK N   1      30.405  21.631  -5.856  0.00  0.00     0.055 A 
HETATM   12  C   UNK N   1      30.380  22.399  -3.817  0.00  0.00     0.147 A 
HETATM   13  N   UNK N   1      31.454  21.091  -5.187  0.00  0.00    -0.300 N 
HETATM   14  N   UNK N   1      31.427  21.562  -3.942  0.00  0.00    -0.289 N 
ATOM     15  HN  UNK N   1      32.142  20.441  -5.570  1.00  0.00     0.187 HD
HETATM   16  C   UNK N   1      32.420  21.241  -2.929  0.00  0.00     0.178 C 
HETATM   17  C   UNK N   1      29.941  23.171  -2.752  0.00  0.00     0.277 A 
HETATM   18  O   UNK N   1      30.506  23.155  -1.673  0.00  0.00    -0.265 OA
HETATM   19  N   UNK N   1      28.865  24.001  -2.968  0.00  0.00    -0.307 N 
ATOM     20  HN  UNK N   1      28.543  24.608  -2.215  1.00  0.00     0.170 HD
BRANCH  11  21
HETATM   21  C   UNK N   1      30.091  21.431  -7.297  0.00  0.00     0.061 C 
BRANCH  21  22
HETATM   22  C   UNK N   1      28.951  20.457  -7.474  0.00  0.00     0.002 C 
HETATM   23  C   UNK N   1      29.527  19.085  -7.754  0.00  0.00     0.005 C 
ENDBRANCH  21  22
ENDBRANCH  11  21
ENDBRANCH   3   7
BRANCH   5  24
HETATM   24  O   UNK N   1      25.837  23.626  -5.791  0.00  0.00    -0.351 OA
BRANCH  24  25
HETATM   25  C   UNK N   1      25.792  23.333  -7.135  0.00  0.00     0.171 C 
HETATM   26  C   UNK N   1      25.336  21.900  -7.316  0.00  0.00     0.034 C 
ENDBRANCH  24  25
ENDBRANCH   5  24
BRANCH   1  27
HETATM   27  S   UNK N   1      27.114  28.998  -3.622  0.00  0.00     0.243 S 
HETATM   28  O   UNK N   1      27.457  28.989  -2.123  0.00  0.00    -0.206 OA
HETATM   29  O   UNK N   1      25.943  29.996  -3.687  0.00  0.00    -0.206 OA
BRANCH  27  30
HETATM   30  N   UNK N   1      28.469  29.746  -4.487  0.00  0.00    -0.203 NA
HETATM   31  C   UNK N   1      28.363  29.534  -5.923  0.00  0.00     0.138 C 
HETATM   32  C   UNK N   1      29.454  30.356  -6.611  0.00  0.00     0.287 C 
HETATM   33  N   UNK N   1      30.794  29.999  -6.128  0.00  0.00     0.086 N 
HETATM   34  C   UNK N   1      30.881  29.998  -4.660  0.00  0.00     0.287 C 
HETATM   35  C   UNK N   1      31.173  28.693  -6.647  0.00  0.00     0.310 C 
HETATM   36  C   UNK N   1      29.739  29.204  -4.019  0.00  0.00     0.138 C 
ENDBRANCH  27  30
ENDBRANCH   1  27
TORSDOF 7
ENDMDL
MODEL 2
REMARK VINA RESULT:      -7.2     12.686     14.930
REMARK  7 active torsions:
REMARK  status: ('A' for Active; 'I' for Inactive)
REMARK    1  A    between atoms: S_1  and  N_6 
REMARK    2  A    between atoms: S_1  and  C_18 
REMARK    3  A    between atoms: O_4  and  C_25 
REMARK    4  A    between atoms: O_4  and  C_34 
REMARK    5  A    between atoms: C_21  and  C_23 
REMARK    6  A    between atoms: C_27  and  C_29 
REMARK    7  A    between atoms: C_29  and  C_31 
ROOT
HETATM    1  C   UNK N   1      24.901  19.586   4.360  0.00  0.00     0.075 A 
HETATM    2  C   UNK N   1      24.170  18.743   5.176  0.00  0.00     0.042 A 
HETATM    3  C   UNK N   1      22.823  18.499   4.937  0.00  0.00     0.043 A 
HETATM    4  C   UNK N   1      24.281  20.243   3.293  0.00  0.00     0.027 A 
HETATM    5  C   UNK N   1      22.177  19.146   3.859  0.00  0.00     0.082 A 
HETATM    6  C   UNK N   1      22.918  20.034   3.050  0.00  0.00     0.039 A 
ENDROOT
BRANCH   3   7
HETATM    7  C   UNK N   1      22.180  17.462   5.755  0.00  0.00     0.121 A 
HETATM    8  N   UNK N   1      22.774  16.239   5.874  0.00  0.00    -0.338 N 
HETATM    9  C   UNK N   1      22.299  15.386   6.806  0.00  0.00     0.092 A 
HETATM   10  H   UNK N   1      23.529  15.984   5.296  0.00  0.00     0.167 HD
HETATM   11  C   UNK N   1      22.748  14.153   7.190  0.00  0.00     0.055 A 
HETATM   12  C   UNK N   1      21.249  15.679   7.605  0.00  0.00     0.147 A 
HETATM   13  N   UNK N   1      21.962  13.710   8.204  0.00  0.00    -0.300 N 
HETATM   14  N   UNK N   1      21.047  14.647   8.446  0.00  0.00    -0.289 N 
ATOM     15  HN  UNK N   1      22.056  12.820   8.694  1.00  0.00     0.187 HD
HETATM   16  C   UNK N   1      20.045  14.553   9.495  0.00  0.00     0.178 C 
HETATM   17  C   UNK N   1      20.607  16.902   7.479  0.00  0.00     0.277 A 
HETATM   18  O   UNK N   1      19.658  17.203   8.179  0.00  0.00    -0.265 OA
HETATM   19  N   UNK N   1      21.110  17.793   6.559  0.00  0.00    -0.307 N 
ATOM     20  HN  UNK N   1      20.682  18.714   6.469  1.00  0.00     0.170 HD
BRANCH  11  21
HETATM   21  C   UNK N   1      23.941  13.453   6.641  0.00  0.00     0.061 C 
BRANCH  21  22
HETATM   22  C   UNK N   1      25.134  13.618   7.551  0.00  0.00     0.002 C 
HETATM   23  C   UNK N   1      25.837  14.912   7.196  0.00  0.00     0.005 C 
ENDBRANCH  21  22
ENDBRANCH  11  21
ENDBRANCH   3   7
BRANCH   5  24
HETATM   24  O   UNK N   1      20.861  18.917   3.625  0.00  0.00    -0.351 OA
BRANCH  24  25
HETATM   25  C   UNK N   1      20.359  18.477   2.421  0.00  0.00     0.171 C 
HETATM   26  C   UNK N   1      20.564  16.980   2.316  0.00  0.00     0.034 C 
ENDBRANCH  24  25
ENDBRANCH   5  24
BRANCH   1  27
HETATM   27  S   UNK N   1      26.634  19.764   4.696  0.00  0.00     0.243 S 
HETATM   28  O   UNK N   1      26.988  21.054   5.454  0.00  0.00    -0.206 OA
HETATM   29  O   UNK N   1      27.456  19.906   3.401  0.00  0.00    -0.206 OA
BRANCH  27  30
HETATM   30  N   UNK N   1      27.328  18.399   5.590  0.00  0.00    -0.203 NA
HETATM   31  C   UNK N   1      27.992  18.844   6.807  0.00  0.00     0.138 C 
HETATM   32  C   UNK N   1      28.400  17.609   7.611  0.00  0.00     0.287 C 
HETATM   33  N   UNK N   1      29.272  16.716   6.836  0.00  0.00     0.086 N 
HETATM   34  C   UNK N   1      28.726  16.412   5.506  0.00  0.00     0.287 C 
HETATM   35  C   UNK N   1      30.594  17.312   6.705  0.00  0.00     0.310 C 
HETATM   36  C   UNK N   1      28.287  17.676   4.763  0.00  0.00     0.138 C 
ENDBRANCH  27  30
ENDBRANCH   1  27
TORSDOF 7
ENDMDL
MODEL 3
REMARK VINA RESULT:      -7.1     11.889     15.941
REMARK  7 active torsions:
REMARK  status: ('A' for Active; 'I' for Inactive)
REMARK    1  A    between atoms: S_1  and  N_6 
REMARK    2  A    between atoms: S_1  and  C_18 
REMARK    3  A    between atoms: O_4  and  C_25 
REMARK    4  A    between atoms: O_4  and  C_34 
REMARK    5  A    between atoms: C_21  and  C_23 
REMARK    6  A    between atoms: C_27  and  C_29 
REMARK    7  A    between atoms: C_29  and  C_31 
ROOT
HETATM    1  C   UNK N   1      32.943  15.991   5.237  0.00  0.00     0.075 A 
HETATM    2  C   UNK N   1      31.877  16.846   5.447  0.00  0.00     0.042 A 
HETATM    3  C   UNK N   1      30.722  16.758   4.679  0.00  0.00     0.043 A 
HETATM    4  C   UNK N   1      32.891  15.042   4.213  0.00  0.00     0.027 A 
HETATM    5  C   UNK N   1      30.644  15.800   3.643  0.00  0.00     0.082 A 
HETATM    6  C   UNK N   1      31.749  14.954   3.407  0.00  0.00     0.039 A 
ENDROOT
BRANCH   3   7
HETATM    7  C   UNK N   1      29.586  17.593   5.089  0.00  0.00     0.121 A 
HETATM    8  N   UNK N   1      29.229  17.640   6.406  0.00  0.00    -0.338 N 
HETATM    9  C   UNK N   1      28.345  18.582   6.797  0.00  0.00     0.092 A 
HETATM   10  H   UNK N   1      29.607  17.004   7.056  0.00  0.00     0.167 HD
HETATM   11  C   UNK N   1      27.884  18.902   8.043  0.00  0.00     0.055 A 
HETATM   12  C   UNK N   1      27.779  19.460   5.939  0.00  0.00     0.147 A 
HETATM   13  N   UNK N   1      27.039  19.958   7.926  0.00  0.00    -0.300 N 
HETATM   14  N   UNK N   1      26.978  20.287   6.637  0.00  0.00    -0.289 N 
ATOM     15  HN  UNK N   1      26.541  20.417   8.689  1.00  0.00     0.187 HD
HETATM   16  C   UNK N   1      26.202  21.402   6.119  0.00  0.00     0.178 C 
HETATM   17  C   UNK N   1      28.098  19.409   4.591  0.00  0.00     0.277 A 
HETATM   18  O   UNK N   1      27.610  20.183   3.787  0.00  0.00    -0.265 OA
HETATM   19  N   UNK N   1      29.030  18.479   4.191  0.00  0.00    -0.307 N 
ATOM     20  HN  UNK N   1      29.312  18.443   3.212  1.00  0.00     0.170 HD
BRANCH  11  21
HETATM   21  C   UNK N   1      28.298  18.252   9.316  0.00  0.00     0.061 C 
BRANCH  21  22
HETATM   22  C   UNK N   1      29.800  18.123   9.396  0.00  0.00     0.002 C 
HETATM   23  C   UNK N   1      30.138  16.788  10.023  0.00  0.00     0.005 C 
ENDBRANCH  21  22
ENDBRANCH  11  21
ENDBRANCH   3   7
BRANCH   5  24
HETATM   24  O   UNK N   1      29.522  15.714   2.885  0.00  0.00    -0.351 OA
BRANCH  24  25
HETATM   25  C   UNK N   1      28.699  14.612   2.852  0.00  0.00     0.171 C 
HETATM   26  C   UNK N   1      27.484  14.926   2.002  0.00  0.00     0.034 C 
ENDBRANCH  24  25
ENDBRANCH   5  24
BRANCH   1  27
HETATM   27  S   UNK N   1      34.337  16.125   6.327  0.00  0.00     0.243 S 
HETATM   28  O   UNK N   1      34.670  17.572   6.730  0.00  0.00    -0.206 OA
HETATM   29  O   UNK N   1      35.640  15.664   5.648  0.00  0.00    -0.206 OA
BRANCH  27  30
HETATM   30  N   UNK N   1      34.171  15.170   7.812  0.00  0.00    -0.203 NA
HETATM   31  C   UNK N   1      33.656  15.978   8.907  0.00  0.00     0.138 C 
HETATM   32  C   UNK N   1      33.368  15.054  10.091  0.00  0.00     0.287 C 
HETATM   33  N   UNK N   1      34.565  14.310  10.508  0.00  0.00     0.086 N 
HETATM   34  C   UNK N   1      35.236  13.647   9.379  0.00  0.00     0.287 C 
HETATM   35  C   UNK N   1      35.494  15.207  11.179  0.00  0.00     0.310 C 
HETATM   36  C   UNK N   1      35.455  14.602   8.203  0.00  0.00     0.138 C 
ENDBRANCH  27  30
ENDBRANCH   1  27
TORSDOF 7
ENDMDL
MODEL 4
REMARK VINA RESULT:      -7.1     15.982     19.966
REMARK  7 active torsions:
REMARK  status: ('A' for Active; 'I' for Inactive)
REMARK    1  A    between atoms: S_1  and  N_6 
REMARK    2  A    between atoms: S_1  and  C_18 
REMARK    3  A    between atoms: O_4  and  C_25 
REMARK    4  A    between atoms: O_4  and  C_34 
REMARK    5  A    between atoms: C_21  and  C_23 
REMARK    6  A    between atoms: C_27  and  C_29 
REMARK    7  A    between atoms: C_29  and  C_31 
ROOT
HETATM    1  C   UNK N   1      34.333  15.910   7.953  0.00  0.00     0.075 A 
HETATM    2  C   UNK N   1      34.292  15.431   9.249  0.00  0.00     0.042 A 
HETATM    3  C   UNK N   1      35.102  14.378   9.654  0.00  0.00     0.043 A 
HETATM    4  C   UNK N   1      35.171  15.310   7.009  0.00  0.00     0.027 A 
HETATM    5  C   UNK N   1      35.963  13.760   8.718  0.00  0.00     0.082 A 
HETATM    6  C   UNK N   1      35.976  14.228   7.386  0.00  0.00     0.039 A 
ENDROOT
BRANCH   3   7
HETATM    7  C   UNK N   1      35.107  14.056  11.087  0.00  0.00     0.121 A 
HETATM    8  N   UNK N   1      34.588  12.866  11.509  0.00  0.00    -0.338 N 
HETATM    9  C   UNK N   1      34.811  12.488  12.785  0.00  0.00     0.092 A 
HETATM   10  H   UNK N   1      34.065  12.297  10.898  0.00  0.00     0.167 HD
HETATM   11  C   UNK N   1      34.485  11.331  13.436  0.00  0.00     0.055 A 
HETATM   12  C   UNK N   1      35.499  13.245  13.667  0.00  0.00     0.147 A 
HETATM   13  N   UNK N   1      34.967  11.404  14.702  0.00  0.00    -0.300 N 
HETATM   14  N   UNK N   1      35.580  12.579  14.834  0.00  0.00    -0.289 N 
ATOM     15  HN  UNK N   1      34.877  10.687  15.423  1.00  0.00     0.187 HD
HETATM   16  C   UNK N   1      36.261  13.008  16.045  0.00  0.00     0.178 C 
HETATM   17  C   UNK N   1      36.006  14.474  13.272  0.00  0.00     0.277 A 
HETATM   18  O   UNK N   1      36.632  15.185  14.037  0.00  0.00    -0.265 OA
HETATM   19  N   UNK N   1      35.819  14.848  11.962  0.00  0.00    -0.307 N 
ATOM     20  HN  UNK N   1      36.212  15.730  11.632  1.00  0.00     0.170 HD
BRANCH  11  21
HETATM   21  C   UNK N   1      33.788  10.162  12.834  0.00  0.00     0.061 C 
BRANCH  21  22
HETATM   22  C   UNK N   1      34.759   9.271  12.096  0.00  0.00     0.002 C 
HETATM   23  C   UNK N   1      34.071   8.720  10.866  0.00  0.00     0.005 C 
ENDBRANCH  21  22
ENDBRANCH  11  21
ENDBRANCH   3   7
BRANCH   5  24
HETATM   24  O   UNK N   1      36.751  12.727   9.106  0.00  0.00    -0.351 OA
BRANCH  24  25
HETATM   25  C   UNK N   1      38.126  12.747   9.056  0.00  0.00     0.171 C 
HETATM   26  C   UNK N   1      38.666  13.140  10.415  0.00  0.00     0.034 C 
ENDBRANCH  24  25
ENDBRANCH   5  24
BRANCH   1  27
HETATM   27  S   UNK N   1      33.324  17.315   7.558  0.00  0.00     0.243 S 
HETATM   28  O   UNK N   1      33.577  17.882   6.150  0.00  0.00    -0.206 OA
HETATM   29  O   UNK N   1      33.646  18.521   8.461  0.00  0.00    -0.206 OA
BRANCH  27  30
HETATM   30  N   UNK N   1      31.586  17.009   7.718  0.00  0.00    -0.203 NA
HETATM   31  C   UNK N   1      30.903  17.145   6.440  0.00  0.00     0.138 C 
HETATM   32  C   UNK N   1      29.454  16.690   6.618  0.00  0.00     0.287 C 
HETATM   33  N   UNK N   1      28.765  17.458   7.663  0.00  0.00     0.086 N 
HETATM   34  C   UNK N   1      29.533  17.519   8.916  0.00  0.00     0.287 C 
HETATM   35  C   UNK N   1      28.491  18.806   7.184  0.00  0.00     0.310 C 
HETATM   36  C   UNK N   1      30.987  17.930   8.676  0.00  0.00     0.138 C 
ENDBRANCH  27  30
ENDBRANCH   1  27
TORSDOF 7
ENDMDL
MODEL 5
REMARK VINA RESULT:      -7.0     12.531     15.851
REMARK  7 active torsions:
REMARK  status: ('A' for Active; 'I' for Inactive)
REMARK    1  A    between atoms: S_1  and  N_6 
REMARK    2  A    between atoms: S_1  and  C_18 
REMARK    3  A    between atoms: O_4  and  C_25 
REMARK    4  A    between atoms: O_4  and  C_34 
REMARK    5  A    between atoms: C_21  and  C_23 
REMARK    6  A    between atoms: C_27  and  C_29 
REMARK    7  A    between atoms: C_29  and  C_31 
ROOT
HETATM    1  C   UNK N   1      25.035  15.963   5.545  0.00  0.00     0.075 A 
HETATM    2  C   UNK N   1      26.383  15.928   5.847  0.00  0.00     0.042 A 
HETATM    3  C   UNK N   1      27.196  17.036   5.644  0.00  0.00     0.043 A 
HETATM    4  C   UNK N   1      24.470  17.114   4.990  0.00  0.00     0.027 A 
HETATM    5  C   UNK N   1      26.644  18.214   5.091  0.00  0.00     0.082 A 
HETATM    6  C   UNK N   1      25.274  18.235   4.750  0.00  0.00     0.039 A 
ENDROOT
BRANCH   3   7
HETATM    7  C   UNK N   1      28.571  16.954   6.152  0.00  0.00     0.121 A 
HETATM    8  N   UNK N   1      29.615  17.001   5.273  0.00  0.00    -0.338 N 
HETATM    9  C   UNK N   1      30.861  17.160   5.767  0.00  0.00     0.092 A 
HETATM   10  H   UNK N   1      29.464  16.923   4.303  0.00  0.00     0.167 HD
HETATM   11  C   UNK N   1      32.056  17.320   5.123  0.00  0.00     0.055 A 
HETATM   12  C   UNK N   1      31.122  17.245   7.090  0.00  0.00     0.147 A 
HETATM   13  N   UNK N   1      33.024  17.489   6.058  0.00  0.00    -0.300 N 
HETATM   14  N   UNK N   1      32.445  17.436   7.255  0.00  0.00    -0.289 N 
ATOM     15  HN  UNK N   1      34.018  17.631   5.876  1.00  0.00     0.187 HD
HETATM   16  C   UNK N   1      33.155  17.617   8.511  0.00  0.00     0.178 C 
HETATM   17  C   UNK N   1      30.083  17.164   8.005  0.00  0.00     0.277 A 
HETATM   18  O   UNK N   1      30.277  17.237   9.204  0.00  0.00    -0.265 OA
HETATM   19  N   UNK N   1      28.806  17.044   7.508  0.00  0.00    -0.307 N 
ATOM     20  HN  UNK N   1      28.018  17.019   8.155  1.00  0.00     0.170 HD
BRANCH  11  21
HETATM   21  C   UNK N   1      32.247  17.376   3.648  0.00  0.00     0.061 C 
BRANCH  21  22
HETATM   22  C   UNK N   1      32.202  15.993   3.043  0.00  0.00     0.002 C 
HETATM   23  C   UNK N   1      33.618  15.475   2.915  0.00  0.00     0.005 C 
ENDBRANCH  21  22
ENDBRANCH  11  21
ENDBRANCH   3   7
BRANCH   5  24
HETATM   24  O   UNK N   1      27.434  19.298   4.885  0.00  0.00    -0.351 OA
BRANCH  24  25
HETATM   25  C   UNK N   1      26.964  20.589   4.804  0.00  0.00     0.171 C 
HETATM   26  C   UNK N   1      27.056  21.237   6.169  0.00  0.00     0.034 C 
ENDBRANCH  24  25
ENDBRANCH   5  24
BRANCH   1  27
HETATM   27  S   UNK N   1      24.065  14.525   5.921  0.00  0.00     0.243 S 
HETATM   28  O   UNK N   1      24.595  13.235   5.273  0.00  0.00    -0.206 OA
HETATM   29  O   UNK N   1      22.643  14.627   5.339  0.00  0.00    -0.206 OA
BRANCH  27  30
HETATM   30  N   UNK N   1      23.883  14.227   7.659  0.00  0.00    -0.203 NA
HETATM   31  C   UNK N   1      24.835  13.232   8.130  0.00  0.00     0.138 C 
HETATM   32  C   UNK N   1      24.744  13.163   9.655  0.00  0.00     0.287 C 
HETATM   33  N   UNK N   1      23.384  12.840  10.107  0.00  0.00     0.086 N 
HETATM   34  C   UNK N   1      22.366  13.698   9.484  0.00  0.00     0.287 C 
HETATM   35  C   UNK N   1      23.092  11.441   9.828  0.00  0.00     0.310 C 
HETATM   36  C   UNK N   1      22.531  13.773   7.964  0.00  0.00     0.138 C 
ENDBRANCH  27  30
ENDBRANCH   1  27
TORSDOF 7
ENDMDL
MODEL 6
REMARK VINA RESULT:      -6.9     12.405     16.836
REMARK  7 active torsions:
REMARK  status: ('A' for Active; 'I' for Inactive)
REMARK    1  A    between atoms: S_1  and  N_6 
REMARK    2  A    between atoms: S_1  and  C_18 
REMARK    3  A    between atoms: O_4  and  C_25 
REMARK    4  A    between atoms: O_4  and  C_34 
REMARK    5  A    between atoms: C_21  and  C_23 
REMARK    6  A    between atoms: C_27  and  C_29 
REMARK    7  A    between atoms: C_29  and  C_31 
ROOT
HETATM    1  C   UNK N   1      33.262  15.816   7.359  0.00  0.00     0.075 A 
HETATM    2  C   UNK N   1      32.021  15.732   6.756  0.00  0.00     0.042 A 
HETATM    3  C   UNK N   1      31.006  16.627   7.072  0.00  0.00     0.043 A 
HETATM    4  C   UNK N   1      33.506  16.788   8.332  0.00  0.00     0.027 A 
HETATM    5  C   UNK N   1      31.233  17.624   8.048  0.00  0.00     0.082 A 
HETATM    6  C   UNK N   1      32.490  17.683   8.687  0.00  0.00     0.039 A 
ENDROOT
BRANCH   3   7
HETATM    7  C   UNK N   1      29.785  16.561   6.258  0.00  0.00     0.121 A 
HETATM    8  N   UNK N   1      29.153  17.717   5.902  0.00  0.00    -0.338 N 
HETATM    9  C   UNK N   1      28.179  17.652   4.969  0.00  0.00     0.092 A 
HETATM   10  H   UNK N   1      29.400  18.576   6.313  0.00  0.00     0.167 HD
HETATM   11  C   UNK N   1      27.452  18.647   4.377  0.00  0.00     0.055 A 
HETATM   12  C   UNK N   1      27.785  16.494   4.396  0.00  0.00     0.147 A 
HETATM   13  N   UNK N   1      26.623  18.082   3.464  0.00  0.00    -0.300 N 
HETATM   14  N   UNK N   1      26.830  16.767   3.487  0.00  0.00    -0.289 N 
ATOM     15  HN  UNK N   1      25.959  18.576   2.866  1.00  0.00     0.187 HD
HETATM   16  C   UNK N   1      26.152  15.821   2.615  0.00  0.00     0.178 C 
HETATM   17  C   UNK N   1      28.388  15.301   4.767  0.00  0.00     0.277 A 
HETATM   18  O   UNK N   1      28.062  14.237   4.274  0.00  0.00    -0.265 OA
HETATM   19  N   UNK N   1      29.409  15.363   5.687  0.00  0.00    -0.307 N 
ATOM     20  HN  UNK N   1      29.897  14.508   5.952  1.00  0.00     0.170 HD
BRANCH  11  21
HETATM   21  C   UNK N   1      27.602  20.105   4.636  0.00  0.00     0.061 C 
BRANCH  21  22
HETATM   22  C   UNK N   1      26.487  20.616   5.518  0.00  0.00     0.002 C 
HETATM   23  C   UNK N   1      27.046  21.686   6.431  0.00  0.00     0.005 C 
ENDBRANCH  21  22
ENDBRANCH  11  21
ENDBRANCH   3   7
BRANCH   5  24
HETATM   24  O   UNK N   1      30.244  18.496   8.365  0.00  0.00    -0.351 OA
BRANCH  24  25
HETATM   25  C   UNK N   1      29.600  18.522   9.581  0.00  0.00     0.171 C 
HETATM   26  C   UNK N   1      28.218  17.923   9.424  0.00  0.00     0.034 C 
ENDBRANCH  24  25
ENDBRANCH   5  24
BRANCH   1  27
HETATM   27  S   UNK N   1      34.518  14.682   6.825  0.00  0.00     0.243 S 
HETATM   28  O   UNK N   1      35.690  15.358   6.093  0.00  0.00    -0.206 OA
HETATM   29  O   UNK N   1      33.988  13.701   5.762  0.00  0.00    -0.206 OA
BRANCH  27  30
HETATM   30  N   UNK N   1      35.190  13.697   8.136  0.00  0.00    -0.203 NA
HETATM   31  C   UNK N   1      34.138  13.141   8.974  0.00  0.00     0.138 C 
HETATM   32  C   UNK N   1      34.776  12.163   9.962  0.00  0.00     0.287 C 
HETATM   33  N   UNK N   1      35.809  12.811  10.782  0.00  0.00     0.086 N 
HETATM   34  C   UNK N   1      36.779  13.565   9.972  0.00  0.00     0.287 C 
HETATM   35  C   UNK N   1      35.183  13.695  11.755  0.00  0.00     0.310 C 
HETATM   36  C   UNK N   1      36.089  14.490   8.967  0.00  0.00     0.138 C 
ENDBRANCH  27  30
ENDBRANCH   1  27
TORSDOF 7
ENDMDL
MODEL 7
REMARK VINA RESULT:      -6.8     11.720     14.925
REMARK  7 active torsions:
REMARK  status: ('A' for Active; 'I' for Inactive)
REMARK    1  A    between atoms: S_1  and  N_6 
REMARK    2  A    between atoms: S_1  and  C_18 
REMARK    3  A    between atoms: O_4  and  C_25 
REMARK    4  A    between atoms: O_4  and  C_34 
REMARK    5  A    between atoms: C_21  and  C_23 
REMARK    6  A    between atoms: C_27  and  C_29 
REMARK    7  A    between atoms: C_29  and  C_31 
ROOT
HETATM    1  C   UNK N   1      30.582  14.811   3.095  0.00  0.00     0.075 A 
HETATM    2  C   UNK N   1      29.976  15.900   3.692  0.00  0.00     0.042 A 
HETATM    3  C   UNK N   1      28.641  16.202   3.451  0.00  0.00     0.043 A 
HETATM    4  C   UNK N   1      29.866  14.011   2.200  0.00  0.00     0.027 A 
HETATM    5  C   UNK N   1      27.895  15.402   2.556  0.00  0.00     0.082 A 
HETATM    6  C   UNK N   1      28.528  14.312   1.920  0.00  0.00     0.039 A 
ENDROOT
BRANCH   3   7
HETATM    7  C   UNK N   1      28.046  17.274   4.260  0.00  0.00     0.121 A 
HETATM    8  N   UNK N   1      28.132  17.213   5.621  0.00  0.00    -0.338 N 
HETATM    9  C   UNK N   1      27.792  18.308   6.333  0.00  0.00     0.092 A 
HETATM   10  H   UNK N   1      28.434  16.392   6.073  0.00  0.00     0.167 HD
HETATM   11  C   UNK N   1      27.860  18.547   7.677  0.00  0.00     0.055 A 
HETATM   12  C   UNK N   1      27.346  19.448   5.761  0.00  0.00     0.147 A 
HETATM   13  N   UNK N   1      27.447  19.819   7.905  0.00  0.00    -0.300 N 
HETATM   14  N   UNK N   1      27.130  20.359   6.729  0.00  0.00    -0.289 N 
ATOM     15  HN  UNK N   1      27.390  20.281   8.813  1.00  0.00     0.187 HD
HETATM   16  C   UNK N   1      26.681  21.731   6.559  0.00  0.00     0.178 C 
HETATM   17  C   UNK N   1      27.216  19.523   4.382  0.00  0.00     0.277 A 
HETATM   18  O   UNK N   1      26.818  20.532   3.829  0.00  0.00    -0.265 OA
HETATM   19  N   UNK N   1      27.599  18.425   3.647  0.00  0.00    -0.307 N 
ATOM     20  HN  UNK N   1      27.551  18.463   2.629  1.00  0.00     0.170 HD
BRANCH  11  21
HETATM   21  C   UNK N   1      28.373  17.599   8.703  0.00  0.00     0.061 C 
BRANCH  21  22
HETATM   22  C   UNK N   1      29.459  18.238   9.537  0.00  0.00     0.002 C 
HETATM   23  C   UNK N   1      30.767  18.140   8.783  0.00  0.00     0.005 C 
ENDBRANCH  21  22
ENDBRANCH  11  21
ENDBRANCH   3   7
BRANCH   5  24
HETATM   24  O   UNK N   1      26.593  15.696   2.312  0.00  0.00    -0.351 OA
BRANCH  24  25
HETATM   25  C   UNK N   1      25.540  14.889   2.680  0.00  0.00     0.171 C 
HETATM   26  C   UNK N   1      24.721  14.552   1.451  0.00  0.00     0.034 C 
ENDBRANCH  24  25
ENDBRANCH   5  24
BRANCH   1  27
HETATM   27  S   UNK N   1      32.265  14.459   3.534  0.00  0.00     0.243 S 
HETATM   28  O   UNK N   1      33.293  14.985   2.518  0.00  0.00    -0.206 OA
HETATM   29  O   UNK N   1      32.550  12.945   3.537  0.00  0.00    -0.206 OA
BRANCH  27  30
HETATM   30  N   UNK N   1      32.723  15.065   5.136  0.00  0.00    -0.203 NA
HETATM   31  C   UNK N   1      34.040  15.683   5.113  0.00  0.00     0.138 C 
HETATM   32  C   UNK N   1      34.286  16.340   6.472  0.00  0.00     0.287 C 
HETATM   33  N   UNK N   1      34.182  15.374   7.573  0.00  0.00     0.086 N 
HETATM   34  C   UNK N   1      32.947  14.577   7.507  0.00  0.00     0.287 C 
HETATM   35  C   UNK N   1      35.341  14.493   7.567  0.00  0.00     0.310 C 
HETATM   36  C   UNK N   1      32.723  13.984   6.114  0.00  0.00     0.138 C 
ENDBRANCH  27  30
ENDBRANCH   1  27
TORSDOF 7
ENDMDL
MODEL 8
REMARK VINA RESULT:      -6.8     14.254     18.738
REMARK  7 active torsions:
REMARK  status: ('A' for Active; 'I' for Inactive)
REMARK    1  A    between atoms: S_1  and  N_6 
REMARK    2  A    between atoms: S_1  and  C_18 
REMARK    3  A    between atoms: O_4  and  C_25 
REMARK    4  A    between atoms: O_4  and  C_34 
REMARK    5  A    between atoms: C_21  and  C_23 
REMARK    6  A    between atoms: C_27  and  C_29 
REMARK    7  A    between atoms: C_29  and  C_31 
ROOT
HETATM    1  C   UNK N   1      35.292  14.434   9.236  0.00  0.00     0.075 A 
HETATM    2  C   UNK N   1      34.338  15.368   8.880  0.00  0.00     0.042 A 
HETATM    3  C   UNK N   1      33.282  15.035   8.041  0.00  0.00     0.043 A 
HETATM    4  C   UNK N   1      35.231  13.136   8.722  0.00  0.00     0.027 A 
HETATM    5  C   UNK N   1      33.195  13.726   7.515  0.00  0.00     0.082 A 
HETATM    6  C   UNK N   1      34.192  12.785   7.851  0.00  0.00     0.039 A 
ENDROOT
BRANCH   3   7
HETATM    7  C   UNK N   1      32.233  16.047   7.859  0.00  0.00     0.121 A 
HETATM    8  N   UNK N   1      31.768  16.312   6.604  0.00  0.00    -0.338 N 
HETATM    9  C   UNK N   1      30.654  17.064   6.480  0.00  0.00     0.092 A 
HETATM   10  H   UNK N   1      32.232  15.965   5.808  0.00  0.00     0.167 HD
HETATM   11  C   UNK N   1      29.936  17.409   5.369  0.00  0.00     0.055 A 
HETATM   12  C   UNK N   1      29.997  17.586   7.540  0.00  0.00     0.147 A 
HETATM   13  N   UNK N   1      28.864  18.141   5.765  0.00  0.00    -0.300 N 
HETATM   14  N   UNK N   1      28.914  18.248   7.091  0.00  0.00    -0.289 N 
ATOM     15  HN  UNK N   1      28.148  18.538   5.155  1.00  0.00     0.187 HD
HETATM   16  C   UNK N   1      27.909  18.931   7.890  0.00  0.00     0.178 C 
HETATM   17  C   UNK N   1      30.470  17.359   8.824  0.00  0.00     0.277 A 
HETATM   18  O   UNK N   1      29.907  17.812   9.804  0.00  0.00    -0.265 OA
HETATM   19  N   UNK N   1      31.581  16.561   8.961  0.00  0.00    -0.307 N 
ATOM     20  HN  UNK N   1      31.931  16.346   9.894  1.00  0.00     0.170 HD
BRANCH  11  21
HETATM   21  C   UNK N   1      30.239  16.987   3.974  0.00  0.00     0.061 C 
BRANCH  21  22
HETATM   22  C   UNK N   1      29.108  16.169   3.397  0.00  0.00     0.002 C 
HETATM   23  C   UNK N   1      29.228  14.750   3.908  0.00  0.00     0.005 C 
ENDBRANCH  21  22
ENDBRANCH  11  21
ENDBRANCH   3   7
BRANCH   5  24
HETATM   24  O   UNK N   1      32.170  13.397   6.690  0.00  0.00    -0.351 OA
BRANCH  24  25
HETATM   25  C   UNK N   1      32.331  12.772   5.474  0.00  0.00     0.171 C 
HETATM   26  C   UNK N   1      32.890  13.765   4.476  0.00  0.00     0.034 C 
ENDBRANCH  24  25
ENDBRANCH   5  24
BRANCH   1  27
HETATM   27  S   UNK N   1      36.551  14.933  10.383  0.00  0.00     0.243 S 
HETATM   28  O   UNK N   1      36.482  16.421  10.768  0.00  0.00    -0.206 OA
HETATM   29  O   UNK N   1      37.960  14.817   9.770  0.00  0.00    -0.206 OA
BRANCH  27  30
HETATM   30  N   UNK N   1      36.567  13.982  11.879  0.00  0.00    -0.203 NA
HETATM   31  C   UNK N   1      37.181  12.679  11.672  0.00  0.00     0.138 C 
HETATM   32  C   UNK N   1      37.326  11.995  13.032  0.00  0.00     0.287 C 
HETATM   33  N   UNK N   1      36.033  11.861  13.717  0.00  0.00     0.086 N 
HETATM   34  C   UNK N   1      35.285  13.127  13.759  0.00  0.00     0.287 C 
HETATM   35  C   UNK N   1      35.234  10.834  13.063  0.00  0.00     0.310 C 
HETATM   36  C   UNK N   1      35.212  13.794  12.383  0.00  0.00     0.138 C 
ENDBRANCH  27  30
ENDBRANCH   1  27
TORSDOF 7
ENDMDL
MODEL 9
REMARK VINA RESULT:      -6.8     13.140     15.914
REMARK  7 active torsions:
REMARK  status: ('A' for Active; 'I' for Inactive)
REMARK    1  A    between atoms: S_1  and  N_6 
REMARK    2  A    between atoms: S_1  and  C_18 
REMARK    3  A    between atoms: O_4  and  C_25 
REMARK    4  A    between atoms: O_4  and  C_34 
REMARK    5  A    between atoms: C_21  and  C_23 
REMARK    6  A    between atoms: C_27  and  C_29 
REMARK    7  A    between atoms: C_29  and  C_31 
ROOT
HETATM    1  C   UNK N   1      21.072  15.175   5.583  0.00  0.00     0.075 A 
HETATM    2  C   UNK N   1      22.326  15.334   5.022  0.00  0.00     0.042 A 
HETATM    3  C   UNK N   1      22.611  16.408   4.188  0.00  0.00     0.043 A 
HETATM    4  C   UNK N   1      20.050  16.081   5.286  0.00  0.00     0.027 A 
HETATM    5  C   UNK N   1      21.594  17.341   3.881  0.00  0.00     0.082 A 
HETATM    6  C   UNK N   1      20.306  17.156   4.426  0.00  0.00     0.039 A 
ENDROOT
BRANCH   3   7
HETATM    7  C   UNK N   1      24.011  16.580   3.781  0.00  0.00     0.121 A 
HETATM    8  N   UNK N   1      24.623  17.785   3.977  0.00  0.00    -0.338 N 
HETATM    9  C   UNK N   1      25.962  17.856   3.817  0.00  0.00     0.092 A 
HETATM   10  H   UNK N   1      24.103  18.582   4.229  0.00  0.00     0.167 HD
HETATM   11  C   UNK N   1      26.825  18.894   4.026  0.00  0.00     0.055 A 
HETATM   12  C   UNK N   1      26.715  16.797   3.447  0.00  0.00     0.147 A 
HETATM   13  N   UNK N   1      28.084  18.459   3.770  0.00  0.00    -0.300 N 
HETATM   14  N   UNK N   1      28.006  17.180   3.412  0.00  0.00    -0.289 N 
ATOM     15  HN  UNK N   1      28.939  19.013   3.840  1.00  0.00     0.187 HD
HETATM   16  C   UNK N   1      29.158  16.351   3.097  0.00  0.00     0.178 C 
HETATM   17  C   UNK N   1      26.112  15.572   3.208  0.00  0.00     0.277 A 
HETATM   18  O   UNK N   1      26.756  14.594   2.872  0.00  0.00    -0.265 OA
HETATM   19  N   UNK N   1      24.754  15.481   3.408  0.00  0.00    -0.307 N 
ATOM     20  HN  UNK N   1      24.288  14.583   3.276  1.00  0.00     0.170 HD
BRANCH  11  21
HETATM   21  C   UNK N   1      26.453  20.247   4.523  0.00  0.00     0.061 C 
BRANCH  21  22
HETATM   22  C   UNK N   1      27.486  20.773   5.492  0.00  0.00     0.002 C 
HETATM   23  C   UNK N   1      26.793  21.668   6.497  0.00  0.00     0.005 C 
ENDBRANCH  21  22
ENDBRANCH  11  21
ENDBRANCH   3   7
BRANCH   5  24
HETATM   24  O   UNK N   1      21.865  18.389   3.063  0.00  0.00    -0.351 OA
BRANCH  24  25
HETATM   25  C   UNK N   1      20.902  19.194   2.498  0.00  0.00     0.171 C 
HETATM   26  C   UNK N   1      21.293  20.644   2.690  0.00  0.00     0.034 C 
ENDBRANCH  24  25
ENDBRANCH   5  24
BRANCH   1  27
HETATM   27  S   UNK N   1      20.833  13.819   6.703  0.00  0.00     0.243 S 
HETATM   28  O   UNK N   1      19.938  12.703   6.140  0.00  0.00    -0.206 OA
HETATM   29  O   UNK N   1      20.066  14.252   7.967  0.00  0.00    -0.206 OA
BRANCH  27  30
HETATM   30  N   UNK N   1      22.347  13.079   7.254  0.00  0.00    -0.203 NA
HETATM   31  C   UNK N   1      22.108  11.788   7.881  0.00  0.00     0.138 C 
HETATM   32  C   UNK N   1      23.461  11.132   8.162  0.00  0.00     0.287 C 
HETATM   33  N   UNK N   1      24.311  11.977   9.012  0.00  0.00     0.086 N 
HETATM   34  C   UNK N   1      24.405  13.358   8.518  0.00  0.00     0.287 C 
HETATM   35  C   UNK N   1      23.802  11.972  10.377  0.00  0.00     0.310 C 
HETATM   36  C   UNK N   1      23.028  13.950   8.205  0.00  0.00     0.138 C 
ENDBRANCH  27  30
ENDBRANCH   1  27
TORSDOF 7
ENDMDL
