MODEL 1
REMARK VINA RESULT:      -7.1      0.000      0.000
REMARK  6 active torsions:
REMARK  status: ('A' for Active; 'I' for Inactive)
REMARK    1  A    between atoms: O_1  and  C_22 
REMARK    2  A    between atoms: C_6  and  C_11 
REMARK    3  A    between atoms: C_13  and  C_14 
REMARK    4  A    between atoms: C_16  and  C_17 
REMARK    5  A    between atoms: C_18  and  C_19 
REMARK    6  A    between atoms: C_21  and  C_22 
ROOT
HETATM    1  C   UNK N   1      25.998  23.698  -7.492  0.00  0.00    -0.062 C 
HETATM    2  C   UNK N   1      25.413  22.599  -8.310  0.00  0.00     0.048 C 
HETATM    3  C   UNK N   1      25.770  24.965  -7.889  0.00  0.00     0.007 C 
ENDROOT
BRANCH   1   4
HETATM    4  C   UNK N   1      26.811  23.306  -6.303  0.00  0.00     0.007 C 
HETATM    5  C   UNK N   1      28.119  23.560  -6.155  0.00  0.00     0.009 C 
BRANCH   5   6
HETATM    6  C   UNK N   1      28.927  23.116  -4.976  0.00  0.00    -0.048 C 
HETATM    7  C   UNK N   1      28.903  23.921  -3.668  0.00  0.00    -0.020 C 
HETATM    8  C   UNK N   1      29.644  23.232  -2.519  0.00  0.00     0.014 C 
HETATM    9  C   UNK N   1      29.527  25.287  -3.904  0.00  0.00     0.020 C 
HETATM   10  C   UNK N   1      27.476  24.112  -3.186  0.00  0.00     0.020 C 
HETATM   11  C   UNK N   1      30.933  22.600  -2.996  0.00  0.00     0.005 C 
HETATM   12  C   UNK N   1      30.570  21.498  -3.973  0.00  0.00     0.034 C 
HETATM   13  C   UNK N   1      29.694  21.995  -5.093  0.00  0.00    -0.077 C 
HETATM   14  C   UNK N   1      29.725  21.208  -6.361  0.00  0.00     0.044 C 
ENDBRANCH   5   6
ENDBRANCH   1   4
BRANCH   3  15
HETATM   15  C   UNK N   1      26.298  26.141  -7.188  0.00  0.00     0.001 C 
HETATM   16  C   UNK N   1      25.728  26.637  -6.089  0.00  0.00     0.007 C 
BRANCH  16  17
HETATM   17  C   UNK N   1      26.309  27.820  -5.424  0.00  0.00    -0.056 C 
HETATM   18  C   UNK N   1      27.384  28.603  -6.114  0.00  0.00     0.048 C 
HETATM   19  C   UNK N   1      25.863  28.172  -4.206  0.00  0.00     0.087 C 
BRANCH  19  20
HETATM   20  C   UNK N   1      26.355  29.325  -3.409  0.00  0.00     0.165 C 
HETATM   21  O   UNK N   1      27.143  29.174  -2.488  0.00  0.00    -0.647 OA
BRANCH  20  22
HETATM   22  O   UNK N   1      25.917  30.562  -3.704  0.00  0.00    -0.773 OA
HETATM   23  H   UNK N   1      25.790  31.191  -3.021  0.00  0.00     0.167 HD
ENDBRANCH  20  22
ENDBRANCH  19  20
ENDBRANCH  16  17
ENDBRANCH   3  15
TORSDOF 6
ENDMDL
MODEL 2
REMARK VINA RESULT:      -6.8      2.891      5.989
REMARK  6 active torsions:
REMARK  status: ('A' for Active; 'I' for Inactive)
REMARK    1  A    between atoms: O_1  and  C_22 
REMARK    2  A    between atoms: C_6  and  C_11 
REMARK    3  A    between atoms: C_13  and  C_14 
REMARK    4  A    between atoms: C_16  and  C_17 
REMARK    5  A    between atoms: C_18  and  C_19 
REMARK    6  A    between atoms: C_21  and  C_22 
ROOT
HETATM    1  C   UNK N   1      27.524  21.724  -7.919  0.00  0.00    -0.062 C 
HETATM    2  C   UNK N   1      26.850  21.291  -9.175  0.00  0.00     0.048 C 
HETATM    3  C   UNK N   1      28.622  21.047  -7.530  0.00  0.00     0.007 C 
ENDROOT
BRANCH   1   4
HETATM    4  C   UNK N   1      26.917  22.868  -7.177  0.00  0.00     0.007 C 
HETATM    5  C   UNK N   1      27.450  24.096  -7.096  0.00  0.00     0.009 C 
BRANCH   5   6
HETATM    6  C   UNK N   1      26.850  25.216  -6.306  0.00  0.00    -0.048 C 
HETATM    7  C   UNK N   1      27.110  25.331  -4.797  0.00  0.00    -0.020 C 
HETATM    8  C   UNK N   1      26.568  26.625  -4.185  0.00  0.00     0.014 C 
HETATM    9  C   UNK N   1      26.476  24.148  -4.082  0.00  0.00     0.020 C 
HETATM   10  C   UNK N   1      28.602  25.331  -4.512  0.00  0.00     0.020 C 
HETATM   11  C   UNK N   1      25.207  26.971  -4.747  0.00  0.00     0.005 C 
HETATM   12  C   UNK N   1      25.380  27.255  -6.228  0.00  0.00     0.034 C 
HETATM   13  C   UNK N   1      26.058  26.119  -6.950  0.00  0.00    -0.077 C 
HETATM   14  C   UNK N   1      25.797  26.014  -8.416  0.00  0.00     0.044 C 
ENDBRANCH   5   6
ENDBRANCH   1   4
BRANCH   3  15
HETATM   15  C   UNK N   1      29.374  21.355  -6.308  0.00  0.00     0.001 C 
HETATM   16  C   UNK N   1      30.400  22.206  -6.293  0.00  0.00     0.007 C 
BRANCH  16  17
HETATM   17  C   UNK N   1      31.115  22.481  -5.031  0.00  0.00    -0.056 C 
HETATM   18  C   UNK N   1      32.339  23.345  -5.048  0.00  0.00     0.048 C 
HETATM   19  C   UNK N   1      30.655  21.947  -3.888  0.00  0.00     0.087 C 
BRANCH  19  20
HETATM   20  C   UNK N   1      31.271  22.122  -2.546  0.00  0.00     0.165 C 
HETATM   21  O   UNK N   1      30.860  22.961  -1.760  0.00  0.00    -0.647 OA
BRANCH  20  22
HETATM   22  O   UNK N   1      32.308  21.342  -2.194  0.00  0.00    -0.773 OA
HETATM   23  H   UNK N   1      32.374  20.469  -2.529  0.00  0.00     0.167 HD
ENDBRANCH  20  22
ENDBRANCH  19  20
ENDBRANCH  16  17
ENDBRANCH   3  15
TORSDOF 6
ENDMDL
MODEL 3
REMARK VINA RESULT:      -6.8      2.819      5.852
REMARK  6 active torsions:
REMARK  status: ('A' for Active; 'I' for Inactive)
REMARK    1  A    between atoms: O_1  and  C_22 
REMARK    2  A    between atoms: C_6  and  C_11 
REMARK    3  A    between atoms: C_13  and  C_14 
REMARK    4  A    between atoms: C_16  and  C_17 
REMARK    5  A    between atoms: C_18  and  C_19 
REMARK    6  A    between atoms: C_21  and  C_22 
ROOT
HETATM    1  C   UNK N   1      27.101  22.712  -7.638  0.00  0.00    -0.062 C 
HETATM    2  C   UNK N   1      26.362  22.455  -8.906  0.00  0.00     0.048 C 
HETATM    3  C   UNK N   1      28.184  21.952  -7.378  0.00  0.00     0.007 C 
ENDROOT
BRANCH   1   4
HETATM    4  C   UNK N   1      26.570  23.782  -6.744  0.00  0.00     0.007 C 
HETATM    5  C   UNK N   1      27.300  24.785  -6.236  0.00  0.00     0.009 C 
BRANCH   5   6
HETATM    6  C   UNK N   1      26.760  25.821  -5.302  0.00  0.00    -0.048 C 
HETATM    7  C   UNK N   1      26.160  27.125  -5.847  0.00  0.00    -0.020 C 
HETATM    8  C   UNK N   1      25.501  27.987  -4.768  0.00  0.00     0.014 C 
HETATM    9  C   UNK N   1      27.251  27.939  -6.526  0.00  0.00     0.020 C 
HETATM   10  C   UNK N   1      25.071  26.827  -6.862  0.00  0.00     0.020 C 
HETATM   11  C   UNK N   1      26.324  28.006  -3.500  0.00  0.00     0.005 C 
HETATM   12  C   UNK N   1      26.345  26.594  -2.945  0.00  0.00     0.034 C 
HETATM   13  C   UNK N   1      26.827  25.590  -3.960  0.00  0.00    -0.077 C 
HETATM   14  C   UNK N   1      27.410  24.327  -3.420  0.00  0.00     0.044 C 
ENDBRANCH   5   6
ENDBRANCH   1   4
BRANCH   3  15
HETATM   15  C   UNK N   1      28.993  22.087  -6.161  0.00  0.00     0.001 C 
HETATM   16  C   UNK N   1      30.162  22.727  -6.145  0.00  0.00     0.007 C 
BRANCH  16  17
HETATM   17  C   UNK N   1      30.930  22.834  -4.888  0.00  0.00    -0.056 C 
HETATM   18  C   UNK N   1      32.199  23.630  -4.863  0.00  0.00     0.048 C 
HETATM   19  C   UNK N   1      30.476  22.211  -3.788  0.00  0.00     0.087 C 
BRANCH  19  20
HETATM   20  C   UNK N   1      31.140  22.216  -2.459  0.00  0.00     0.165 C 
HETATM   21  O   UNK N   1      30.771  22.959  -1.563  0.00  0.00    -0.647 OA
BRANCH  20  22
HETATM   22  O   UNK N   1      32.178  21.388  -2.241  0.00  0.00    -0.773 OA
HETATM   23  H   UNK N   1      32.026  20.477  -2.081  0.00  0.00     0.167 HD
ENDBRANCH  20  22
ENDBRANCH  19  20
ENDBRANCH  16  17
ENDBRANCH   3  15
TORSDOF 6
ENDMDL
MODEL 4
REMARK VINA RESULT:      -6.5      3.252      4.631
REMARK  6 active torsions:
REMARK  status: ('A' for Active; 'I' for Inactive)
REMARK    1  A    between atoms: O_1  and  C_22 
REMARK    2  A    between atoms: C_6  and  C_11 
REMARK    3  A    between atoms: C_13  and  C_14 
REMARK    4  A    between atoms: C_16  and  C_17 
REMARK    5  A    between atoms: C_18  and  C_19 
REMARK    6  A    between atoms: C_21  and  C_22 
ROOT
HETATM    1  C   UNK N   1      26.251  26.440  -4.203  0.00  0.00    -0.062 C 
HETATM    2  C   UNK N   1      26.218  27.122  -2.879  0.00  0.00     0.048 C 
HETATM    3  C   UNK N   1      25.641  27.050  -5.239  0.00  0.00     0.007 C 
ENDROOT
BRANCH   1   4
HETATM    4  C   UNK N   1      26.943  25.120  -4.274  0.00  0.00     0.007 C 
HETATM    5  C   UNK N   1      28.253  24.956  -4.511  0.00  0.00     0.009 C 
BRANCH   5   6
HETATM    6  C   UNK N   1      28.919  23.622  -4.627  0.00  0.00    -0.048 C 
HETATM    7  C   UNK N   1      29.732  23.053  -3.455  0.00  0.00    -0.020 C 
HETATM    8  C   UNK N   1      30.194  21.611  -3.680  0.00  0.00     0.014 C 
HETATM    9  C   UNK N   1      30.953  23.926  -3.214  0.00  0.00     0.020 C 
HETATM   10  C   UNK N   1      28.894  23.026  -2.188  0.00  0.00     0.020 C 
HETATM   11  C   UNK N   1      30.667  21.401  -5.101  0.00  0.00     0.005 C 
HETATM   12  C   UNK N   1      29.474  21.600  -6.017  0.00  0.00     0.034 C 
HETATM   13  C   UNK N   1      28.804  22.932  -5.797  0.00  0.00    -0.077 C 
HETATM   14  C   UNK N   1      28.018  23.477  -6.943  0.00  0.00     0.044 C 
ENDBRANCH   5   6
ENDBRANCH   1   4
BRANCH   3  15
HETATM   15  C   UNK N   1      25.583  26.485  -6.591  0.00  0.00     0.001 C 
HETATM   16  C   UNK N   1      26.495  26.761  -7.524  0.00  0.00     0.007 C 
BRANCH  16  17
HETATM   17  C   UNK N   1      26.387  26.157  -8.867  0.00  0.00    -0.056 C 
HETATM   18  C   UNK N   1      27.388  26.517  -9.922  0.00  0.00     0.048 C 
HETATM   19  C   UNK N   1      25.387  25.296  -9.119  0.00  0.00     0.087 C 
BRANCH  19  20
HETATM   20  C   UNK N   1      25.141  24.619 -10.419  0.00  0.00     0.165 C 
HETATM   21  O   UNK N   1      24.395  25.100 -11.258  0.00  0.00    -0.647 OA
BRANCH  20  22
HETATM   22  O   UNK N   1      25.748  23.446 -10.673  0.00  0.00    -0.773 OA
HETATM   23  H   UNK N   1      25.871  22.823  -9.984  0.00  0.00     0.167 HD
ENDBRANCH  20  22
ENDBRANCH  19  20
ENDBRANCH  16  17
ENDBRANCH   3  15
TORSDOF 6
ENDMDL
MODEL 5
REMARK VINA RESULT:      -6.5     13.837     17.007
REMARK  6 active torsions:
REMARK  status: ('A' for Active; 'I' for Inactive)
REMARK    1  A    between atoms: O_1  and  C_22 
REMARK    2  A    between atoms: C_6  and  C_11 
REMARK    3  A    between atoms: C_13  and  C_14 
REMARK    4  A    between atoms: C_16  and  C_17 
REMARK    5  A    between atoms: C_18  and  C_19 
REMARK    6  A    between atoms: C_21  and  C_22 
ROOT
HETATM    1  C   UNK N   1      33.092  16.423   4.502  0.00  0.00    -0.062 C 
HETATM    2  C   UNK N   1      32.696  16.421   3.066  0.00  0.00     0.048 C 
HETATM    3  C   UNK N   1      34.198  15.736   4.849  0.00  0.00     0.007 C 
ENDROOT
BRANCH   1   4
HETATM    4  C   UNK N   1      32.218  17.174   5.450  0.00  0.00     0.007 C 
HETATM    5  C   UNK N   1      31.193  16.641   6.131  0.00  0.00     0.009 C 
BRANCH   5   6
HETATM    6  C   UNK N   1      30.298  17.422   7.040  0.00  0.00    -0.048 C 
HETATM    7  C   UNK N   1      30.694  17.665   8.504  0.00  0.00    -0.020 C 
HETATM    8  C   UNK N   1      29.754  18.624   9.236  0.00  0.00     0.014 C 
HETATM    9  C   UNK N   1      30.718  16.339   9.248  0.00  0.00     0.020 C 
HETATM   10  C   UNK N   1      32.074  18.294   8.585  0.00  0.00     0.020 C 
HETATM   11  C   UNK N   1      28.308  18.358   8.878  0.00  0.00     0.005 C 
HETATM   12  C   UNK N   1      28.138  18.659   7.401  0.00  0.00     0.034 C 
HETATM   13  C   UNK N   1      29.119  17.898   6.548  0.00  0.00    -0.077 C 
HETATM   14  C   UNK N   1      28.724  17.665   5.127  0.00  0.00     0.044 C 
ENDBRANCH   5   6
ENDBRANCH   1   4
BRANCH   3  15
HETATM   15  C   UNK N   1      34.692  15.640   6.227  0.00  0.00     0.001 C 
HETATM   16  C   UNK N   1      34.261  14.711   7.081  0.00  0.00     0.007 C 
BRANCH  16  17
HETATM   17  C   UNK N   1      34.800  14.662   8.455  0.00  0.00    -0.056 C 
HETATM   18  C   UNK N   1      36.081  13.931   8.721  0.00  0.00     0.048 C 
HETATM   19  C   UNK N   1      34.127  15.272   9.445  0.00  0.00     0.087 C 
BRANCH  19  20
HETATM   20  C   UNK N   1      34.534  15.299  10.874  0.00  0.00     0.165 C 
HETATM   21  O   UNK N   1      35.250  16.183  11.317  0.00  0.00    -0.647 OA
BRANCH  20  22
HETATM   22  O   UNK N   1      34.110  14.322  11.695  0.00  0.00    -0.773 OA
HETATM   23  H   UNK N   1      33.494  14.514  12.375  0.00  0.00     0.167 HD
ENDBRANCH  20  22
ENDBRANCH  19  20
ENDBRANCH  16  17
ENDBRANCH   3  15
TORSDOF 6
ENDMDL
MODEL 6
REMARK VINA RESULT:      -6.5     22.053     25.604
REMARK  6 active torsions:
REMARK  status: ('A' for Active; 'I' for Inactive)
REMARK    1  A    between atoms: O_1  and  C_22 
REMARK    2  A    between atoms: C_6  and  C_11 
REMARK    3  A    between atoms: C_13  and  C_14 
REMARK    4  A    between atoms: C_16  and  C_17 
REMARK    5  A    between atoms: C_18  and  C_19 
REMARK    6  A    between atoms: C_21  and  C_22 
ROOT
HETATM    1  C   UNK N   1      36.848  14.677  15.035  0.00  0.00    -0.062 C 
HETATM    2  C   UNK N   1      37.453  15.778  15.835  0.00  0.00     0.048 C 
HETATM    3  C   UNK N   1      36.494  14.947  13.763  0.00  0.00     0.007 C 
ENDROOT
BRANCH   1   4
HETATM    4  C   UNK N   1      36.664  13.361  15.715  0.00  0.00     0.007 C 
HETATM    5  C   UNK N   1      35.527  12.955  16.297  0.00  0.00     0.009 C 
BRANCH   5   6
HETATM    6  C   UNK N   1      35.376  11.652  17.017  0.00  0.00    -0.048 C 
HETATM    7  C   UNK N   1      35.377  10.328  16.237  0.00  0.00    -0.020 C 
HETATM    8  C   UNK N   1      35.389   9.093  17.141  0.00  0.00     0.014 C 
HETATM    9  C   UNK N   1      34.149  10.267  15.342  0.00  0.00     0.020 C 
HETATM   10  C   UNK N   1      36.619  10.220  15.370  0.00  0.00     0.020 C 
HETATM   11  C   UNK N   1      34.472   9.271  18.330  0.00  0.00     0.005 C 
HETATM   12  C   UNK N   1      35.026  10.405  19.172  0.00  0.00     0.034 C 
HETATM   13  C   UNK N   1      35.224  11.665  18.371  0.00  0.00    -0.077 C 
HETATM   14  C   UNK N   1      35.220  12.946  19.137  0.00  0.00     0.044 C 
ENDBRANCH   5   6
ENDBRANCH   1   4
BRANCH   3  15
HETATM   15  C   UNK N   1      35.874  13.962  12.869  0.00  0.00     0.001 C 
HETATM   16  C   UNK N   1      36.589  13.094  12.152  0.00  0.00     0.007 C 
BRANCH  16  17
HETATM   17  C   UNK N   1      35.908  12.122  11.273  0.00  0.00    -0.056 C 
HETATM   18  C   UNK N   1      36.417  11.902   9.882  0.00  0.00     0.048 C 
HETATM   19  C   UNK N   1      34.839  11.454  11.739  0.00  0.00     0.087 C 
BRANCH  19  20
HETATM   20  C   UNK N   1      34.045  10.458  10.973  0.00  0.00     0.165 C 
HETATM   21  O   UNK N   1      34.356   9.278  10.948  0.00  0.00    -0.647 OA
BRANCH  20  22
HETATM   22  O   UNK N   1      32.964  10.869  10.287  0.00  0.00    -0.773 OA
HETATM   23  H   UNK N   1      32.355  11.462  10.682  0.00  0.00     0.167 HD
ENDBRANCH  20  22
ENDBRANCH  19  20
ENDBRANCH  16  17
ENDBRANCH   3  15
TORSDOF 6
ENDMDL
MODEL 7
REMARK VINA RESULT:      -6.5     22.253     25.791
REMARK  6 active torsions:
REMARK  status: ('A' for Active; 'I' for Inactive)
REMARK    1  A    between atoms: O_1  and  C_22 
REMARK    2  A    between atoms: C_6  and  C_11 
REMARK    3  A    between atoms: C_13  and  C_14 
REMARK    4  A    between atoms: C_16  and  C_17 
REMARK    5  A    between atoms: C_18  and  C_19 
REMARK    6  A    between atoms: C_21  and  C_22 
ROOT
HETATM    1  C   UNK N   1      36.118   8.999  14.277  0.00  0.00    -0.062 C 
HETATM    2  C   UNK N   1      36.368   7.540  14.441  0.00  0.00     0.048 C 
HETATM    3  C   UNK N   1      35.835   9.453  13.040  0.00  0.00     0.007 C 
ENDROOT
BRANCH   1   4
HETATM    4  C   UNK N   1      36.219   9.851  15.499  0.00  0.00     0.007 C 
HETATM    5  C   UNK N   1      35.184  10.198  16.276  0.00  0.00     0.009 C 
BRANCH   5   6
HETATM    6  C   UNK N   1      35.299  11.093  17.469  0.00  0.00    -0.048 C 
HETATM    7  C   UNK N   1      35.565  10.504  18.862  0.00  0.00    -0.020 C 
HETATM    8  C   UNK N   1      35.826  11.567  19.931  0.00  0.00     0.014 C 
HETATM    9  C   UNK N   1      34.373   9.661  19.291  0.00  0.00     0.020 C 
HETATM   10  C   UNK N   1      36.803   9.624  18.841  0.00  0.00     0.020 C 
HETATM   11  C   UNK N   1      34.892  12.746  19.775  0.00  0.00     0.005 C 
HETATM   12  C   UNK N   1      35.207  13.409  18.447  0.00  0.00     0.034 C 
HETATM   13  C   UNK N   1      35.147  12.437  17.297  0.00  0.00    -0.077 C 
HETATM   14  C   UNK N   1      34.886  13.019  15.947  0.00  0.00     0.044 C 
ENDBRANCH   5   6
ENDBRANCH   1   4
BRANCH   3  15
HETATM   15  C   UNK N   1      35.584  10.866  12.733  0.00  0.00     0.001 C 
HETATM   16  C   UNK N   1      36.310  11.547  11.846  0.00  0.00     0.007 C 
BRANCH  16  17
HETATM   17  C   UNK N   1      36.006  12.967  11.576  0.00  0.00    -0.056 C 
HETATM   18  C   UNK N   1      34.964  13.668  12.392  0.00  0.00     0.048 C 
HETATM   19  C   UNK N   1      36.671  13.604  10.597  0.00  0.00     0.087 C 
BRANCH  19  20
HETATM   20  C   UNK N   1      36.469  15.022  10.201  0.00  0.00     0.165 C 
HETATM   21  O   UNK N   1      35.709  15.329   9.296  0.00  0.00    -0.647 OA
BRANCH  20  22
HETATM   22  O   UNK N   1      37.145  15.986  10.849  0.00  0.00    -0.773 OA
HETATM   23  H   UNK N   1      38.018  15.827  11.149  0.00  0.00     0.167 HD
ENDBRANCH  20  22
ENDBRANCH  19  20
ENDBRANCH  16  17
ENDBRANCH   3  15
TORSDOF 6
ENDMDL
MODEL 8
REMARK VINA RESULT:      -6.4     11.880     14.441
REMARK  6 active torsions:
REMARK  status: ('A' for Active; 'I' for Inactive)
REMARK    1  A    between atoms: O_1  and  C_22 
REMARK    2  A    between atoms: C_6  and  C_11 
REMARK    3  A    between atoms: C_13  and  C_14 
REMARK    4  A    between atoms: C_16  and  C_17 
REMARK    5  A    between atoms: C_18  and  C_19 
REMARK    6  A    between atoms: C_21  and  C_22 
ROOT
HETATM    1  C   UNK N   1      25.761  19.881   3.895  0.00  0.00    -0.062 C 
HETATM    2  C   UNK N   1      25.283  20.456   2.606  0.00  0.00     0.048 C 
HETATM    3  C   UNK N   1      27.003  20.207   4.304  0.00  0.00     0.007 C 
ENDROOT
BRANCH   1   4
HETATM    4  C   UNK N   1      24.830  18.971   4.624  0.00  0.00     0.007 C 
HETATM    5  C   UNK N   1      24.719  17.654   4.402  0.00  0.00     0.009 C 
BRANCH   5   6
HETATM    6  C   UNK N   1      23.744  16.767   5.111  0.00  0.00    -0.048 C 
HETATM    7  C   UNK N   1      22.236  16.915   4.864  0.00  0.00    -0.020 C 
HETATM    8  C   UNK N   1      21.402  15.819   5.532  0.00  0.00     0.014 C 
HETATM    9  C   UNK N   1      21.769  18.268   5.379  0.00  0.00     0.020 C 
HETATM   10  C   UNK N   1      21.927  16.824   3.380  0.00  0.00     0.020 C 
HETATM   11  C   UNK N   1      21.915  15.506   6.920  0.00  0.00     0.005 C 
HETATM   12  C   UNK N   1      23.312  14.932   6.775  0.00  0.00     0.034 C 
HETATM   13  C   UNK N   1      24.221  15.840   5.988  0.00  0.00    -0.077 C 
HETATM   14  C   UNK N   1      25.686  15.690   6.236  0.00  0.00     0.044 C 
ENDBRANCH   5   6
ENDBRANCH   1   4
BRANCH   3  15
HETATM   15  C   UNK N   1      27.606  19.701   5.543  0.00  0.00     0.001 C 
HETATM   16  C   UNK N   1      28.227  18.523   5.609  0.00  0.00     0.007 C 
BRANCH  16  17
HETATM   17  C   UNK N   1      28.819  18.069   6.883  0.00  0.00    -0.056 C 
HETATM   18  C   UNK N   1      29.994  17.140   6.863  0.00  0.00     0.048 C 
HETATM   19  C   UNK N   1      28.289  18.497   8.041  0.00  0.00     0.087 C 
BRANCH  19  20
HETATM   20  C   UNK N   1      28.765  18.120   9.398  0.00  0.00     0.165 C 
HETATM   21  O   UNK N   1      29.640  18.753   9.966  0.00  0.00    -0.647 OA
BRANCH  20  22
HETATM   22  O   UNK N   1      28.222  17.052  10.009  0.00  0.00    -0.773 OA
HETATM   23  H   UNK N   1      28.143  17.036  10.943  0.00  0.00     0.167 HD
ENDBRANCH  20  22
ENDBRANCH  19  20
ENDBRANCH  16  17
ENDBRANCH   3  15
TORSDOF 6
ENDMDL
MODEL 9
REMARK VINA RESULT:      -6.3     25.520     29.009
REMARK  6 active torsions:
REMARK  status: ('A' for Active; 'I' for Inactive)
REMARK    1  A    between atoms: O_1  and  C_22 
REMARK    2  A    between atoms: C_6  and  C_11 
REMARK    3  A    between atoms: C_13  and  C_14 
REMARK    4  A    between atoms: C_16  and  C_17 
REMARK    5  A    between atoms: C_18  and  C_19 
REMARK    6  A    between atoms: C_21  and  C_22 
ROOT
HETATM    1  C   UNK N   1      35.697   7.238  17.359  0.00  0.00    -0.062 C 
HETATM    2  C   UNK N   1      36.267   6.245  16.407  0.00  0.00     0.048 C 
HETATM    3  C   UNK N   1      35.042   6.769  18.439  0.00  0.00     0.007 C 
ENDROOT
BRANCH   1   4
HETATM    4  C   UNK N   1      35.882   8.683  17.031  0.00  0.00     0.007 C 
HETATM    5  C   UNK N   1      34.885   9.567  16.884  0.00  0.00     0.009 C 
BRANCH   5   6
HETATM    6  C   UNK N   1      35.088  11.000  16.507  0.00  0.00    -0.048 C 
HETATM    7  C   UNK N   1      35.120  11.419  15.030  0.00  0.00    -0.020 C 
HETATM    8  C   UNK N   1      35.162  12.936  14.831  0.00  0.00     0.014 C 
HETATM    9  C   UNK N   1      36.336  10.804  14.355  0.00  0.00     0.020 C 
HETATM   10  C   UNK N   1      33.869  10.941  14.313  0.00  0.00     0.020 C 
HETATM   11  C   UNK N   1      36.091  13.597  15.825  0.00  0.00     0.005 C 
HETATM   12  C   UNK N   1      35.512  13.377  17.210  0.00  0.00     0.034 C 
HETATM   13  C   UNK N   1      35.261  11.920  17.498  0.00  0.00    -0.077 C 
HETATM   14  C   UNK N   1      35.234  11.521  18.936  0.00  0.00     0.044 C 
ENDBRANCH   5   6
ENDBRANCH   1   4
BRANCH   3  15
HETATM   15  C   UNK N   1      34.418   7.633  19.447  0.00  0.00     0.001 C 
HETATM   16  C   UNK N   1      33.110   7.887  19.465  0.00  0.00     0.007 C 
BRANCH  16  17
HETATM   17  C   UNK N   1      32.539   8.762  20.508  0.00  0.00    -0.056 C 
HETATM   18  C   UNK N   1      31.054   8.949  20.585  0.00  0.00     0.048 C 
HETATM   19  C   UNK N   1      33.365   9.378  21.370  0.00  0.00     0.087 C 
BRANCH  19  20
HETATM   20  C   UNK N   1      32.943  10.294  22.462  0.00  0.00     0.165 C 
HETATM   21  O   UNK N   1      32.506   9.868  23.520  0.00  0.00    -0.647 OA
BRANCH  20  22
HETATM   22  O   UNK N   1      33.039  11.623  22.277  0.00  0.00    -0.773 OA
HETATM   23  H   UNK N   1      33.879  12.020  22.149  0.00  0.00     0.167 HD
ENDBRANCH  20  22
ENDBRANCH  19  20
ENDBRANCH  16  17
ENDBRANCH   3  15
TORSDOF 6
ENDMDL
