MODEL 1
REMARK VINA RESULT:      -8.7      0.000      0.000
REMARK  20 active torsions:
REMARK  status: ('A' for Active; 'I' for Inactive)
REMARK    1  A    between atoms: C_16  and  O_1 
REMARK    2  A    between atoms: C_20  and  O_1 
REMARK    3  A    between atoms: C_17  and  O_4 
REMARK    4  A    between atoms: O_4  and  C_29 
REMARK    5  A    between atoms: C_22  and  O_5 
REMARK    6  A    between atoms: O_5  and  C_28 
REMARK    7  A    between atoms: C_18  and  O_6 
REMARK    8  A    between atoms: C_21  and  O_7 
REMARK    9  A    between atoms: C_23  and  O_8 
REMARK   10  A    between atoms: C_24  and  O_9 
REMARK   11  A    between atoms: O_10  and  C_26 
REMARK   12  A    between atoms: O_12  and  C_36 
REMARK   13  A    between atoms: O_13  and  C_39 
REMARK   14  A    between atoms: O_14  and  C_42 
REMARK   15  A    between atoms: O_15  and  C_44 
REMARK   16  A    between atoms: C_19  and  C_26 
REMARK   17  A    between atoms: C_28  and  C_30 
REMARK   18  A    between atoms: C_29  and  C_31 
REMARK   19  A    between atoms: C_30  and  C_32 
REMARK   20  A    between atoms: C_33  and  C_38 
ROOT
HETATM    1  O   UNK N   1      24.241  15.689   4.426  0.00  0.00    -0.348 OA
HETATM    2  C   UNK N   1      22.427  17.632   5.475  0.00  0.00     0.190 C 
HETATM    3  C   UNK N   1      22.092  16.134   5.285  0.00  0.00     0.195 C 
HETATM    4  C   UNK N   1      23.817  18.004   4.889  0.00  0.00     0.205 C 
HETATM    5  C   UNK N   1      23.377  15.307   5.457  0.00  0.00     0.180 C 
HETATM    6  C   UNK N   1      24.834  16.876   4.868  0.00  0.00     0.291 C 
ENDROOT
BRANCH   3   7
HETATM    7  O   UNK N   1      21.114  15.806   6.198  0.00  0.00    -0.307 OA
BRANCH   7   8
HETATM    8  C   UNK N   1      21.115  16.182   7.499  0.00  0.00     0.283 C 
HETATM    9  O   UNK N   1      20.781  17.311   7.839  0.00  0.00    -0.260 OA
BRANCH   8  10
HETATM   10  C   UNK N   1      21.665  15.246   8.473  0.00  0.00     0.083 C 
HETATM   11  C   UNK N   1      21.391  13.942   8.518  0.00  0.00     0.017 C 
BRANCH  11  12
HETATM   12  C   UNK N   1      21.762  13.190   9.726  0.00  0.00    -0.033 A 
HETATM   13  C   UNK N   1      23.119  13.032  10.049  0.00  0.00     0.050 A 
HETATM   14  C   UNK N   1      23.501  12.399  11.225  0.00  0.00     0.099 A 
HETATM   15  C   UNK N   1      22.525  11.905  12.096  0.00  0.00     0.098 A 
HETATM   16  C   UNK N   1      21.167  12.055  11.781  0.00  0.00     0.040 A 
HETATM   17  C   UNK N   1      20.784  12.709  10.602  0.00  0.00     0.014 A 
BRANCH  14  18
HETATM   18  O   UNK N   1      24.807  12.277  11.517  0.00  0.00    -0.358 OA
HETATM   19  H   UNK N   1      25.468  12.477  10.883  0.00  0.00     0.217 HD
ENDBRANCH  14  18
BRANCH  15  20
HETATM   20  O   UNK N   1      22.884  11.294  13.236  0.00  0.00    -0.358 OA
HETATM   21  H   UNK N   1      23.628  11.594  13.719  0.00  0.00     0.217 HD
ENDBRANCH  15  20
ENDBRANCH  11  12
ENDBRANCH   8  10
ENDBRANCH   7   8
ENDBRANCH   3   7
BRANCH   2  22
HETATM   22  O   UNK N   1      21.362  18.416   4.935  0.00  0.00    -0.348 OA
BRANCH  22  23
HETATM   23  C   UNK N   1      21.122  18.065   3.587  0.00  0.00     0.292 C 
HETATM   24  O   UNK N   1      19.971  17.269   3.446  0.00  0.00    -0.351 OA
HETATM   25  C   UNK N   1      20.297  16.496   2.321  0.00  0.00     0.152 C 
HETATM   26  C   UNK N   1      20.253  17.312   1.015  0.00  0.00     0.178 C 
HETATM   27  C   UNK N   1      19.614  15.138   2.307  0.00  0.00     0.042 C 
HETATM   28  C   UNK N   1      20.256  18.816   1.354  0.00  0.00     0.183 C 
HETATM   29  C   UNK N   1      21.112  19.226   2.576  0.00  0.00     0.204 C 
BRANCH  26  30
HETATM   30  O   UNK N   1      19.101  17.019   0.280  0.00  0.00    -0.390 OA
HETATM   31  H   UNK N   1      18.437  17.612  -0.106  0.00  0.00     0.210 HD
ENDBRANCH  26  30
BRANCH  28  32
HETATM   32  O   UNK N   1      20.534  19.598   0.234  0.00  0.00    -0.390 OA
HETATM   33  H   UNK N   1      20.154  20.467   0.034  0.00  0.00     0.210 HD
ENDBRANCH  28  32
BRANCH  29  34
HETATM   34  O   UNK N   1      20.539  20.367   3.142  0.00  0.00    -0.388 OA
HETATM   35  H   UNK N   1      19.688  20.548   3.570  0.00  0.00     0.210 HD
ENDBRANCH  29  34
ENDBRANCH  22  23
ENDBRANCH   2  22
BRANCH   5  36
HETATM   36  C   UNK N   1      23.181  13.803   5.396  0.00  0.00     0.198 C 
BRANCH  36  37
HETATM   37  O   UNK N   1      21.899  13.510   4.933  0.00  0.00    -0.398 OA
HETATM   38  H   UNK N   1      21.142  12.964   5.199  0.00  0.00     0.209 HD
ENDBRANCH  36  37
ENDBRANCH   5  36
BRANCH   4  39
HETATM   39  O   UNK N   1      24.360  19.050   5.641  0.00  0.00    -0.388 OA
HETATM   40  H   UNK N   1      24.124  19.781   6.233  0.00  0.00     0.210 HD
ENDBRANCH   4  39
BRANCH   6  41
HETATM   41  O   UNK N   1      25.848  17.240   3.978  0.00  0.00    -0.358 OA
BRANCH  41  42
HETATM   42  C   UNK N   1      26.969  16.505   4.360  0.00  0.00     0.175 C 
BRANCH  42  43
HETATM   43  C   UNK N   1      28.148  17.446   4.564  0.00  0.00     0.065 C 
BRANCH  43  44
HETATM   44  C   UNK N   1      28.652  17.506   5.978  0.00  0.00    -0.053 A 
HETATM   45  C   UNK N   1      27.815  17.838   7.055  0.00  0.00     0.046 A 
HETATM   46  C   UNK N   1      28.316  17.890   8.355  0.00  0.00     0.099 A 
HETATM   47  C   UNK N   1      29.668  17.615   8.589  0.00  0.00     0.098 A 
HETATM   48  C   UNK N   1      30.508  17.286   7.521  0.00  0.00     0.040 A 
HETATM   49  C   UNK N   1      30.001  17.231   6.220  0.00  0.00     0.010 A 
BRANCH  46  50
HETATM   50  O   UNK N   1      27.500  18.207   9.373  0.00  0.00    -0.358 OA
HETATM   51  H   UNK N   1      27.393  19.097   9.646  0.00  0.00     0.217 HD
ENDBRANCH  46  50
BRANCH  47  52
HETATM   52  O   UNK N   1      30.163  17.668   9.836  0.00  0.00    -0.358 OA
HETATM   53  H   UNK N   1      29.848  18.309  10.443  0.00  0.00     0.217 HD
ENDBRANCH  47  52
ENDBRANCH  43  44
ENDBRANCH  42  43
ENDBRANCH  41  42
ENDBRANCH   6  41
TORSDOF 20
ENDMDL
MODEL 2
REMARK VINA RESULT:      -8.6      2.184      7.758
REMARK  20 active torsions:
REMARK  status: ('A' for Active; 'I' for Inactive)
REMARK    1  A    between atoms: C_16  and  O_1 
REMARK    2  A    between atoms: C_20  and  O_1 
REMARK    3  A    between atoms: C_17  and  O_4 
REMARK    4  A    between atoms: O_4  and  C_29 
REMARK    5  A    between atoms: C_22  and  O_5 
REMARK    6  A    between atoms: O_5  and  C_28 
REMARK    7  A    between atoms: C_18  and  O_6 
REMARK    8  A    between atoms: C_21  and  O_7 
REMARK    9  A    between atoms: C_23  and  O_8 
REMARK   10  A    between atoms: C_24  and  O_9 
REMARK   11  A    between atoms: O_10  and  C_26 
REMARK   12  A    between atoms: O_12  and  C_36 
REMARK   13  A    between atoms: O_13  and  C_39 
REMARK   14  A    between atoms: O_14  and  C_42 
REMARK   15  A    between atoms: O_15  and  C_44 
REMARK   16  A    between atoms: C_19  and  C_26 
REMARK   17  A    between atoms: C_28  and  C_30 
REMARK   18  A    between atoms: C_29  and  C_31 
REMARK   19  A    between atoms: C_30  and  C_32 
REMARK   20  A    between atoms: C_33  and  C_38 
ROOT
HETATM    1  O   UNK N   1      25.323  17.433   3.247  0.00  0.00    -0.348 OA
HETATM    2  C   UNK N   1      27.040  17.110   5.508  0.00  0.00     0.190 C 
HETATM    3  C   UNK N   1      26.244  15.963   4.842  0.00  0.00     0.195 C 
HETATM    4  C   UNK N   1      26.688  18.499   4.907  0.00  0.00     0.205 C 
HETATM    5  C   UNK N   1      26.088  16.266   3.343  0.00  0.00     0.180 C 
HETATM    6  C   UNK N   1      26.227  18.480   3.460  0.00  0.00     0.291 C 
ENDROOT
BRANCH   3   7
HETATM    7  O   UNK N   1      26.921  14.788   5.086  0.00  0.00    -0.307 OA
BRANCH   7   8
HETATM    8  C   UNK N   1      26.382  13.694   5.673  0.00  0.00     0.283 C 
HETATM    9  O   UNK N   1      26.725  12.562   5.354  0.00  0.00    -0.260 OA
BRANCH   8  10
HETATM   10  C   UNK N   1      25.272  13.900   6.597  0.00  0.00     0.083 C 
HETATM   11  C   UNK N   1      25.060  13.189   7.705  0.00  0.00     0.017 C 
BRANCH  11  12
HETATM   12  C   UNK N   1      23.750  13.294   8.364  0.00  0.00    -0.033 A 
HETATM   13  C   UNK N   1      22.607  13.544   7.587  0.00  0.00     0.050 A 
HETATM   14  C   UNK N   1      21.344  13.567   8.167  0.00  0.00     0.099 A 
HETATM   15  C   UNK N   1      21.208  13.348   9.541  0.00  0.00     0.098 A 
HETATM   16  C   UNK N   1      22.343  13.101  10.326  0.00  0.00     0.040 A 
HETATM   17  C   UNK N   1      23.614  13.062   9.736  0.00  0.00     0.014 A 
BRANCH  14  18
HETATM   18  O   UNK N   1      20.267  13.791   7.397  0.00  0.00    -0.358 OA
HETATM   19  H   UNK N   1      20.353  13.995   6.486  0.00  0.00     0.217 HD
ENDBRANCH  14  18
BRANCH  15  20
HETATM   20  O   UNK N   1      19.992  13.366  10.110  0.00  0.00    -0.358 OA
HETATM   21  H   UNK N   1      19.235  13.121   9.616  0.00  0.00     0.217 HD
ENDBRANCH  15  20
ENDBRANCH  11  12
ENDBRANCH   8  10
ENDBRANCH   7   8
ENDBRANCH   3   7
BRANCH   2  22
HETATM   22  O   UNK N   1      26.847  17.045   6.922  0.00  0.00    -0.348 OA
BRANCH  22  23
HETATM   23  C   UNK N   1      28.090  17.087   7.594  0.00  0.00     0.292 C 
HETATM   24  O   UNK N   1      29.146  17.425   6.728  0.00  0.00    -0.351 OA
HETATM   25  C   UNK N   1      30.225  16.749   7.321  0.00  0.00     0.152 C 
HETATM   26  C   UNK N   1      30.690  17.420   8.628  0.00  0.00     0.178 C 
HETATM   27  C   UNK N   1      31.305  16.355   6.328  0.00  0.00     0.042 C 
HETATM   28  C   UNK N   1      29.598  18.393   9.117  0.00  0.00     0.183 C 
HETATM   29  C   UNK N   1      28.139  17.941   8.875  0.00  0.00     0.204 C 
BRANCH  26  30
HETATM   30  O   UNK N   1      31.874  18.134   8.431  0.00  0.00    -0.390 OA
HETATM   31  H   UNK N   1      32.775  17.950   8.742  0.00  0.00     0.210 HD
ENDBRANCH  26  30
BRANCH  28  32
HETATM   32  O   UNK N   1      29.812  18.787  10.437  0.00  0.00    -0.390 OA
HETATM   33  H   UNK N   1      30.618  19.199  10.788  0.00  0.00     0.210 HD
ENDBRANCH  28  32
BRANCH  29  34
HETATM   34  O   UNK N   1      27.349  19.084   8.735  0.00  0.00    -0.388 OA
HETATM   35  H   UNK N   1      26.983  19.727   9.363  0.00  0.00     0.210 HD
ENDBRANCH  29  34
ENDBRANCH  22  23
ENDBRANCH   2  22
BRANCH   5  36
HETATM   36  C   UNK N   1      25.410  15.173   2.538  0.00  0.00     0.198 C 
BRANCH  36  37
HETATM   37  O   UNK N   1      26.341  14.198   2.180  0.00  0.00    -0.398 OA
HETATM   38  H   UNK N   1      26.921  13.557   2.620  0.00  0.00     0.209 HD
ENDBRANCH  36  37
ENDBRANCH   5  36
BRANCH   4  39
HETATM   39  O   UNK N   1      27.814  19.323   4.982  0.00  0.00    -0.388 OA
HETATM   40  H   UNK N   1      28.324  19.883   5.587  0.00  0.00     0.210 HD
ENDBRANCH   4  39
BRANCH   6  41
HETATM   41  O   UNK N   1      25.586  19.695   3.206  0.00  0.00    -0.358 OA
BRANCH  41  42
HETATM   42  C   UNK N   1      24.444  19.697   4.006  0.00  0.00     0.175 C 
BRANCH  42  43
HETATM   43  C   UNK N   1      23.230  20.041   3.156  0.00  0.00     0.065 C 
BRANCH  43  44
HETATM   44  C   UNK N   1      22.042  19.151   3.387  0.00  0.00    -0.053 A 
HETATM   45  C   UNK N   1      20.804  19.384   2.766  0.00  0.00     0.046 A 
HETATM   46  C   UNK N   1      19.720  18.540   3.006  0.00  0.00     0.099 A 
HETATM   47  C   UNK N   1      19.864  17.455   3.878  0.00  0.00     0.098 A 
HETATM   48  C   UNK N   1      21.093  17.219   4.501  0.00  0.00     0.040 A 
HETATM   49  C   UNK N   1      22.179  18.064   4.254  0.00  0.00     0.010 A 
BRANCH  46  50
HETATM   50  O   UNK N   1      18.544  18.776   2.402  0.00  0.00    -0.358 OA
HETATM   51  H   UNK N   1      17.734  18.587   2.833  0.00  0.00     0.217 HD
ENDBRANCH  46  50
BRANCH  47  52
HETATM   52  O   UNK N   1      18.824  16.640   4.120  0.00  0.00    -0.358 OA
HETATM   53  H   UNK N   1      18.122  16.573   3.504  0.00  0.00     0.217 HD
ENDBRANCH  47  52
ENDBRANCH  43  44
ENDBRANCH  42  43
ENDBRANCH  41  42
ENDBRANCH   6  41
TORSDOF 20
ENDMDL
MODEL 3
REMARK VINA RESULT:      -8.6      2.935      7.323
REMARK  20 active torsions:
REMARK  status: ('A' for Active; 'I' for Inactive)
REMARK    1  A    between atoms: C_16  and  O_1 
REMARK    2  A    between atoms: C_20  and  O_1 
REMARK    3  A    between atoms: C_17  and  O_4 
REMARK    4  A    between atoms: O_4  and  C_29 
REMARK    5  A    between atoms: C_22  and  O_5 
REMARK    6  A    between atoms: O_5  and  C_28 
REMARK    7  A    between atoms: C_18  and  O_6 
REMARK    8  A    between atoms: C_21  and  O_7 
REMARK    9  A    between atoms: C_23  and  O_8 
REMARK   10  A    between atoms: C_24  and  O_9 
REMARK   11  A    between atoms: O_10  and  C_26 
REMARK   12  A    between atoms: O_12  and  C_36 
REMARK   13  A    between atoms: O_13  and  C_39 
REMARK   14  A    between atoms: O_14  and  C_42 
REMARK   15  A    between atoms: O_15  and  C_44 
REMARK   16  A    between atoms: C_19  and  C_26 
REMARK   17  A    between atoms: C_28  and  C_30 
REMARK   18  A    between atoms: C_29  and  C_31 
REMARK   19  A    between atoms: C_30  and  C_32 
REMARK   20  A    between atoms: C_33  and  C_38 
ROOT
HETATM    1  O   UNK N   1      21.493  14.944   0.755  0.00  0.00    -0.348 OA
HETATM    2  C   UNK N   1      21.193  15.179   3.587  0.00  0.00     0.190 C 
HETATM    3  C   UNK N   1      20.990  16.340   2.585  0.00  0.00     0.195 C 
HETATM    4  C   UNK N   1      21.731  13.894   2.899  0.00  0.00     0.205 C 
HETATM    5  C   UNK N   1      20.479  15.769   1.253  0.00  0.00     0.180 C 
HETATM    6  C   UNK N   1      21.346  13.732   1.438  0.00  0.00     0.291 C 
ENDROOT
BRANCH   3   7
HETATM    7  O   UNK N   1      20.114  17.237   3.158  0.00  0.00    -0.307 OA
BRANCH   7   8
HETATM    8  C   UNK N   1      20.368  18.553   3.343  0.00  0.00     0.283 C 
HETATM    9  O   UNK N   1      19.532  19.409   3.080  0.00  0.00    -0.260 OA
BRANCH   8  10
HETATM   10  C   UNK N   1      21.722  18.933   3.730  0.00  0.00     0.083 C 
HETATM   11  C   UNK N   1      22.490  19.799   3.069  0.00  0.00     0.017 C 
BRANCH  11  12
HETATM   12  C   UNK N   1      23.925  19.848   3.389  0.00  0.00    -0.033 A 
HETATM   13  C   UNK N   1      24.434  19.016   4.398  0.00  0.00     0.050 A 
HETATM   14  C   UNK N   1      25.797  18.977   4.668  0.00  0.00     0.099 A 
HETATM   15  C   UNK N   1      26.672  19.783   3.933  0.00  0.00     0.098 A 
HETATM   16  C   UNK N   1      26.173  20.620   2.926  0.00  0.00     0.040 A 
HETATM   17  C   UNK N   1      24.801  20.645   2.644  0.00  0.00     0.014 A 
BRANCH  14  18
HETATM   18  O   UNK N   1      26.258  18.158   5.628  0.00  0.00    -0.358 OA
HETATM   19  H   UNK N   1      25.676  17.733   6.226  0.00  0.00     0.217 HD
ENDBRANCH  14  18
BRANCH  15  20
HETATM   20  O   UNK N   1      27.991  19.751   4.186  0.00  0.00    -0.358 OA
HETATM   21  H   UNK N   1      28.318  20.009   5.025  0.00  0.00     0.217 HD
ENDBRANCH  15  20
ENDBRANCH  11  12
ENDBRANCH   8  10
ENDBRANCH   7   8
ENDBRANCH   3   7
BRANCH   2  22
HETATM   22  O   UNK N   1      22.024  15.633   4.657  0.00  0.00    -0.348 OA
BRANCH  22  23
HETATM   23  C   UNK N   1      21.408  15.381   5.904  0.00  0.00     0.292 C 
HETATM   24  O   UNK N   1      22.132  14.449   6.670  0.00  0.00    -0.351 OA
HETATM   25  C   UNK N   1      21.110  13.838   7.413  0.00  0.00     0.152 C 
HETATM   26  C   UNK N   1      20.555  14.760   8.516  0.00  0.00     0.178 C 
HETATM   27  C   UNK N   1      21.429  12.406   7.810  0.00  0.00     0.042 C 
HETATM   28  C   UNK N   1      20.995  16.211   8.236  0.00  0.00     0.183 C 
HETATM   29  C   UNK N   1      21.049  16.620   6.746  0.00  0.00     0.204 C 
BRANCH  26  30
HETATM   30  O   UNK N   1      21.033  14.380   9.774  0.00  0.00    -0.390 OA
HETATM   31  H   UNK N   1      21.838  14.647  10.244  0.00  0.00     0.210 HD
ENDBRANCH  26  30
BRANCH  28  32
HETATM   32  O   UNK N   1      20.276  17.126   9.004  0.00  0.00    -0.390 OA
HETATM   33  H   UNK N   1      19.346  17.045   9.269  0.00  0.00     0.210 HD
ENDBRANCH  28  32
BRANCH  29  34
HETATM   34  O   UNK N   1      22.023  17.611   6.603  0.00  0.00    -0.388 OA
HETATM   35  H   UNK N   1      22.991  17.612   6.656  0.00  0.00     0.210 HD
ENDBRANCH  29  34
ENDBRANCH  22  23
ENDBRANCH   2  22
BRANCH   5  36
HETATM   36  C   UNK N   1      20.139  16.809   0.201  0.00  0.00     0.198 C 
BRANCH  36  37
HETATM   37  O   UNK N   1      18.806  17.198   0.331  0.00  0.00    -0.398 OA
HETATM   38  H   UNK N   1      18.294  17.879   0.795  0.00  0.00     0.209 HD
ENDBRANCH  36  37
ENDBRANCH   5  36
BRANCH   4  39
HETATM   39  O   UNK N   1      21.253  12.777   3.589  0.00  0.00    -0.388 OA
HETATM   40  H   UNK N   1      21.454  12.178   4.324  0.00  0.00     0.210 HD
ENDBRANCH   4  39
BRANCH   6  41
HETATM   41  O   UNK N   1      22.206  12.784   0.878  0.00  0.00    -0.358 OA
BRANCH  41  42
HETATM   42  C   UNK N   1      23.340  13.489   0.480  0.00  0.00     0.175 C 
BRANCH  42  43
HETATM   43  C   UNK N   1      24.577  12.852   1.098  0.00  0.00     0.065 C 
BRANCH  43  44
HETATM   44  C   UNK N   1      25.514  13.829   1.750  0.00  0.00    -0.053 A 
HETATM   45  C   UNK N   1      26.787  13.449   2.205  0.00  0.00     0.046 A 
HETATM   46  C   UNK N   1      27.631  14.380   2.811  0.00  0.00     0.099 A 
HETATM   47  C   UNK N   1      27.203  15.703   2.974  0.00  0.00     0.098 A 
HETATM   48  C   UNK N   1      25.936  16.086   2.526  0.00  0.00     0.040 A 
HETATM   49  C   UNK N   1      25.094  15.151   1.914  0.00  0.00     0.010 A 
BRANCH  46  50
HETATM   50  O   UNK N   1      28.846  14.000   3.237  0.00  0.00    -0.358 OA
HETATM   51  H   UNK N   1      29.172  14.276   4.071  0.00  0.00     0.217 HD
ENDBRANCH  46  50
BRANCH  47  52
HETATM   52  O   UNK N   1      28.005  16.605   3.561  0.00  0.00    -0.358 OA
HETATM   53  H   UNK N   1      27.681  17.144   4.256  0.00  0.00     0.217 HD
ENDBRANCH  47  52
ENDBRANCH  43  44
ENDBRANCH  42  43
ENDBRANCH  41  42
ENDBRANCH   6  41
TORSDOF 20
ENDMDL
MODEL 4
REMARK VINA RESULT:      -8.6      1.974      6.812
REMARK  20 active torsions:
REMARK  status: ('A' for Active; 'I' for Inactive)
REMARK    1  A    between atoms: C_16  and  O_1 
REMARK    2  A    between atoms: C_20  and  O_1 
REMARK    3  A    between atoms: C_17  and  O_4 
REMARK    4  A    between atoms: O_4  and  C_29 
REMARK    5  A    between atoms: C_22  and  O_5 
REMARK    6  A    between atoms: O_5  and  C_28 
REMARK    7  A    between atoms: C_18  and  O_6 
REMARK    8  A    between atoms: C_21  and  O_7 
REMARK    9  A    between atoms: C_23  and  O_8 
REMARK   10  A    between atoms: C_24  and  O_9 
REMARK   11  A    between atoms: O_10  and  C_26 
REMARK   12  A    between atoms: O_12  and  C_36 
REMARK   13  A    between atoms: O_13  and  C_39 
REMARK   14  A    between atoms: O_14  and  C_42 
REMARK   15  A    between atoms: O_15  and  C_44 
REMARK   16  A    between atoms: C_19  and  C_26 
REMARK   17  A    between atoms: C_28  and  C_30 
REMARK   18  A    between atoms: C_29  and  C_31 
REMARK   19  A    between atoms: C_30  and  C_32 
REMARK   20  A    between atoms: C_33  and  C_38 
ROOT
HETATM    1  O   UNK N   1      23.420  13.213   5.381  0.00  0.00    -0.348 OA
HETATM    2  C   UNK N   1      23.805  15.839   4.320  0.00  0.00     0.190 C 
HETATM    3  C   UNK N   1      24.937  14.806   4.535  0.00  0.00     0.195 C 
HETATM    4  C   UNK N   1      22.444  15.349   4.888  0.00  0.00     0.205 C 
HETATM    5  C   UNK N   1      24.363  13.391   4.363  0.00  0.00     0.180 C 
HETATM    6  C   UNK N   1      22.260  13.842   4.916  0.00  0.00     0.291 C 
ENDROOT
BRANCH   3   7
HETATM    7  O   UNK N   1      25.940  15.094   3.636  0.00  0.00    -0.307 OA
BRANCH   7   8
HETATM    8  C   UNK N   1      27.253  15.191   3.949  0.00  0.00     0.283 C 
HETATM    9  O   UNK N   1      28.097  14.501   3.389  0.00  0.00    -0.260 OA
BRANCH   8  10
HETATM   10  C   UNK N   1      27.619  16.039   5.077  0.00  0.00     0.083 C 
HETATM   11  C   UNK N   1      28.868  16.279   5.478  0.00  0.00     0.017 C 
BRANCH  11  12
HETATM   12  C   UNK N   1      29.073  16.889   6.801  0.00  0.00    -0.033 A 
HETATM   13  C   UNK N   1      30.371  16.961   7.332  0.00  0.00     0.050 A 
HETATM   14  C   UNK N   1      30.610  17.604   8.540  0.00  0.00     0.099 A 
HETATM   15  C   UNK N   1      29.547  18.179   9.242  0.00  0.00     0.098 A 
HETATM   16  C   UNK N   1      28.247  18.109   8.722  0.00  0.00     0.040 A 
HETATM   17  C   UNK N   1      28.010  17.475   7.496  0.00  0.00     0.014 A 
BRANCH  14  18
HETATM   18  O   UNK N   1      31.865  17.673   9.015  0.00  0.00    -0.358 OA
HETATM   19  H   UNK N   1      32.113  17.225   9.801  0.00  0.00     0.217 HD
ENDBRANCH  14  18
BRANCH  15  20
HETATM   20  O   UNK N   1      29.768  18.804  10.410  0.00  0.00    -0.358 OA
HETATM   21  H   UNK N   1      29.776  18.319  11.212  0.00  0.00     0.217 HD
ENDBRANCH  15  20
ENDBRANCH  11  12
ENDBRANCH   8  10
ENDBRANCH   7   8
ENDBRANCH   3   7
BRANCH   2  22
HETATM   22  O   UNK N   1      24.219  17.095   4.859  0.00  0.00    -0.348 OA
BRANCH  22  23
HETATM   23  C   UNK N   1      23.826  18.154   4.008  0.00  0.00     0.292 C 
HETATM   24  O   UNK N   1      22.785  18.919   4.565  0.00  0.00    -0.351 OA
HETATM   25  C   UNK N   1      22.112  19.360   3.414  0.00  0.00     0.152 C 
HETATM   26  C   UNK N   1      22.900  20.443   2.653  0.00  0.00     0.178 C 
HETATM   27  C   UNK N   1      20.633  19.621   3.647  0.00  0.00     0.042 C 
HETATM   28  C   UNK N   1      24.362  20.447   3.141  0.00  0.00     0.183 C 
HETATM   29  C   UNK N   1      24.956  19.063   3.490  0.00  0.00     0.204 C 
BRANCH  26  30
HETATM   30  O   UNK N   1      22.349  21.709   2.871  0.00  0.00    -0.390 OA
HETATM   31  H   UNK N   1      22.780  22.576   2.937  0.00  0.00     0.210 HD
ENDBRANCH  26  30
BRANCH  28  32
HETATM   32  O   UNK N   1      25.190  21.172   2.285  0.00  0.00    -0.390 OA
HETATM   33  H   UNK N   1      25.595  20.843   1.466  0.00  0.00     0.210 HD
ENDBRANCH  28  32
BRANCH  29  34
HETATM   34  O   UNK N   1      25.931  19.245   4.473  0.00  0.00    -0.388 OA
HETATM   35  H   UNK N   1      26.632  18.680   4.835  0.00  0.00     0.210 HD
ENDBRANCH  29  34
ENDBRANCH  22  23
ENDBRANCH   2  22
BRANCH   5  36
HETATM   36  C   UNK N   1      25.385  12.272   4.448  0.00  0.00     0.198 C 
BRANCH  36  37
HETATM   37  O   UNK N   1      26.036  12.129   3.222  0.00  0.00    -0.398 OA
HETATM   38  H   UNK N   1      25.840  12.258   2.281  0.00  0.00     0.209 HD
ENDBRANCH  36  37
ENDBRANCH   5  36
BRANCH   4  39
HETATM   39  O   UNK N   1      21.412  15.889   4.117  0.00  0.00    -0.388 OA
HETATM   40  H   UNK N   1      20.578  16.381   4.175  0.00  0.00     0.210 HD
ENDBRANCH   4  39
BRANCH   6  41
HETATM   41  O   UNK N   1      21.207  13.562   5.791  0.00  0.00    -0.358 OA
BRANCH  41  42
HETATM   42  C   UNK N   1      21.565  14.136   7.010  0.00  0.00     0.175 C 
BRANCH  42  43
HETATM   43  C   UNK N   1      21.062  13.261   8.150  0.00  0.00     0.065 C 
BRANCH  43  44
HETATM   44  C   UNK N   1      22.109  12.909   9.167  0.00  0.00    -0.053 A 
HETATM   45  C   UNK N   1      21.778  12.380  10.425  0.00  0.00     0.046 A 
HETATM   46  C   UNK N   1      22.776  12.068  11.348  0.00  0.00     0.099 A 
HETATM   47  C   UNK N   1      24.119  12.291  11.023  0.00  0.00     0.098 A 
HETATM   48  C   UNK N   1      24.454  12.820   9.773  0.00  0.00     0.040 A 
HETATM   49  C   UNK N   1      23.452  13.127   8.848  0.00  0.00     0.010 A 
BRANCH  46  50
HETATM   50  O   UNK N   1      22.442  11.560  12.546  0.00  0.00    -0.358 OA
HETATM   51  H   UNK N   1      21.554  11.336  12.744  0.00  0.00     0.217 HD
ENDBRANCH  46  50
BRANCH  47  52
HETATM   52  O   UNK N   1      25.086  12.000  11.907  0.00  0.00    -0.358 OA
HETATM   53  H   UNK N   1      25.354  11.112  12.040  0.00  0.00     0.217 HD
ENDBRANCH  47  52
ENDBRANCH  43  44
ENDBRANCH  42  43
ENDBRANCH  41  42
ENDBRANCH   6  41
TORSDOF 20
ENDMDL
MODEL 5
REMARK VINA RESULT:      -8.5      4.360      9.540
REMARK  20 active torsions:
REMARK  status: ('A' for Active; 'I' for Inactive)
REMARK    1  A    between atoms: C_16  and  O_1 
REMARK    2  A    between atoms: C_20  and  O_1 
REMARK    3  A    between atoms: C_17  and  O_4 
REMARK    4  A    between atoms: O_4  and  C_29 
REMARK    5  A    between atoms: C_22  and  O_5 
REMARK    6  A    between atoms: O_5  and  C_28 
REMARK    7  A    between atoms: C_18  and  O_6 
REMARK    8  A    between atoms: C_21  and  O_7 
REMARK    9  A    between atoms: C_23  and  O_8 
REMARK   10  A    between atoms: C_24  and  O_9 
REMARK   11  A    between atoms: O_10  and  C_26 
REMARK   12  A    between atoms: O_12  and  C_36 
REMARK   13  A    between atoms: O_13  and  C_39 
REMARK   14  A    between atoms: O_14  and  C_42 
REMARK   15  A    between atoms: O_15  and  C_44 
REMARK   16  A    between atoms: C_19  and  C_26 
REMARK   17  A    between atoms: C_28  and  C_30 
REMARK   18  A    between atoms: C_29  and  C_31 
REMARK   19  A    between atoms: C_30  and  C_32 
REMARK   20  A    between atoms: C_33  and  C_38 
ROOT
HETATM    1  O   UNK N   1      28.094  13.824   4.900  0.00  0.00    -0.348 OA
HETATM    2  C   UNK N   1      28.819  16.276   3.625  0.00  0.00     0.190 C 
HETATM    3  C   UNK N   1      29.830  15.227   4.144  0.00  0.00     0.195 C 
HETATM    4  C   UNK N   1      27.355  15.925   4.009  0.00  0.00     0.205 C 
HETATM    5  C   UNK N   1      29.198  13.829   4.041  0.00  0.00     0.180 C 
HETATM    6  C   UNK N   1      27.068  14.443   4.177  0.00  0.00     0.291 C 
ENDROOT
BRANCH   3   7
HETATM    7  O   UNK N   1      30.982  15.354   3.399  0.00  0.00    -0.307 OA
BRANCH   7   8
HETATM    8  C   UNK N   1      31.783  16.445   3.396  0.00  0.00     0.283 C 
HETATM    9  O   UNK N   1      31.942  17.119   2.385  0.00  0.00    -0.260 OA
BRANCH   8  10
HETATM   10  C   UNK N   1      32.566  16.713   4.597  0.00  0.00     0.083 C 
HETATM   11  C   UNK N   1      33.223  15.791   5.300  0.00  0.00     0.017 C 
BRANCH  11  12
HETATM   12  C   UNK N   1      33.703  16.147   6.645  0.00  0.00    -0.033 A 
HETATM   13  C   UNK N   1      34.142  17.457   6.895  0.00  0.00     0.050 A 
HETATM   14  C   UNK N   1      34.522  17.848   8.172  0.00  0.00     0.099 A 
HETATM   15  C   UNK N   1      34.477  16.925   9.222  0.00  0.00     0.098 A 
HETATM   16  C   UNK N   1      34.043  15.614   8.982  0.00  0.00     0.040 A 
HETATM   17  C   UNK N   1      33.645  15.227   7.696  0.00  0.00     0.014 A 
BRANCH  14  18
HETATM   18  O   UNK N   1      34.921  19.113   8.386  0.00  0.00    -0.358 OA
HETATM   19  H   UNK N   1      34.359  19.839   8.200  0.00  0.00     0.217 HD
ENDBRANCH  14  18
BRANCH  15  20
HETATM   20  O   UNK N   1      34.841  17.294  10.461  0.00  0.00    -0.358 OA
HETATM   21  H   UNK N   1      34.300  17.874  10.960  0.00  0.00     0.217 HD
ENDBRANCH  15  20
ENDBRANCH  11  12
ENDBRANCH   8  10
ENDBRANCH   7   8
ENDBRANCH   3   7
BRANCH   2  22
HETATM   22  O   UNK N   1      29.223  17.570   4.078  0.00  0.00    -0.348 OA
BRANCH  22  23
HETATM   23  C   UNK N   1      28.805  17.781   5.412  0.00  0.00     0.292 C 
HETATM   24  O   UNK N   1      29.895  17.917   6.291  0.00  0.00    -0.351 OA
HETATM   25  C   UNK N   1      29.360  17.409   7.485  0.00  0.00     0.152 C 
HETATM   26  C   UNK N   1      28.343  18.372   8.128  0.00  0.00     0.178 C 
HETATM   27  C   UNK N   1      30.410  16.805   8.404  0.00  0.00     0.042 C 
HETATM   28  C   UNK N   1      27.907  19.421   7.086  0.00  0.00     0.183 C 
HETATM   29  C   UNK N   1      27.782  18.911   5.631  0.00  0.00     0.204 C 
BRANCH  26  30
HETATM   30  O   UNK N   1      28.902  19.032   9.225  0.00  0.00    -0.390 OA
HETATM   31  H   UNK N   1      28.520  19.703   9.812  0.00  0.00     0.210 HD
ENDBRANCH  26  30
BRANCH  28  32
HETATM   32  O   UNK N   1      26.770  20.116   7.497  0.00  0.00    -0.390 OA
HETATM   33  H   UNK N   1      26.456  20.209   8.410  0.00  0.00     0.210 HD
ENDBRANCH  28  32
BRANCH  29  34
HETATM   34  O   UNK N   1      28.040  19.982   4.773  0.00  0.00    -0.388 OA
HETATM   35  H   UNK N   1      27.593  20.825   4.600  0.00  0.00     0.210 HD
ENDBRANCH  29  34
ENDBRANCH  22  23
ENDBRANCH   2  22
BRANCH   5  36
HETATM   36  C   UNK N   1      30.117  12.684   4.424  0.00  0.00     0.198 C 
BRANCH  36  37
HETATM   37  O   UNK N   1      30.968  13.082   5.455  0.00  0.00    -0.398 OA
HETATM   38  H   UNK N   1      31.522  13.846   5.680  0.00  0.00     0.209 HD
ENDBRANCH  36  37
ENDBRANCH   5  36
BRANCH   4  39
HETATM   39  O   UNK N   1      26.498  16.412   3.018  0.00  0.00    -0.388 OA
HETATM   40  H   UNK N   1      25.682  16.918   2.881  0.00  0.00     0.210 HD
ENDBRANCH   4  39
BRANCH   6  41
HETATM   41  O   UNK N   1      25.872  14.323   4.889  0.00  0.00    -0.358 OA
BRANCH  41  42
HETATM   42  C   UNK N   1      26.220  13.793   6.130  0.00  0.00     0.175 C 
BRANCH  42  43
HETATM   43  C   UNK N   1      25.448  14.514   7.226  0.00  0.00     0.065 C 
BRANCH  43  44
HETATM   44  C   UNK N   1      24.748  13.602   8.191  0.00  0.00    -0.053 A 
HETATM   45  C   UNK N   1      25.215  13.400   9.500  0.00  0.00     0.046 A 
HETATM   46  C   UNK N   1      24.543  12.542  10.370  0.00  0.00     0.099 A 
HETATM   47  C   UNK N   1      23.396  11.870   9.934  0.00  0.00     0.098 A 
HETATM   48  C   UNK N   1      22.926  12.064   8.632  0.00  0.00     0.040 A 
HETATM   49  C   UNK N   1      23.600  12.929   7.764  0.00  0.00     0.010 A 
BRANCH  46  50
HETATM   50  O   UNK N   1      25.003  12.363  11.619  0.00  0.00    -0.358 OA
HETATM   51  H   UNK N   1      25.877  12.061  11.773  0.00  0.00     0.217 HD
ENDBRANCH  46  50
BRANCH  47  52
HETATM   52  O   UNK N   1      22.745  11.037  10.762  0.00  0.00    -0.358 OA
HETATM   53  H   UNK N   1      22.724  10.117  10.586  0.00  0.00     0.217 HD
ENDBRANCH  47  52
ENDBRANCH  43  44
ENDBRANCH  42  43
ENDBRANCH  41  42
ENDBRANCH   6  41
TORSDOF 20
ENDMDL
MODEL 6
REMARK VINA RESULT:      -8.4      8.047     13.892
REMARK  20 active torsions:
REMARK  status: ('A' for Active; 'I' for Inactive)
REMARK    1  A    between atoms: C_16  and  O_1 
REMARK    2  A    between atoms: C_20  and  O_1 
REMARK    3  A    between atoms: C_17  and  O_4 
REMARK    4  A    between atoms: O_4  and  C_29 
REMARK    5  A    between atoms: C_22  and  O_5 
REMARK    6  A    between atoms: O_5  and  C_28 
REMARK    7  A    between atoms: C_18  and  O_6 
REMARK    8  A    between atoms: C_21  and  O_7 
REMARK    9  A    between atoms: C_23  and  O_8 
REMARK   10  A    between atoms: C_24  and  O_9 
REMARK   11  A    between atoms: O_10  and  C_26 
REMARK   12  A    between atoms: O_12  and  C_36 
REMARK   13  A    between atoms: O_13  and  C_39 
REMARK   14  A    between atoms: O_14  and  C_42 
REMARK   15  A    between atoms: O_15  and  C_44 
REMARK   16  A    between atoms: C_19  and  C_26 
REMARK   17  A    between atoms: C_28  and  C_30 
REMARK   18  A    between atoms: C_29  and  C_31 
REMARK   19  A    between atoms: C_30  and  C_32 
REMARK   20  A    between atoms: C_33  and  C_38 
ROOT
HETATM    1  O   UNK N   1      34.693  15.614   9.074  0.00  0.00    -0.348 OA
HETATM    2  C   UNK N   1      34.403  12.884   9.865  0.00  0.00     0.190 C 
HETATM    3  C   UNK N   1      35.274  13.923  10.610  0.00  0.00     0.195 C 
HETATM    4  C   UNK N   1      33.816  13.446   8.541  0.00  0.00     0.205 C 
HETATM    5  C   UNK N   1      34.645  15.316  10.440  0.00  0.00     0.180 C 
HETATM    6  C   UNK N   1      33.596  14.949   8.517  0.00  0.00     0.291 C 
ENDROOT
BRANCH   3   7
HETATM    7  O   UNK N   1      35.360  13.528  11.927  0.00  0.00    -0.307 OA
BRANCH   7   8
HETATM    8  C   UNK N   1      36.496  13.115  12.535  0.00  0.00     0.283 C 
HETATM    9  O   UNK N   1      37.446  12.684  11.893  0.00  0.00    -0.260 OA
BRANCH   8  10
HETATM   10  C   UNK N   1      36.503  13.064  13.993  0.00  0.00     0.083 C 
HETATM   11  C   UNK N   1      35.939  12.103  14.725  0.00  0.00     0.017 C 
BRANCH  11  12
HETATM   12  C   UNK N   1      35.751  12.339  16.165  0.00  0.00    -0.033 A 
HETATM   13  C   UNK N   1      35.671  13.657  16.641  0.00  0.00     0.050 A 
HETATM   14  C   UNK N   1      35.412  13.914  17.982  0.00  0.00     0.099 A 
HETATM   15  C   UNK N   1      35.236  12.849  18.871  0.00  0.00     0.098 A 
HETATM   16  C   UNK N   1      35.318  11.529  18.406  0.00  0.00     0.040 A 
HETATM   17  C   UNK N   1      35.563  11.273  17.050  0.00  0.00     0.014 A 
BRANCH  14  18
HETATM   18  O   UNK N   1      35.323  15.185  18.407  0.00  0.00    -0.358 OA
HETATM   19  H   UNK N   1      36.004  15.576  18.920  0.00  0.00     0.217 HD
ENDBRANCH  14  18
BRANCH  15  20
HETATM   20  O   UNK N   1      34.983  13.087  20.168  0.00  0.00    -0.358 OA
HETATM   21  H   UNK N   1      34.410  12.524  20.649  0.00  0.00     0.217 HD
ENDBRANCH  15  20
ENDBRANCH  11  12
ENDBRANCH   8  10
ENDBRANCH   7   8
ENDBRANCH   3   7
BRANCH   2  22
HETATM   22  O   UNK N   1      35.168  11.691   9.679  0.00  0.00    -0.348 OA
BRANCH  22  23
HETATM   23  C   UNK N   1      34.490  10.578  10.226  0.00  0.00     0.292 C 
HETATM   24  O   UNK N   1      34.001   9.715   9.228  0.00  0.00    -0.351 OA
HETATM   25  C   UNK N   1      32.864   9.178   9.851  0.00  0.00     0.152 C 
HETATM   26  C   UNK N   1      33.225   8.170  10.960  0.00  0.00     0.178 C 
HETATM   27  C   UNK N   1      31.782   8.761   8.869  0.00  0.00     0.042 C 
HETATM   28  C   UNK N   1      34.710   8.338  11.337  0.00  0.00     0.183 C 
HETATM   29  C   UNK N   1      35.250   9.787  11.307  0.00  0.00     0.204 C 
BRANCH  26  30
HETATM   30  O   UNK N   1      33.015   6.857  10.531  0.00  0.00    -0.390 OA
HETATM   31  H   UNK N   1      32.187   6.380  10.359  0.00  0.00     0.210 HD
ENDBRANCH  26  30
BRANCH  28  32
HETATM   32  O   UNK N   1      35.016   7.690  12.533  0.00  0.00    -0.390 OA
HETATM   33  H   UNK N   1      34.388   7.226  13.109  0.00  0.00     0.210 HD
ENDBRANCH  28  32
BRANCH  29  34
HETATM   34  O   UNK N   1      36.614   9.735  11.012  0.00  0.00    -0.388 OA
HETATM   35  H   UNK N   1      37.406   9.533  11.535  0.00  0.00     0.210 HD
ENDBRANCH  29  34
ENDBRANCH  22  23
ENDBRANCH   2  22
BRANCH   5  36
HETATM   36  C   UNK N   1      35.340  16.428  11.204  0.00  0.00     0.198 C 
BRANCH  36  37
HETATM   37  O   UNK N   1      36.723  16.294  11.085  0.00  0.00    -0.398 OA
HETATM   38  H   UNK N   1      37.362  15.625  10.789  0.00  0.00     0.209 HD
ENDBRANCH  36  37
ENDBRANCH   5  36
BRANCH   4  39
HETATM   39  O   UNK N   1      32.584  12.833   8.296  0.00  0.00    -0.388 OA
HETATM   40  H   UNK N   1      31.717  12.975   7.887  0.00  0.00     0.210 HD
ENDBRANCH   4  39
BRANCH   6  41
HETATM   41  O   UNK N   1      33.458  15.333   7.181  0.00  0.00    -0.358 OA
BRANCH  41  42
HETATM   42  C   UNK N   1      33.260  16.713   7.202  0.00  0.00     0.175 C 
BRANCH  42  43
HETATM   43  C   UNK N   1      32.024  17.061   6.384  0.00  0.00     0.065 C 
BRANCH  43  44
HETATM   44  C   UNK N   1      30.803  17.357   7.207  0.00  0.00    -0.053 A 
HETATM   45  C   UNK N   1      30.885  17.956   8.474  0.00  0.00     0.046 A 
HETATM   46  C   UNK N   1      29.731  18.214   9.214  0.00  0.00     0.099 A 
HETATM   47  C   UNK N   1      28.480  17.867   8.693  0.00  0.00     0.098 A 
HETATM   48  C   UNK N   1      28.391  17.268   7.433  0.00  0.00     0.040 A 
HETATM   49  C   UNK N   1      29.550  17.016   6.692  0.00  0.00     0.010 A 
BRANCH  46  50
HETATM   50  O   UNK N   1      29.828  18.789  10.424  0.00  0.00    -0.358 OA
HETATM   51  H   UNK N   1      29.462  19.636  10.586  0.00  0.00     0.217 HD
ENDBRANCH  46  50
BRANCH  47  52
HETATM   52  O   UNK N   1      27.363  18.105   9.400  0.00  0.00    -0.358 OA
HETATM   53  H   UNK N   1      26.543  18.224   8.962  0.00  0.00     0.217 HD
ENDBRANCH  47  52
ENDBRANCH  43  44
ENDBRANCH  42  43
ENDBRANCH  41  42
ENDBRANCH   6  41
TORSDOF 20
ENDMDL
MODEL 7
REMARK VINA RESULT:      -8.3      8.532     15.090
REMARK  20 active torsions:
REMARK  status: ('A' for Active; 'I' for Inactive)
REMARK    1  A    between atoms: C_16  and  O_1 
REMARK    2  A    between atoms: C_20  and  O_1 
REMARK    3  A    between atoms: C_17  and  O_4 
REMARK    4  A    between atoms: O_4  and  C_29 
REMARK    5  A    between atoms: C_22  and  O_5 
REMARK    6  A    between atoms: O_5  and  C_28 
REMARK    7  A    between atoms: C_18  and  O_6 
REMARK    8  A    between atoms: C_21  and  O_7 
REMARK    9  A    between atoms: C_23  and  O_8 
REMARK   10  A    between atoms: C_24  and  O_9 
REMARK   11  A    between atoms: O_10  and  C_26 
REMARK   12  A    between atoms: O_12  and  C_36 
REMARK   13  A    between atoms: O_13  and  C_39 
REMARK   14  A    between atoms: O_14  and  C_42 
REMARK   15  A    between atoms: O_15  and  C_44 
REMARK   16  A    between atoms: C_19  and  C_26 
REMARK   17  A    between atoms: C_28  and  C_30 
REMARK   18  A    between atoms: C_29  and  C_31 
REMARK   19  A    between atoms: C_30  and  C_32 
REMARK   20  A    between atoms: C_33  and  C_38 
ROOT
HETATM    1  O   UNK N   1      35.221  14.030  11.464  0.00  0.00    -0.348 OA
HETATM    2  C   UNK N   1      37.062  14.110   9.281  0.00  0.00     0.190 C 
HETATM    3  C   UNK N   1      35.629  14.690   9.239  0.00  0.00     0.195 C 
HETATM    4  C   UNK N   1      37.347  13.336  10.598  0.00  0.00     0.205 C 
HETATM    5  C   UNK N   1      35.240  15.166  10.648  0.00  0.00     0.180 C 
HETATM    6  C   UNK N   1      36.558  13.805  11.808  0.00  0.00     0.291 C 
ENDROOT
BRANCH   3   7
HETATM    7  O   UNK N   1      35.616  15.703   8.306  0.00  0.00    -0.307 OA
BRANCH   7   8
HETATM    8  C   UNK N   1      34.843  15.719   7.195  0.00  0.00     0.283 C 
HETATM    9  O   UNK N   1      35.332  15.648   6.074  0.00  0.00    -0.260 OA
BRANCH   8  10
HETATM   10  C   UNK N   1      33.417  15.970   7.367  0.00  0.00     0.083 C 
HETATM   11  C   UNK N   1      32.777  17.060   6.943  0.00  0.00     0.017 C 
BRANCH  11  12
HETATM   12  C   UNK N   1      31.423  17.320   7.455  0.00  0.00    -0.033 A 
HETATM   13  C   UNK N   1      31.266  17.934   8.708  0.00  0.00     0.050 A 
HETATM   14  C   UNK N   1      30.004  18.269   9.183  0.00  0.00     0.099 A 
HETATM   15  C   UNK N   1      28.874  17.984   8.411  0.00  0.00     0.098 A 
HETATM   16  C   UNK N   1      29.019  17.368   7.160  0.00  0.00     0.040 A 
HETATM   17  C   UNK N   1      30.294  17.046   6.676  0.00  0.00     0.014 A 
BRANCH  14  18
HETATM   18  O   UNK N   1      29.886  18.871  10.378  0.00  0.00    -0.358 OA
HETATM   19  H   UNK N   1      29.674  18.384  11.150  0.00  0.00     0.217 HD
ENDBRANCH  14  18
BRANCH  15  20
HETATM   20  O   UNK N   1      27.651  18.305   8.861  0.00  0.00    -0.358 OA
HETATM   21  H   UNK N   1      27.026  18.705   8.289  0.00  0.00     0.217 HD
ENDBRANCH  15  20
ENDBRANCH  11  12
ENDBRANCH   8  10
ENDBRANCH   7   8
ENDBRANCH   3   7
BRANCH   2  22
HETATM   22  O   UNK N   1      37.275  13.321   8.109  0.00  0.00    -0.348 OA
BRANCH  22  23
HETATM   23  C   UNK N   1      38.592  13.496   7.625  0.00  0.00     0.292 C 
HETATM   24  O   UNK N   1      39.260  12.269   7.461  0.00  0.00    -0.351 OA
HETATM   25  C   UNK N   1      40.594  12.640   7.692  0.00  0.00     0.152 C 
HETATM   26  C   UNK N   1      41.185  13.456   6.526  0.00  0.00     0.178 C 
HETATM   27  C   UNK N   1      41.446  11.508   8.241  0.00  0.00     0.042 C 
HETATM   28  C   UNK N   1      40.040  13.969   5.631  0.00  0.00     0.183 C 
HETATM   29  C   UNK N   1      38.741  14.372   6.368  0.00  0.00     0.204 C 
BRANCH  26  30
HETATM   30  O   UNK N   1      42.046  12.673   5.752  0.00  0.00    -0.390 OA
HETATM   31  H   UNK N   1      41.899  11.810   5.333  0.00  0.00     0.210 HD
ENDBRANCH  26  30
BRANCH  28  32
HETATM   32  O   UNK N   1      40.474  14.962   4.754  0.00  0.00    -0.390 OA
HETATM   33  H   UNK N   1      40.556  15.907   4.955  0.00  0.00     0.210 HD
ENDBRANCH  28  32
BRANCH  29  34
HETATM   34  O   UNK N   1      37.668  14.171   5.497  0.00  0.00    -0.388 OA
HETATM   35  H   UNK N   1      36.710  14.082   5.622  0.00  0.00     0.210 HD
ENDBRANCH  29  34
ENDBRANCH  22  23
ENDBRANCH   2  22
BRANCH   5  36
HETATM   36  C   UNK N   1      33.890  15.853  10.740  0.00  0.00     0.198 C 
BRANCH  36  37
HETATM   37  O   UNK N   1      32.889  14.907  10.961  0.00  0.00    -0.398 OA
HETATM   38  H   UNK N   1      32.741  13.961  10.802  0.00  0.00     0.209 HD
ENDBRANCH  36  37
ENDBRANCH   5  36
BRANCH   4  39
HETATM   39  O   UNK N   1      38.706  13.453  10.906  0.00  0.00    -0.388 OA
HETATM   40  H   UNK N   1      39.462  14.057  10.853  0.00  0.00     0.210 HD
ENDBRANCH   4  39
BRANCH   6  41
HETATM   41  O   UNK N   1      36.620  12.793  12.769  0.00  0.00    -0.358 OA
BRANCH  41  42
HETATM   42  C   UNK N   1      35.848  13.240  13.841  0.00  0.00     0.175 C 
BRANCH  42  43
HETATM   43  C   UNK N   1      35.402  12.050  14.677  0.00  0.00     0.065 C 
BRANCH  43  44
HETATM   44  C   UNK N   1      35.361  12.314  16.155  0.00  0.00    -0.053 A 
HETATM   45  C   UNK N   1      35.337  13.617  16.679  0.00  0.00     0.046 A 
HETATM   46  C   UNK N   1      35.303  13.828  18.057  0.00  0.00     0.099 A 
HETATM   47  C   UNK N   1      35.300  12.732  18.927  0.00  0.00     0.098 A 
HETATM   48  C   UNK N   1      35.326  11.433  18.413  0.00  0.00     0.040 A 
HETATM   49  C   UNK N   1      35.355  11.225  17.030  0.00  0.00     0.010 A 
BRANCH  46  50
HETATM   50  O   UNK N   1      35.278  15.081  18.540  0.00  0.00    -0.358 OA
HETATM   51  H   UNK N   1      34.835  15.766  18.081  0.00  0.00     0.217 HD
ENDBRANCH  46  50
BRANCH  47  52
HETATM   52  O   UNK N   1      35.274  12.924  20.256  0.00  0.00    -0.358 OA
HETATM   53  H   UNK N   1      35.284  13.792  20.609  0.00  0.00     0.217 HD
ENDBRANCH  47  52
ENDBRANCH  43  44
ENDBRANCH  42  43
ENDBRANCH  41  42
ENDBRANCH   6  41
TORSDOF 20
ENDMDL
MODEL 8
REMARK VINA RESULT:      -8.3      4.544     10.677
REMARK  20 active torsions:
REMARK  status: ('A' for Active; 'I' for Inactive)
REMARK    1  A    between atoms: C_16  and  O_1 
REMARK    2  A    between atoms: C_20  and  O_1 
REMARK    3  A    between atoms: C_17  and  O_4 
REMARK    4  A    between atoms: O_4  and  C_29 
REMARK    5  A    between atoms: C_22  and  O_5 
REMARK    6  A    between atoms: O_5  and  C_28 
REMARK    7  A    between atoms: C_18  and  O_6 
REMARK    8  A    between atoms: C_21  and  O_7 
REMARK    9  A    between atoms: C_23  and  O_8 
REMARK   10  A    between atoms: C_24  and  O_9 
REMARK   11  A    between atoms: O_10  and  C_26 
REMARK   12  A    between atoms: O_12  and  C_36 
REMARK   13  A    between atoms: O_13  and  C_39 
REMARK   14  A    between atoms: O_14  and  C_42 
REMARK   15  A    between atoms: O_15  and  C_44 
REMARK   16  A    between atoms: C_19  and  C_26 
REMARK   17  A    between atoms: C_28  and  C_30 
REMARK   18  A    between atoms: C_29  and  C_31 
REMARK   19  A    between atoms: C_30  and  C_32 
REMARK   20  A    between atoms: C_33  and  C_38 
ROOT
HETATM    1  O   UNK N   1      27.401  18.167   5.908  0.00  0.00    -0.348 OA
HETATM    2  C   UNK N   1      29.964  17.116   5.205  0.00  0.00     0.190 C 
HETATM    3  C   UNK N   1      29.540  17.502   6.642  0.00  0.00     0.195 C 
HETATM    4  C   UNK N   1      28.892  17.506   4.149  0.00  0.00     0.205 C 
HETATM    5  C   UNK N   1      28.025  17.282   6.793  0.00  0.00     0.180 C 
HETATM    6  C   UNK N   1      27.462  17.538   4.660  0.00  0.00     0.291 C 
ENDROOT
BRANCH   3   7
HETATM    7  O   UNK N   1      30.284  16.740   7.515  0.00  0.00    -0.307 OA
BRANCH   7   8
HETATM    8  C   UNK N   1      31.136  17.238   8.442  0.00  0.00     0.283 C 
HETATM    9  O   UNK N   1      30.877  18.262   9.064  0.00  0.00    -0.260 OA
BRANCH   8  10
HETATM   10  C   UNK N   1      32.440  16.599   8.575  0.00  0.00     0.083 C 
HETATM   11  C   UNK N   1      32.734  15.642   9.456  0.00  0.00     0.017 C 
BRANCH  11  12
HETATM   12  C   UNK N   1      34.149  15.317   9.689  0.00  0.00    -0.033 A 
HETATM   13  C   UNK N   1      34.680  15.441  10.983  0.00  0.00     0.050 A 
HETATM   14  C   UNK N   1      35.989  15.063  11.254  0.00  0.00     0.099 A 
HETATM   15  C   UNK N   1      36.793  14.562  10.226  0.00  0.00     0.098 A 
HETATM   16  C   UNK N   1      36.274  14.437   8.930  0.00  0.00     0.040 A 
HETATM   17  C   UNK N   1      34.948  14.803   8.663  0.00  0.00     0.014 A 
BRANCH  14  18
HETATM   18  O   UNK N   1      36.465  15.176  12.505  0.00  0.00    -0.358 OA
HETATM   19  H   UNK N   1      35.894  15.141  13.248  0.00  0.00     0.217 HD
ENDBRANCH  14  18
BRANCH  15  20
HETATM   20  O   UNK N   1      38.059  14.192  10.479  0.00  0.00    -0.358 OA
HETATM   21  H   UNK N   1      38.682  14.820  10.787  0.00  0.00     0.217 HD
ENDBRANCH  15  20
ENDBRANCH  11  12
ENDBRANCH   8  10
ENDBRANCH   7   8
ENDBRANCH   3   7
BRANCH   2  22
HETATM   22  O   UNK N   1      31.248  17.681   4.936  0.00  0.00    -0.348 OA
BRANCH  22  23
HETATM   23  C   UNK N   1      32.182  16.665   4.628  0.00  0.00     0.292 C 
HETATM   24  O   UNK N   1      31.666  15.381   4.881  0.00  0.00    -0.351 OA
HETATM   25  C   UNK N   1      32.830  14.668   5.209  0.00  0.00     0.152 C 
HETATM   26  C   UNK N   1      33.715  14.393   3.977  0.00  0.00     0.178 C 
HETATM   27  C   UNK N   1      32.575  13.500   6.147  0.00  0.00     0.042 C 
HETATM   28  C   UNK N   1      33.277  15.312   2.820  0.00  0.00     0.183 C 
HETATM   29  C   UNK N   1      32.819  16.732   3.227  0.00  0.00     0.204 C 
BRANCH  26  30
HETATM   30  O   UNK N   1      33.599  13.063   3.565  0.00  0.00    -0.390 OA
HETATM   31  H   UNK N   1      33.072  12.674   2.849  0.00  0.00     0.210 HD
ENDBRANCH  26  30
BRANCH  28  32
HETATM   32  O   UNK N   1      34.224  15.341   1.797  0.00  0.00    -0.390 OA
HETATM   33  H   UNK N   1      35.091  15.774   1.832  0.00  0.00     0.210 HD
ENDBRANCH  28  32
BRANCH  29  34
HETATM   34  O   UNK N   1      31.889  17.175   2.284  0.00  0.00    -0.388 OA
HETATM   35  H   UNK N   1      30.981  16.915   2.065  0.00  0.00     0.210 HD
ENDBRANCH  29  34
ENDBRANCH  22  23
ENDBRANCH   2  22
BRANCH   5  36
HETATM   36  C   UNK N   1      27.481  17.525   8.189  0.00  0.00     0.198 C 
BRANCH  36  37
HETATM   37  O   UNK N   1      27.939  18.752   8.670  0.00  0.00    -0.398 OA
HETATM   38  H   UNK N   1      28.773  19.244   8.715  0.00  0.00     0.209 HD
ENDBRANCH  36  37
ENDBRANCH   5  36
BRANCH   4  39
HETATM   39  O   UNK N   1      28.945  16.592   3.093  0.00  0.00    -0.388 OA
HETATM   40  H   UNK N   1      28.503  15.813   2.722  0.00  0.00     0.210 HD
ENDBRANCH   4  39
BRANCH   6  41
HETATM   41  O   UNK N   1      26.704  18.269   3.743  0.00  0.00    -0.358 OA
BRANCH  41  42
HETATM   42  C   UNK N   1      25.424  18.355   4.290  0.00  0.00     0.175 C 
BRANCH  42  43
HETATM   43  C   UNK N   1      24.817  19.709   3.953  0.00  0.00     0.065 C 
BRANCH  43  44
HETATM   44  C   UNK N   1      23.380  19.651   3.521  0.00  0.00    -0.053 A 
HETATM   45  C   UNK N   1      22.783  20.681   2.777  0.00  0.00     0.046 A 
HETATM   46  C   UNK N   1      21.445  20.598   2.396  0.00  0.00     0.099 A 
HETATM   47  C   UNK N   1      20.686  19.481   2.762  0.00  0.00     0.098 A 
HETATM   48  C   UNK N   1      21.273  18.452   3.504  0.00  0.00     0.040 A 
HETATM   49  C   UNK N   1      22.617  18.537   3.881  0.00  0.00     0.010 A 
BRANCH  46  50
HETATM   50  O   UNK N   1      20.891  21.592   1.682  0.00  0.00    -0.358 OA
HETATM   51  H   UNK N   1      21.153  22.482   1.810  0.00  0.00     0.217 HD
ENDBRANCH  46  50
BRANCH  47  52
HETATM   52  O   UNK N   1      19.394  19.394   2.405  0.00  0.00    -0.358 OA
HETATM   53  H   UNK N   1      18.971  18.559   2.361  0.00  0.00     0.217 HD
ENDBRANCH  47  52
ENDBRANCH  43  44
ENDBRANCH  42  43
ENDBRANCH  41  42
ENDBRANCH   6  41
TORSDOF 20
ENDMDL
MODEL 9
REMARK VINA RESULT:      -8.1      7.728     13.138
REMARK  20 active torsions:
REMARK  status: ('A' for Active; 'I' for Inactive)
REMARK    1  A    between atoms: C_16  and  O_1 
REMARK    2  A    between atoms: C_20  and  O_1 
REMARK    3  A    between atoms: C_17  and  O_4 
REMARK    4  A    between atoms: O_4  and  C_29 
REMARK    5  A    between atoms: C_22  and  O_5 
REMARK    6  A    between atoms: O_5  and  C_28 
REMARK    7  A    between atoms: C_18  and  O_6 
REMARK    8  A    between atoms: C_21  and  O_7 
REMARK    9  A    between atoms: C_23  and  O_8 
REMARK   10  A    between atoms: C_24  and  O_9 
REMARK   11  A    between atoms: O_10  and  C_26 
REMARK   12  A    between atoms: O_12  and  C_36 
REMARK   13  A    between atoms: O_13  and  C_39 
REMARK   14  A    between atoms: O_14  and  C_42 
REMARK   15  A    between atoms: O_15  and  C_44 
REMARK   16  A    between atoms: C_19  and  C_26 
REMARK   17  A    between atoms: C_28  and  C_30 
REMARK   18  A    between atoms: C_29  and  C_31 
REMARK   19  A    between atoms: C_30  and  C_32 
REMARK   20  A    between atoms: C_33  and  C_38 
ROOT
HETATM    1  O   UNK N   1      34.962  15.717   8.937  0.00  0.00    -0.348 OA
HETATM    2  C   UNK N   1      34.040  13.141   9.760  0.00  0.00     0.190 C 
HETATM    3  C   UNK N   1      35.091  13.980  10.524  0.00  0.00     0.195 C 
HETATM    4  C   UNK N   1      33.645  13.785   8.403  0.00  0.00     0.205 C 
HETATM    5  C   UNK N   1      34.796  15.473  10.305  0.00  0.00     0.180 C 
HETATM    6  C   UNK N   1      33.766  15.298   8.345  0.00  0.00     0.291 C 
ENDROOT
BRANCH   3   7
HETATM    7  O   UNK N   1      35.036  13.609  11.850  0.00  0.00    -0.307 OA
BRANCH   7   8
HETATM    8  C   UNK N   1      36.068  13.075  12.545  0.00  0.00     0.283 C 
HETATM    9  O   UNK N   1      36.934  12.408  11.993  0.00  0.00    -0.260 OA
BRANCH   8  10
HETATM   10  C   UNK N   1      36.039  13.196  13.999  0.00  0.00     0.083 C 
HETATM   11  C   UNK N   1      36.013  12.170  14.849  0.00  0.00     0.017 C 
BRANCH  11  12
HETATM   12  C   UNK N   1      35.672  12.435  16.255  0.00  0.00    -0.033 A 
HETATM   13  C   UNK N   1      35.539  11.358  17.146  0.00  0.00     0.050 A 
HETATM   14  C   UNK N   1      35.299  11.577  18.497  0.00  0.00     0.099 A 
HETATM   15  C   UNK N   1      35.179  12.885  18.976  0.00  0.00     0.098 A 
HETATM   16  C   UNK N   1      35.307  13.968  18.094  0.00  0.00     0.040 A 
HETATM   17  C   UNK N   1      35.565  13.744  16.735  0.00  0.00     0.014 A 
BRANCH  14  18
HETATM   18  O   UNK N   1      35.194  10.528  19.329  0.00  0.00    -0.358 OA
HETATM   19  H   UNK N   1      34.464  10.439  19.910  0.00  0.00     0.217 HD
ENDBRANCH  14  18
BRANCH  15  20
HETATM   20  O   UNK N   1      34.949  13.108  20.280  0.00  0.00    -0.358 OA
HETATM   21  H   UNK N   1      34.880  12.389  20.877  0.00  0.00     0.217 HD
ENDBRANCH  15  20
ENDBRANCH  11  12
ENDBRANCH   8  10
ENDBRANCH   7   8
ENDBRANCH   3   7
BRANCH   2  22
HETATM   22  O   UNK N   1      34.526  11.804   9.627  0.00  0.00    -0.348 OA
BRANCH  22  23
HETATM   23  C   UNK N   1      33.613  11.016   8.888  0.00  0.00     0.292 C 
HETATM   24  O   UNK N   1      34.269  10.116   8.029  0.00  0.00    -0.351 OA
HETATM   25  C   UNK N   1      33.344  10.000   6.980  0.00  0.00     0.152 C 
HETATM   26  C   UNK N   1      32.104   9.177   7.379  0.00  0.00     0.178 C 
HETATM   27  C   UNK N   1      33.989   9.669   5.644  0.00  0.00     0.042 C 
HETATM   28  C   UNK N   1      32.046   9.056   8.915  0.00  0.00     0.183 C 
HETATM   29  C   UNK N   1      32.522  10.297   9.704  0.00  0.00     0.204 C 
BRANCH  26  30
HETATM   30  O   UNK N   1      32.156   7.894   6.828  0.00  0.00    -0.390 OA
HETATM   31  H   UNK N   1      32.609   7.573   6.032  0.00  0.00     0.210 HD
ENDBRANCH  26  30
BRANCH  28  32
HETATM   32  O   UNK N   1      30.801   8.604   9.351  0.00  0.00    -0.390 OA
HETATM   33  H   UNK N   1      30.308   8.936  10.118  0.00  0.00     0.210 HD
ENDBRANCH  28  32
BRANCH  29  34
HETATM   34  O   UNK N   1      33.031   9.863  10.930  0.00  0.00    -0.388 OA
HETATM   35  H   UNK N   1      32.624   9.626  11.779  0.00  0.00     0.210 HD
ENDBRANCH  29  34
ENDBRANCH  22  23
ENDBRANCH   2  22
BRANCH   5  36
HETATM   36  C   UNK N   1      35.692  16.421  11.080  0.00  0.00     0.198 C 
BRANCH  36  37
HETATM   37  O   UNK N   1      37.025  16.037  10.940  0.00  0.00    -0.398 OA
HETATM   38  H   UNK N   1      37.904  16.446  10.988  0.00  0.00     0.209 HD
ENDBRANCH  36  37
ENDBRANCH   5  36
BRANCH   4  39
HETATM   39  O   UNK N   1      32.317  13.455   8.115  0.00  0.00    -0.388 OA
HETATM   40  H   UNK N   1      31.639  12.779   8.264  0.00  0.00     0.210 HD
ENDBRANCH   4  39
BRANCH   6  41
HETATM   41  O   UNK N   1      33.769  15.669   6.998  0.00  0.00    -0.358 OA
BRANCH  41  42
HETATM   42  C   UNK N   1      33.162  16.923   6.948  0.00  0.00     0.175 C 
BRANCH  42  43
HETATM   43  C   UNK N   1      31.835  16.816   6.211  0.00  0.00     0.065 C 
BRANCH  43  44
HETATM   44  C   UNK N   1      30.638  17.200   7.034  0.00  0.00    -0.053 A 
HETATM   45  C   UNK N   1      29.354  17.311   6.476  0.00  0.00     0.046 A 
HETATM   46  C   UNK N   1      28.265  17.674   7.268  0.00  0.00     0.099 A 
HETATM   47  C   UNK N   1      28.453  17.936   8.630  0.00  0.00     0.098 A 
HETATM   48  C   UNK N   1      29.728  17.829   9.191  0.00  0.00     0.040 A 
HETATM   49  C   UNK N   1      30.817  17.460   8.395  0.00  0.00     0.010 A 
BRANCH  46  50
HETATM   50  O   UNK N   1      27.044  17.774   6.718  0.00  0.00    -0.358 OA
HETATM   51  H   UNK N   1      26.887  17.493   5.838  0.00  0.00     0.217 HD
ENDBRANCH  46  50
BRANCH  47  52
HETATM   52  O   UNK N   1      27.412  18.292   9.399  0.00  0.00    -0.358 OA
HETATM   53  H   UNK N   1      27.429  18.130  10.322  0.00  0.00     0.217 HD
ENDBRANCH  47  52
ENDBRANCH  43  44
ENDBRANCH  42  43
ENDBRANCH  41  42
ENDBRANCH   6  41
TORSDOF 20
ENDMDL
