REMARK  20 active torsions:
REMARK  status: ('A' for Active; 'I' for Inactive)
REMARK    1  A    between atoms: C_16  and  O_1 
REMARK    2  A    between atoms: C_20  and  O_1 
REMARK    3  A    between atoms: C_17  and  O_4 
REMARK    4  A    between atoms: O_4  and  C_29 
REMARK    5  A    between atoms: C_22  and  O_5 
REMARK    6  A    between atoms: O_5  and  C_28 
REMARK    7  A    between atoms: C_18  and  O_6 
REMARK    8  A    between atoms: C_21  and  O_7 
REMARK    9  A    between atoms: C_23  and  O_8 
REMARK   10  A    between atoms: C_24  and  O_9 
REMARK   11  A    between atoms: O_10  and  C_26 
REMARK   12  A    between atoms: O_12  and  C_36 
REMARK   13  A    between atoms: O_13  and  C_39 
REMARK   14  A    between atoms: O_14  and  C_42 
REMARK   15  A    between atoms: O_15  and  C_44 
REMARK   16  A    between atoms: C_19  and  C_26 
REMARK   17  A    between atoms: C_28  and  C_30 
REMARK   18  A    between atoms: C_29  and  C_31 
REMARK   19  A    between atoms: C_30  and  C_32 
REMARK   20  A    between atoms: C_33  and  C_38 
ROOT
HETATM    1  O   UNK N   1       9.738  -1.068  -0.681  0.00  0.00    -0.348 OA
HETATM    2  C   UNK N   1       8.877   1.471   0.308  0.00  0.00     0.190 C 
HETATM    3  C   UNK N   1       7.936   0.401  -0.294  0.00  0.00     0.195 C 
HETATM    4  C   UNK N   1      10.375   1.079   0.179  0.00  0.00     0.205 C 
HETATM    5  C   UNK N   1       8.515  -0.994  -0.006  0.00  0.00     0.180 C 
HETATM    6  C   UNK N   1      10.653  -0.414   0.151  0.00  0.00     0.291 C 
ENDROOT
BRANCH   3   7
HETATM    7  O   UNK N   1       6.686   0.589   0.254  0.00  0.00    -0.307 OA
BRANCH   7   8
HETATM    8  C   UNK N   1       5.520   0.283  -0.361  0.00  0.00     0.283 C 
HETATM    9  O   UNK N   1       5.479  -0.502  -1.301  0.00  0.00    -0.260 OA
BRANCH   8  10
HETATM   10  C   UNK N   1       4.330   1.027   0.036  0.00  0.00     0.083 C 
HETATM   11  C   UNK N   1       3.091   0.762  -0.379  0.00  0.00     0.017 C 
BRANCH  11  12
HETATM   12  C   UNK N   1       2.046   1.772  -0.152  0.00  0.00    -0.033 A 
HETATM   13  C   UNK N   1       2.418   3.094   0.139  0.00  0.00     0.050 A 
HETATM   14  C   UNK N   1       1.458   4.089   0.277  0.00  0.00     0.099 A 
HETATM   15  C   UNK N   1       0.104   3.771   0.134  0.00  0.00     0.098 A 
HETATM   16  C   UNK N   1      -0.278   2.453  -0.153  0.00  0.00     0.040 A 
HETATM   17  C   UNK N   1       0.693   1.455  -0.308  0.00  0.00     0.014 A 
BRANCH  14  18
HETATM   18  O   UNK N   1       1.844   5.349   0.538  0.00  0.00    -0.358 OA
HETATM   19  H   UNK N   1       2.740   5.556   0.719  0.00  0.00     0.217 HD
ENDBRANCH  14  18
BRANCH  15  20
HETATM   20  O   UNK N   1      -0.831   4.726   0.264  0.00  0.00    -0.358 OA
HETATM   21  H   UNK N   1      -0.580   5.624   0.355  0.00  0.00     0.217 HD
ENDBRANCH  15  20
ENDBRANCH  11  12
ENDBRANCH   8  10
ENDBRANCH   7   8
ENDBRANCH   3   7
BRANCH   2  22
HETATM   22  O   UNK N   1       8.575   2.736  -0.283  0.00  0.00    -0.348 OA
BRANCH  22  23
HETATM   23  C   UNK N   1       9.572   3.685   0.040  0.00  0.00     0.292 C 
HETATM   24  O   UNK N   1      10.636   3.665  -0.880  0.00  0.00    -0.351 OA
HETATM   25  C   UNK N   1      11.715   4.059  -0.073  0.00  0.00     0.152 C 
HETATM   26  C   UNK N   1      11.663   5.557   0.285  0.00  0.00     0.178 C 
HETATM   27  C   UNK N   1      13.051   3.511  -0.547  0.00  0.00     0.042 C 
HETATM   28  C   UNK N   1      10.250   6.101  -0.005  0.00  0.00     0.183 C 
HETATM   29  C   UNK N   1       9.084   5.126   0.280  0.00  0.00     0.204 C 
BRANCH  26  30
HETATM   30  O   UNK N   1      12.589   6.284  -0.468  0.00  0.00    -0.390 OA
HETATM   31  H   UNK N   1      13.347   5.979  -0.991  0.00  0.00     0.210 HD
ENDBRANCH  26  30
BRANCH  28  32
HETATM   32  O   UNK N   1      10.046   7.348   0.584  0.00  0.00    -0.390 OA
HETATM   33  H   UNK N   1      10.726   7.905   0.995  0.00  0.00     0.210 HD
ENDBRANCH  28  32
BRANCH  29  34
HETATM   34  O   UNK N   1       8.034   5.441  -0.585  0.00  0.00    -0.388 OA
HETATM   35  H   UNK N   1       7.859   6.183  -1.185  0.00  0.00     0.210 HD
ENDBRANCH  29  34
ENDBRANCH  22  23
ENDBRANCH   2  22
BRANCH   5  36
HETATM   36  C   UNK N   1       7.642  -2.152  -0.454  0.00  0.00     0.198 C 
BRANCH  36  37
HETATM   37  O   UNK N   1       6.686  -2.432   0.522  0.00  0.00    -0.398 OA
HETATM   38  H   UNK N   1       6.185  -1.953   1.201  0.00  0.00     0.209 HD
ENDBRANCH  36  37
ENDBRANCH   5  36
BRANCH   4  39
HETATM   39  O   UNK N   1      11.079   1.621   1.258  0.00  0.00    -0.388 OA
HETATM   40  H   UNK N   1      11.649   1.386   2.006  0.00  0.00     0.210 HD
ENDBRANCH   4  39
BRANCH   6  41
HETATM   41  O   UNK N   1      11.942  -0.593  -0.358  0.00  0.00    -0.358 OA
BRANCH  41  42
HETATM   42  C   UNK N   1      12.721  -1.011   0.720  0.00  0.00     0.175 C 
BRANCH  42  43
HETATM   43  C   UNK N   1      13.481  -2.273   0.338  0.00  0.00     0.065 C 
BRANCH  43  44
HETATM   44  C   UNK N   1      12.620  -3.497   0.208  0.00  0.00    -0.053 A 
HETATM   45  C   UNK N   1      11.237  -3.464   0.448  0.00  0.00     0.046 A 
HETATM   46  C   UNK N   1      10.467  -4.620   0.323  0.00  0.00     0.099 A 
HETATM   47  C   UNK N   1      11.078  -5.826  -0.039  0.00  0.00     0.098 A 
HETATM   48  C   UNK N   1      12.455  -5.866  -0.277  0.00  0.00     0.040 A 
HETATM   49  C   UNK N   1      13.223  -4.704  -0.155  0.00  0.00     0.010 A 
BRANCH  46  50
HETATM   50  O   UNK N   1       9.145  -4.570   0.554  0.00  0.00    -0.358 OA
HETATM   51  H   UNK N   1       8.714  -3.754   0.715  0.00  0.00     0.217 HD
ENDBRANCH  46  50
BRANCH  47  52
HETATM   52  O   UNK N   1      10.347  -6.946  -0.156  0.00  0.00    -0.358 OA
HETATM   53  H   UNK N   1       9.415  -6.896  -0.238  0.00  0.00     0.217 HD
ENDBRANCH  47  52
ENDBRANCH  43  44
ENDBRANCH  42  43
ENDBRANCH  41  42
ENDBRANCH   6  41
TORSDOF 20
