MODEL 1
REMARK VINA RESULT:      -8.4      0.000      0.000
REMARK  14 active torsions:
REMARK  status: ('A' for Active; 'I' for Inactive)
REMARK    1  A    between atoms: O_1  and  C_10 
REMARK    2  A    between atoms: O_1  and  C_23 
REMARK    3  A    between atoms: O_3  and  C_34 
REMARK    4  A    between atoms: N_7  and  C_11 
REMARK    5  A    between atoms: N_7  and  C_12 
REMARK    6  A    between atoms: N_9  and  C_36 
REMARK    7  A    between atoms: C_10  and  C_11 
REMARK    8  A    between atoms: C_12  and  C_13 
REMARK    9  A    between atoms: C_13  and  C_14 
REMARK   10  A    between atoms: C_14  and  C_20 
REMARK   11  A    between atoms: C_14  and  C_21 
REMARK   12  A    between atoms: C_15  and  C_25 
REMARK   13  A    between atoms: C_18  and  C_23 
REMARK   14  A    between atoms: C_22  and  C_34 
ROOT
HETATM    1  O   UNK N   1      22.437  14.972   2.957  0.00  0.00    -0.259 OA
HETATM    2  C   UNK N   1      23.247  14.909   3.870  0.00  0.00     0.293 C 
ENDROOT
BRANCH   2   3
HETATM    3  O   UNK N   1      24.561  14.733   3.561  0.00  0.00    -0.305 OA
BRANCH   3   4
HETATM    4  C   UNK N   1      25.578  15.676   3.729  0.00  0.00     0.090 C 
HETATM    5  C   UNK N   1      26.411  15.747   2.466  0.00  0.00     0.048 C 
HETATM    6  C   UNK N   1      25.111  17.090   4.052  0.00  0.00     0.048 C 
BRANCH   4   7
HETATM    7  C   UNK N   1      26.478  15.208   4.870  0.00  0.00     0.309 C 
BRANCH   7   8
HETATM    8  N   UNK N   1      27.634  14.458   4.364  0.00  0.00     0.087 N 
HETATM    9  C   UNK N   1      27.494  13.067   4.753  0.00  0.00     0.310 C 
BRANCH   8  10
HETATM   10  C   UNK N   1      28.867  14.940   4.973  0.00  0.00     0.273 C 
BRANCH  10  11
HETATM   11  C   UNK N   1      28.637  16.183   5.827  0.00  0.00     0.044 C 
BRANCH  11  12
HETATM   12  C   UNK N   1      29.278  17.411   5.182  0.00  0.00     0.053 C 
BRANCH  12  13
HETATM   13  C   UNK N   1      28.430  18.653   5.354  0.00  0.00    -0.050 A 
HETATM   14  C   UNK N   1      27.887  19.257   4.208  0.00  0.00     0.008 A 
HETATM   15  C   UNK N   1      27.016  20.342   4.318  0.00  0.00     0.001 A 
HETATM   16  C   UNK N   1      26.677  20.834   5.579  0.00  0.00     0.000 A 
HETATM   17  C   UNK N   1      27.213  20.243   6.728  0.00  0.00     0.001 A 
HETATM   18  C   UNK N   1      28.081  19.150   6.617  0.00  0.00     0.008 A 
ENDBRANCH  12  13
BRANCH  12  19
HETATM   19  C   UNK N   1      30.767  17.426   5.414  0.00  0.00    -0.050 A 
HETATM   20  C   UNK N   1      31.336  17.223   6.679  0.00  0.00     0.008 A 
HETATM   21  C   UNK N   1      32.727  17.175   6.827  0.00  0.00     0.001 A 
HETATM   22  C   UNK N   1      33.557  17.327   5.711  0.00  0.00     0.000 A 
HETATM   23  C   UNK N   1      32.998  17.533   4.448  0.00  0.00     0.001 A 
HETATM   24  C   UNK N   1      31.609  17.575   4.302  0.00  0.00     0.008 A 
ENDBRANCH  12  19
ENDBRANCH  11  12
ENDBRANCH  10  11
ENDBRANCH   8  10
ENDBRANCH   7   8
ENDBRANCH   4   7
ENDBRANCH   3   4
ENDBRANCH   2   3
BRANCH   2  25
HETATM   25  C   UNK N   1      22.746  14.945   5.271  0.00  0.00     0.052 C 
HETATM   26  C   UNK N   1      21.910  16.117   5.778  0.00  0.00     0.101 C 
HETATM   27  C   UNK N   1      21.153  15.865   7.093  0.00  0.00     0.052 C 
HETATM   28  C   UNK N   1      21.524  14.815   7.870  0.00  0.00     0.018 C 
HETATM   29  N   UNK N   1      22.522  13.912   7.433  0.00  0.00    -0.362 N 
HETATM   30  C   UNK N   1      20.919  14.569   9.219  0.00  0.00     0.069 C 
HETATM   31  C   UNK N   1      23.025  13.918   6.109  0.00  0.00     0.018 C 
HETATM   32  H   UNK N   1      22.882  13.255   8.073  0.00  0.00     0.165 HD
HETATM   33  C   UNK N   1      23.883  12.767   5.686  0.00  0.00     0.069 C 
BRANCH  26  34
HETATM   34  C   UNK N   1      21.353  17.108   4.765  0.00  0.00    -0.042 A 
HETATM   35  C   UNK N   1      22.058  18.275   4.440  0.00  0.00     0.044 A 
HETATM   36  C   UNK N   1      21.591  19.152   3.451  0.00  0.00     0.103 A 
HETATM   37  C   UNK N   1      20.371  18.882   2.816  0.00  0.00     0.036 A 
HETATM   38  C   UNK N   1      19.646  17.737   3.151  0.00  0.00     0.003 A 
HETATM   39  C   UNK N   1      20.149  16.843   4.102  0.00  0.00     0.008 A 
BRANCH  36  40
HETATM   40  N   UNK N   1      22.374  20.272   3.056  0.00  0.00    -0.116 N 
HETATM   41  O   UNK N   1      23.683  20.245   3.191  0.00  0.00    -0.532 OA
HETATM   42  O   UNK N   1      21.844  21.274   2.682  0.00  0.00    -0.532 OA
ENDBRANCH  36  40
ENDBRANCH  26  34
BRANCH  27  43
HETATM   43  C   UNK N   1      20.028  16.762   7.518  0.00  0.00     0.291 C 
HETATM   44  O   UNK N   1      18.874  16.407   7.342  0.00  0.00    -0.260 OA
BRANCH  43  45
HETATM   45  O   UNK N   1      20.255  17.923   8.192  0.00  0.00    -0.323 OA
HETATM   46  C   UNK N   1      19.496  18.330   9.269  0.00  0.00     0.213 C 
ENDBRANCH  43  45
ENDBRANCH  27  43
ENDBRANCH   2  25
TORSDOF 14
ENDMDL
MODEL 2
REMARK VINA RESULT:      -8.1      1.258      3.252
REMARK  14 active torsions:
REMARK  status: ('A' for Active; 'I' for Inactive)
REMARK    1  A    between atoms: O_1  and  C_10 
REMARK    2  A    between atoms: O_1  and  C_23 
REMARK    3  A    between atoms: O_3  and  C_34 
REMARK    4  A    between atoms: N_7  and  C_11 
REMARK    5  A    between atoms: N_7  and  C_12 
REMARK    6  A    between atoms: N_9  and  C_36 
REMARK    7  A    between atoms: C_10  and  C_11 
REMARK    8  A    between atoms: C_12  and  C_13 
REMARK    9  A    between atoms: C_13  and  C_14 
REMARK   10  A    between atoms: C_14  and  C_20 
REMARK   11  A    between atoms: C_14  and  C_21 
REMARK   12  A    between atoms: C_15  and  C_25 
REMARK   13  A    between atoms: C_18  and  C_23 
REMARK   14  A    between atoms: C_22  and  C_34 
ROOT
HETATM    1  O   UNK N   1      25.266  16.347   4.475  0.00  0.00    -0.259 OA
HETATM    2  C   UNK N   1      24.503  15.397   4.561  0.00  0.00     0.293 C 
ENDROOT
BRANCH   2   3
HETATM    3  O   UNK N   1      24.365  14.575   3.485  0.00  0.00    -0.305 OA
BRANCH   3   4
HETATM    4  C   UNK N   1      25.349  14.296   2.533  0.00  0.00     0.090 C 
HETATM    5  C   UNK N   1      24.938  13.082   1.726  0.00  0.00     0.048 C 
HETATM    6  C   UNK N   1      25.646  15.422   1.551  0.00  0.00     0.048 C 
BRANCH   4   7
HETATM    7  C   UNK N   1      26.644  13.963   3.270  0.00  0.00     0.309 C 
BRANCH   7   8
HETATM    8  N   UNK N   1      27.777  14.722   2.728  0.00  0.00     0.087 N 
HETATM    9  C   UNK N   1      28.618  13.822   1.961  0.00  0.00     0.310 C 
BRANCH   8  10
HETATM   10  C   UNK N   1      28.604  15.252   3.805  0.00  0.00     0.273 C 
BRANCH  10  11
HETATM   11  C   UNK N   1      28.864  16.746   3.646  0.00  0.00     0.044 C 
BRANCH  11  12
HETATM   12  C   UNK N   1      29.160  17.392   4.999  0.00  0.00     0.053 C 
BRANCH  12  13
HETATM   13  C   UNK N   1      30.631  17.328   5.351  0.00  0.00    -0.050 A 
HETATM   14  C   UNK N   1      31.572  17.579   4.339  0.00  0.00     0.008 A 
HETATM   15  C   UNK N   1      32.936  17.633   4.631  0.00  0.00     0.001 A 
HETATM   16  C   UNK N   1      33.373  17.437   5.941  0.00  0.00     0.000 A 
HETATM   17  C   UNK N   1      32.446  17.183   6.957  0.00  0.00     0.001 A 
HETATM   18  C   UNK N   1      31.078  17.137   6.665  0.00  0.00     0.008 A 
ENDBRANCH  12  13
BRANCH  12  19
HETATM   19  C   UNK N   1      28.352  18.651   5.183  0.00  0.00    -0.050 A 
HETATM   20  C   UNK N   1      27.702  19.294   4.120  0.00  0.00     0.008 A 
HETATM   21  C   UNK N   1      26.906  20.419   4.358  0.00  0.00     0.001 A 
HETATM   22  C   UNK N   1      26.751  20.908   5.660  0.00  0.00     0.000 A 
HETATM   23  C   UNK N   1      27.399  20.275   6.723  0.00  0.00     0.001 A 
HETATM   24  C   UNK N   1      28.189  19.149   6.485  0.00  0.00     0.008 A 
ENDBRANCH  12  19
ENDBRANCH  11  12
ENDBRANCH  10  11
ENDBRANCH   8  10
ENDBRANCH   7   8
ENDBRANCH   4   7
ENDBRANCH   3   4
ENDBRANCH   2   3
BRANCH   2  25
HETATM   25  C   UNK N   1      23.703  15.236   5.806  0.00  0.00     0.052 C 
HETATM   26  C   UNK N   1      22.387  15.985   5.997  0.00  0.00     0.101 C 
HETATM   27  C   UNK N   1      21.488  15.460   7.130  0.00  0.00     0.052 C 
HETATM   28  C   UNK N   1      22.031  14.643   8.068  0.00  0.00     0.018 C 
HETATM   29  N   UNK N   1      23.373  14.205   7.955  0.00  0.00    -0.362 N 
HETATM   30  C   UNK N   1      21.258  14.182   9.267  0.00  0.00     0.069 C 
HETATM   31  C   UNK N   1      24.140  14.404   6.782  0.00  0.00     0.018 C 
HETATM   32  H   UNK N   1      23.788  13.745   8.720  0.00  0.00     0.165 HD
HETATM   33  C   UNK N   1      25.447  13.684   6.675  0.00  0.00     0.069 C 
BRANCH  26  34
HETATM   34  C   UNK N   1      21.758  16.674   4.794  0.00  0.00    -0.042 A 
HETATM   35  C   UNK N   1      21.708  18.072   4.711  0.00  0.00     0.044 A 
HETATM   36  C   UNK N   1      21.203  18.713   3.572  0.00  0.00     0.103 A 
HETATM   37  C   UNK N   1      20.691  17.940   2.521  0.00  0.00     0.036 A 
HETATM   38  C   UNK N   1      20.710  16.547   2.603  0.00  0.00     0.003 A 
HETATM   39  C   UNK N   1      21.264  15.920   3.722  0.00  0.00     0.008 A 
BRANCH  36  40
HETATM   40  N   UNK N   1      21.262  20.130   3.459  0.00  0.00    -0.116 N 
HETATM   41  O   UNK N   1      20.236  20.868   3.828  0.00  0.00    -0.532 OA
HETATM   42  O   UNK N   1      22.206  20.654   2.947  0.00  0.00    -0.532 OA
ENDBRANCH  36  40
ENDBRANCH  26  34
BRANCH  27  43
HETATM   43  C   UNK N   1      20.039  15.842   7.204  0.00  0.00     0.291 C 
HETATM   44  O   UNK N   1      19.205  15.157   6.636  0.00  0.00    -0.260 OA
BRANCH  43  45
HETATM   45  O   UNK N   1      19.614  16.879   7.976  0.00  0.00    -0.323 OA
HETATM   46  C   UNK N   1      18.639  16.748   8.944  0.00  0.00     0.213 C 
ENDBRANCH  43  45
ENDBRANCH  27  43
ENDBRANCH   2  25
TORSDOF 14
ENDMDL
MODEL 3
REMARK VINA RESULT:      -8.0      1.259      3.211
REMARK  14 active torsions:
REMARK  status: ('A' for Active; 'I' for Inactive)
REMARK    1  A    between atoms: O_1  and  C_10 
REMARK    2  A    between atoms: O_1  and  C_23 
REMARK    3  A    between atoms: O_3  and  C_34 
REMARK    4  A    between atoms: N_7  and  C_11 
REMARK    5  A    between atoms: N_7  and  C_12 
REMARK    6  A    between atoms: N_9  and  C_36 
REMARK    7  A    between atoms: C_10  and  C_11 
REMARK    8  A    between atoms: C_12  and  C_13 
REMARK    9  A    between atoms: C_13  and  C_14 
REMARK   10  A    between atoms: C_14  and  C_20 
REMARK   11  A    between atoms: C_14  and  C_21 
REMARK   12  A    between atoms: C_15  and  C_25 
REMARK   13  A    between atoms: C_18  and  C_23 
REMARK   14  A    between atoms: C_22  and  C_34 
ROOT
HETATM    1  O   UNK N   1      22.422  12.863   4.026  0.00  0.00    -0.259 OA
HETATM    2  C   UNK N   1      23.180  13.250   4.903  0.00  0.00     0.293 C 
ENDROOT
BRANCH   2   3
HETATM    3  O   UNK N   1      24.495  13.419   4.596  0.00  0.00    -0.305 OA
BRANCH   3   4
HETATM    4  C   UNK N   1      25.012  14.320   3.662  0.00  0.00     0.090 C 
HETATM    5  C   UNK N   1      25.961  13.594   2.733  0.00  0.00     0.048 C 
HETATM    6  C   UNK N   1      23.977  15.031   2.799  0.00  0.00     0.048 C 
BRANCH   4   7
HETATM    7  C   UNK N   1      25.804  15.386   4.417  0.00  0.00     0.309 C 
BRANCH   7   8
HETATM    8  N   UNK N   1      26.499  14.814   5.576  0.00  0.00     0.087 N 
HETATM    9  C   UNK N   1      26.077  15.524   6.769  0.00  0.00     0.310 C 
BRANCH   8  10
HETATM   10  C   UNK N   1      27.938  15.008   5.461  0.00  0.00     0.273 C 
BRANCH  10  11
HETATM   11  C   UNK N   1      28.286  16.297   4.724  0.00  0.00     0.044 C 
BRANCH  11  12
HETATM   12  C   UNK N   1      28.984  17.285   5.659  0.00  0.00     0.053 C 
BRANCH  12  13
HETATM   13  C   UNK N   1      30.491  17.214   5.539  0.00  0.00    -0.050 A 
HETATM   14  C   UNK N   1      31.067  17.319   4.262  0.00  0.00     0.008 A 
HETATM   15  C   UNK N   1      32.453  17.362   4.106  0.00  0.00     0.001 A 
HETATM   16  C   UNK N   1      33.280  17.302   5.228  0.00  0.00     0.000 A 
HETATM   17  C   UNK N   1      32.719  17.194   6.505  0.00  0.00     0.001 A 
HETATM   18  C   UNK N   1      31.328  17.159   6.661  0.00  0.00     0.008 A 
ENDBRANCH  12  13
BRANCH  12  19
HETATM   19  C   UNK N   1      28.249  18.601   5.697  0.00  0.00    -0.050 A 
HETATM   20  C   UNK N   1      27.893  19.232   6.896  0.00  0.00     0.008 A 
HETATM   21  C   UNK N   1      27.276  20.488   6.874  0.00  0.00     0.001 A 
HETATM   22  C   UNK N   1      27.012  21.121   5.655  0.00  0.00     0.000 A 
HETATM   23  C   UNK N   1      27.361  20.495   4.456  0.00  0.00     0.001 A 
HETATM   24  C   UNK N   1      27.982  19.245   4.479  0.00  0.00     0.008 A 
ENDBRANCH  12  19
ENDBRANCH  11  12
ENDBRANCH  10  11
ENDBRANCH   8  10
ENDBRANCH   7   8
ENDBRANCH   4   7
ENDBRANCH   3   4
ENDBRANCH   2   3
BRANCH   2  25
HETATM   25  C   UNK N   1      22.643  13.437   6.278  0.00  0.00     0.052 C 
HETATM   26  C   UNK N   1      22.057  14.776   6.719  0.00  0.00     0.101 C 
HETATM   27  C   UNK N   1      21.212  14.734   8.003  0.00  0.00     0.052 C 
HETATM   28  C   UNK N   1      21.317  13.655   8.820  0.00  0.00     0.018 C 
HETATM   29  N   UNK N   1      22.116  12.545   8.450  0.00  0.00    -0.362 N 
HETATM   30  C   UNK N   1      20.620  13.587  10.145  0.00  0.00     0.069 C 
HETATM   31  C   UNK N   1      22.660  12.402   7.152  0.00  0.00     0.018 C 
HETATM   32  H   UNK N   1      22.300  11.849   9.122  0.00  0.00     0.165 HD
HETATM   33  C   UNK N   1      23.269  11.082   6.795  0.00  0.00     0.069 C 
BRANCH  26  34
HETATM   34  C   UNK N   1      21.767  15.830   5.659  0.00  0.00    -0.042 A 
HETATM   35  C   UNK N   1      22.604  16.943   5.505  0.00  0.00     0.044 A 
HETATM   36  C   UNK N   1      22.389  17.876   4.481  0.00  0.00     0.103 A 
HETATM   37  C   UNK N   1      21.286  17.717   3.631  0.00  0.00     0.036 A 
HETATM   38  C   UNK N   1      20.429  16.627   3.791  0.00  0.00     0.003 A 
HETATM   39  C   UNK N   1      20.685  15.676   4.784  0.00  0.00     0.008 A 
BRANCH  36  40
HETATM   40  N   UNK N   1      23.311  18.937   4.270  0.00  0.00    -0.116 N 
HETATM   41  O   UNK N   1      24.464  18.949   4.906  0.00  0.00    -0.532 OA
HETATM   42  O   UNK N   1      23.012  19.868   3.584  0.00  0.00    -0.532 OA
ENDBRANCH  36  40
ENDBRANCH  26  34
BRANCH  27  43
HETATM   43  C   UNK N   1      20.289  15.864   8.355  0.00  0.00     0.291 C 
HETATM   44  O   UNK N   1      20.743  16.878   8.860  0.00  0.00    -0.260 OA
BRANCH  43  45
HETATM   45  O   UNK N   1      18.967  15.832   8.034  0.00  0.00    -0.323 OA
HETATM   46  C   UNK N   1      18.088  16.844   8.360  0.00  0.00     0.213 C 
ENDBRANCH  43  45
ENDBRANCH  27  43
ENDBRANCH   2  25
TORSDOF 14
ENDMDL
MODEL 4
REMARK VINA RESULT:      -7.9      3.360      7.284
REMARK  14 active torsions:
REMARK  status: ('A' for Active; 'I' for Inactive)
REMARK    1  A    between atoms: O_1  and  C_10 
REMARK    2  A    between atoms: O_1  and  C_23 
REMARK    3  A    between atoms: O_3  and  C_34 
REMARK    4  A    between atoms: N_7  and  C_11 
REMARK    5  A    between atoms: N_7  and  C_12 
REMARK    6  A    between atoms: N_9  and  C_36 
REMARK    7  A    between atoms: C_10  and  C_11 
REMARK    8  A    between atoms: C_12  and  C_13 
REMARK    9  A    between atoms: C_13  and  C_14 
REMARK   10  A    between atoms: C_14  and  C_20 
REMARK   11  A    between atoms: C_14  and  C_21 
REMARK   12  A    between atoms: C_15  and  C_25 
REMARK   13  A    between atoms: C_18  and  C_23 
REMARK   14  A    between atoms: C_22  and  C_34 
ROOT
HETATM    1  O   UNK N   1      23.249  13.668   1.230  0.00  0.00    -0.259 OA
HETATM    2  C   UNK N   1      22.521  13.717   2.210  0.00  0.00     0.293 C 
ENDROOT
BRANCH   2   3
HETATM    3  O   UNK N   1      22.409  12.607   2.991  0.00  0.00    -0.305 OA
BRANCH   3   4
HETATM    4  C   UNK N   1      21.991  11.344   2.567  0.00  0.00     0.090 C 
HETATM    5  C   UNK N   1      20.479  11.271   2.615  0.00  0.00     0.048 C 
HETATM    6  C   UNK N   1      22.426  10.949   1.161  0.00  0.00     0.048 C 
BRANCH   4   7
HETATM    7  C   UNK N   1      22.549  10.306   3.539  0.00  0.00     0.309 C 
BRANCH   7   8
HETATM    8  N   UNK N   1      22.918  10.919   4.820  0.00  0.00     0.087 N 
HETATM    9  C   UNK N   1      24.289  10.558   5.132  0.00  0.00     0.310 C 
BRANCH   8  10
HETATM   10  C   UNK N   1      22.091  10.394   5.899  0.00  0.00     0.273 C 
BRANCH  10  11
HETATM   11  C   UNK N   1      20.992  11.370   6.305  0.00  0.00     0.044 C 
BRANCH  11  12
HETATM   12  C   UNK N   1      21.576  12.746   6.621  0.00  0.00     0.053 C 
BRANCH  12  13
HETATM   13  C   UNK N   1      20.657  13.869   6.187  0.00  0.00    -0.050 A 
HETATM   14  C   UNK N   1      19.725  13.613   5.168  0.00  0.00     0.008 A 
HETATM   15  C   UNK N   1      18.787  14.580   4.801  0.00  0.00     0.001 A 
HETATM   16  C   UNK N   1      18.772  15.814   5.452  0.00  0.00     0.000 A 
HETATM   17  C   UNK N   1      19.698  16.082   6.465  0.00  0.00     0.001 A 
HETATM   18  C   UNK N   1      20.633  15.109   6.838  0.00  0.00     0.008 A 
ENDBRANCH  12  13
BRANCH  12  19
HETATM   19  C   UNK N   1      22.253  12.747   7.968  0.00  0.00    -0.050 A 
HETATM   20  C   UNK N   1      21.560  12.503   9.161  0.00  0.00     0.008 A 
HETATM   21  C   UNK N   1      22.250  12.444  10.377  0.00  0.00     0.001 A 
HETATM   22  C   UNK N   1      23.637  12.627  10.408  0.00  0.00     0.000 A 
HETATM   23  C   UNK N   1      24.333  12.875   9.223  0.00  0.00     0.001 A 
HETATM   24  C   UNK N   1      23.644  12.927   8.009  0.00  0.00     0.008 A 
ENDBRANCH  12  19
ENDBRANCH  11  12
ENDBRANCH  10  11
ENDBRANCH   8  10
ENDBRANCH   7   8
ENDBRANCH   4   7
ENDBRANCH   3   4
ENDBRANCH   2   3
BRANCH   2  25
HETATM   25  C   UNK N   1      21.732  14.955   2.452  0.00  0.00     0.052 C 
HETATM   26  C   UNK N   1      22.166  15.972   3.505  0.00  0.00     0.101 C 
HETATM   27  C   UNK N   1      21.499  17.354   3.400  0.00  0.00     0.052 C 
HETATM   28  C   UNK N   1      20.373  17.480   2.652  0.00  0.00     0.018 C 
HETATM   29  N   UNK N   1      19.875  16.385   1.904  0.00  0.00    -0.362 N 
HETATM   30  C   UNK N   1      19.596  18.761   2.592  0.00  0.00     0.069 C 
HETATM   31  C   UNK N   1      20.617  15.194   1.720  0.00  0.00     0.018 C 
HETATM   32  H   UNK N   1      18.981  16.455   1.499  0.00  0.00     0.165 HD
HETATM   33  C   UNK N   1      20.113  14.210   0.711  0.00  0.00     0.069 C 
BRANCH  26  34
HETATM   34  C   UNK N   1      23.560  15.851   4.104  0.00  0.00    -0.042 A 
HETATM   35  C   UNK N   1      24.700  15.925   3.292  0.00  0.00     0.044 A 
HETATM   36  C   UNK N   1      25.987  15.894   3.847  0.00  0.00     0.103 A 
HETATM   37  C   UNK N   1      26.134  15.733   5.232  0.00  0.00     0.036 A 
HETATM   38  C   UNK N   1      25.006  15.631   6.047  0.00  0.00     0.003 A 
HETATM   39  C   UNK N   1      23.728  15.716   5.488  0.00  0.00     0.008 A 
BRANCH  36  40
HETATM   40  N   UNK N   1      27.130  16.081   3.021  0.00  0.00    -0.116 N 
HETATM   41  O   UNK N   1      28.040  16.977   3.342  0.00  0.00    -0.532 OA
HETATM   42  O   UNK N   1      27.228  15.491   1.987  0.00  0.00    -0.532 OA
ENDBRANCH  36  40
ENDBRANCH  26  34
BRANCH  27  43
HETATM   43  C   UNK N   1      22.073  18.543   4.112  0.00  0.00     0.291 C 
HETATM   44  O   UNK N   1      21.835  18.709   5.297  0.00  0.00    -0.260 OA
BRANCH  43  45
HETATM   45  O   UNK N   1      22.941  19.392   3.498  0.00  0.00    -0.323 OA
HETATM   46  C   UNK N   1      24.273  19.491   3.846  0.00  0.00     0.213 C 
ENDBRANCH  43  45
ENDBRANCH  27  43
ENDBRANCH   2  25
TORSDOF 14
ENDMDL
MODEL 5
REMARK VINA RESULT:      -7.9      1.731      3.805
REMARK  14 active torsions:
REMARK  status: ('A' for Active; 'I' for Inactive)
REMARK    1  A    between atoms: O_1  and  C_10 
REMARK    2  A    between atoms: O_1  and  C_23 
REMARK    3  A    between atoms: O_3  and  C_34 
REMARK    4  A    between atoms: N_7  and  C_11 
REMARK    5  A    between atoms: N_7  and  C_12 
REMARK    6  A    between atoms: N_9  and  C_36 
REMARK    7  A    between atoms: C_10  and  C_11 
REMARK    8  A    between atoms: C_12  and  C_13 
REMARK    9  A    between atoms: C_13  and  C_14 
REMARK   10  A    between atoms: C_14  and  C_20 
REMARK   11  A    between atoms: C_14  and  C_21 
REMARK   12  A    between atoms: C_15  and  C_25 
REMARK   13  A    between atoms: C_18  and  C_23 
REMARK   14  A    between atoms: C_22  and  C_34 
ROOT
HETATM    1  O   UNK N   1      25.176  17.631   5.131  0.00  0.00    -0.259 OA
HETATM    2  C   UNK N   1      24.482  16.709   4.731  0.00  0.00     0.293 C 
ENDROOT
BRANCH   2   3
HETATM    3  O   UNK N   1      24.586  16.337   3.426  0.00  0.00    -0.305 OA
BRANCH   3   4
HETATM    4  C   UNK N   1      25.364  15.287   2.931  0.00  0.00     0.090 C 
HETATM    5  C   UNK N   1      24.538  14.017   2.906  0.00  0.00     0.048 C 
HETATM    6  C   UNK N   1      25.929  15.495   1.531  0.00  0.00     0.048 C 
BRANCH   4   7
HETATM    7  C   UNK N   1      26.539  15.073   3.884  0.00  0.00     0.309 C 
BRANCH   7   8
HETATM    8  N   UNK N   1      27.751  14.680   3.156  0.00  0.00     0.087 N 
HETATM    9  C   UNK N   1      27.973  13.260   3.354  0.00  0.00     0.310 C 
BRANCH   8  10
HETATM   10  C   UNK N   1      28.919  15.365   3.694  0.00  0.00     0.273 C 
BRANCH  10  11
HETATM   11  C   UNK N   1      28.776  16.882   3.627  0.00  0.00     0.044 C 
BRANCH  11  12
HETATM   12  C   UNK N   1      29.183  17.525   4.952  0.00  0.00     0.053 C 
BRANCH  12  13
HETATM   13  C   UNK N   1      30.681  17.484   5.168  0.00  0.00    -0.050 A 
HETATM   14  C   UNK N   1      31.165  17.071   6.420  0.00  0.00     0.008 A 
HETATM   15  C   UNK N   1      32.535  16.917   6.639  0.00  0.00     0.001 A 
HETATM   16  C   UNK N   1      33.436  17.174   5.606  0.00  0.00     0.000 A 
HETATM   17  C   UNK N   1      32.967  17.589   4.356  0.00  0.00     0.001 A 
HETATM   18  C   UNK N   1      31.593  17.735   4.134  0.00  0.00     0.008 A 
ENDBRANCH  12  13
BRANCH  12  19
HETATM   19  C   UNK N   1      28.375  18.770   5.217  0.00  0.00    -0.050 A 
HETATM   20  C   UNK N   1      27.813  19.538   4.189  0.00  0.00     0.008 A 
HETATM   21  C   UNK N   1      27.011  20.644   4.494  0.00  0.00     0.001 A 
HETATM   22  C   UNK N   1      26.764  20.986   5.828  0.00  0.00     0.000 A 
HETATM   23  C   UNK N   1      27.325  20.227   6.858  0.00  0.00     0.001 A 
HETATM   24  C   UNK N   1      28.120  19.121   6.551  0.00  0.00     0.008 A 
ENDBRANCH  12  19
ENDBRANCH  11  12
ENDBRANCH  10  11
ENDBRANCH   8  10
ENDBRANCH   7   8
ENDBRANCH   4   7
ENDBRANCH   3   4
ENDBRANCH   2   3
BRANCH   2  25
HETATM   25  C   UNK N   1      23.499  16.097   5.667  0.00  0.00     0.052 C 
HETATM   26  C   UNK N   1      22.024  16.490   5.626  0.00  0.00     0.101 C 
HETATM   27  C   UNK N   1      21.069  15.538   6.365  0.00  0.00     0.052 C 
HETATM   28  C   UNK N   1      21.587  14.655   7.257  0.00  0.00     0.018 C 
HETATM   29  N   UNK N   1      22.987  14.544   7.433  0.00  0.00    -0.362 N 
HETATM   30  C   UNK N   1      20.718  13.776   8.104  0.00  0.00     0.069 C 
HETATM   31  C   UNK N   1      23.913  15.169   6.562  0.00  0.00     0.018 C 
HETATM   32  H   UNK N   1      23.330  14.015   8.188  0.00  0.00     0.165 HD
HETATM   33  C   UNK N   1      25.353  14.782   6.685  0.00  0.00     0.069 C 
BRANCH  26  34
HETATM   34  C   UNK N   1      21.517  17.296   4.438  0.00  0.00    -0.042 A 
HETATM   35  C   UNK N   1      21.262  16.677   3.207  0.00  0.00     0.044 A 
HETATM   36  C   UNK N   1      20.720  17.397   2.133  0.00  0.00     0.103 A 
HETATM   37  C   UNK N   1      20.479  18.770   2.280  0.00  0.00     0.036 A 
HETATM   38  C   UNK N   1      20.754  19.403   3.493  0.00  0.00     0.003 A 
HETATM   39  C   UNK N   1      21.245  18.663   4.572  0.00  0.00     0.008 A 
BRANCH  36  40
HETATM   40  N   UNK N   1      20.364  16.730   0.928  0.00  0.00    -0.116 N 
HETATM   41  O   UNK N   1      20.175  15.428   0.922  0.00  0.00    -0.532 OA
HETATM   42  O   UNK N   1      20.320  17.332  -0.103  0.00  0.00    -0.532 OA
ENDBRANCH  36  40
ENDBRANCH  26  34
BRANCH  27  43
HETATM   43  C   UNK N   1      19.590  15.583   6.114  0.00  0.00     0.291 C 
HETATM   44  O   UNK N   1      18.873  16.240   6.851  0.00  0.00    -0.260 OA
BRANCH  43  45
HETATM   45  O   UNK N   1      19.033  14.990   5.023  0.00  0.00    -0.323 OA
HETATM   46  C   UNK N   1      19.229  13.663   4.703  0.00  0.00     0.213 C 
ENDBRANCH  43  45
ENDBRANCH  27  43
ENDBRANCH   2  25
TORSDOF 14
ENDMDL
MODEL 6
REMARK VINA RESULT:      -7.8      1.689      2.229
REMARK  14 active torsions:
REMARK  status: ('A' for Active; 'I' for Inactive)
REMARK    1  A    between atoms: O_1  and  C_10 
REMARK    2  A    between atoms: O_1  and  C_23 
REMARK    3  A    between atoms: O_3  and  C_34 
REMARK    4  A    between atoms: N_7  and  C_11 
REMARK    5  A    between atoms: N_7  and  C_12 
REMARK    6  A    between atoms: N_9  and  C_36 
REMARK    7  A    between atoms: C_10  and  C_11 
REMARK    8  A    between atoms: C_12  and  C_13 
REMARK    9  A    between atoms: C_13  and  C_14 
REMARK   10  A    between atoms: C_14  and  C_20 
REMARK   11  A    between atoms: C_14  and  C_21 
REMARK   12  A    between atoms: C_15  and  C_25 
REMARK   13  A    between atoms: C_18  and  C_23 
REMARK   14  A    between atoms: C_22  and  C_34 
ROOT
HETATM    1  O   UNK N   1      25.463  17.271   5.284  0.00  0.00    -0.259 OA
HETATM    2  C   UNK N   1      24.688  16.402   4.914  0.00  0.00     0.293 C 
ENDROOT
BRANCH   2   3
HETATM    3  O   UNK N   1      24.663  16.073   3.594  0.00  0.00    -0.305 OA
BRANCH   3   4
HETATM    4  C   UNK N   1      25.246  14.941   3.018  0.00  0.00     0.090 C 
HETATM    5  C   UNK N   1      24.400  13.725   3.331  0.00  0.00     0.048 C 
HETATM    6  C   UNK N   1      25.430  14.998   1.507  0.00  0.00     0.048 C 
BRANCH   4   7
HETATM    7  C   UNK N   1      26.623  14.741   3.650  0.00  0.00     0.309 C 
BRANCH   7   8
HETATM    8  N   UNK N   1      27.682  14.748   2.634  0.00  0.00     0.087 N 
HETATM    9  C   UNK N   1      28.435  13.511   2.736  0.00  0.00     0.310 C 
BRANCH   8  10
HETATM   10  C   UNK N   1      28.624  15.832   2.881  0.00  0.00     0.273 C 
BRANCH  10  11
HETATM   11  C   UNK N   1      28.562  16.328   4.322  0.00  0.00     0.044 C 
BRANCH  11  12
HETATM   12  C   UNK N   1      29.382  17.607   4.491  0.00  0.00     0.053 C 
BRANCH  12  13
HETATM   13  C   UNK N   1      28.571  18.725   5.112  0.00  0.00    -0.050 A 
HETATM   14  C   UNK N   1      27.898  19.616   4.260  0.00  0.00     0.008 A 
HETATM   15  C   UNK N   1      27.056  20.600   4.780  0.00  0.00     0.001 A 
HETATM   16  C   UNK N   1      26.877  20.703   6.160  0.00  0.00     0.000 A 
HETATM   17  C   UNK N   1      27.545  19.824   7.018  0.00  0.00     0.001 A 
HETATM   18  C   UNK N   1      28.383  18.832   6.497  0.00  0.00     0.008 A 
ENDBRANCH  12  13
BRANCH  12  19
HETATM   19  C   UNK N   1      30.783  17.292   4.948  0.00  0.00    -0.050 A 
HETATM   20  C   UNK N   1      31.920  17.763   4.277  0.00  0.00     0.008 A 
HETATM   21  C   UNK N   1      33.197  17.500   4.786  0.00  0.00     0.001 A 
HETATM   22  C   UNK N   1      33.346  16.767   5.968  0.00  0.00     0.000 A 
HETATM   23  C   UNK N   1      32.217  16.291   6.640  0.00  0.00     0.001 A 
HETATM   24  C   UNK N   1      30.944  16.559   6.134  0.00  0.00     0.008 A 
ENDBRANCH  12  19
ENDBRANCH  11  12
ENDBRANCH  10  11
ENDBRANCH   8  10
ENDBRANCH   7   8
ENDBRANCH   4   7
ENDBRANCH   3   4
ENDBRANCH   2   3
BRANCH   2  25
HETATM   25  C   UNK N   1      23.755  15.809   5.910  0.00  0.00     0.052 C 
HETATM   26  C   UNK N   1      22.289  16.234   5.964  0.00  0.00     0.101 C 
HETATM   27  C   UNK N   1      21.362  15.301   6.762  0.00  0.00     0.052 C 
HETATM   28  C   UNK N   1      21.917  14.403   7.617  0.00  0.00     0.018 C 
HETATM   29  N   UNK N   1      23.323  14.262   7.702  0.00  0.00    -0.362 N 
HETATM   30  C   UNK N   1      21.085  13.540   8.516  0.00  0.00     0.069 C 
HETATM   31  C   UNK N   1      24.204  14.869   6.776  0.00  0.00     0.018 C 
HETATM   32  H   UNK N   1      23.702  13.722   8.434  0.00  0.00     0.165 HD
HETATM   33  C   UNK N   1      25.641  14.451   6.806  0.00  0.00     0.069 C 
BRANCH  26  34
HETATM   34  C   UNK N   1      21.724  17.054   4.813  0.00  0.00    -0.042 A 
HETATM   35  C   UNK N   1      21.445  16.458   3.576  0.00  0.00     0.044 A 
HETATM   36  C   UNK N   1      20.852  17.189   2.537  0.00  0.00     0.103 A 
HETATM   37  C   UNK N   1      20.582  18.552   2.725  0.00  0.00     0.036 A 
HETATM   38  C   UNK N   1      20.880  19.163   3.943  0.00  0.00     0.003 A 
HETATM   39  C   UNK N   1      21.424  18.410   4.989  0.00  0.00     0.008 A 
BRANCH  36  40
HETATM   40  N   UNK N   1      20.474  16.542   1.328  0.00  0.00    -0.116 N 
HETATM   41  O   UNK N   1      21.196  15.548   0.855  0.00  0.00    -0.532 OA
HETATM   42  O   UNK N   1      19.552  16.951   0.689  0.00  0.00    -0.532 OA
ENDBRANCH  36  40
ENDBRANCH  26  34
BRANCH  27  43
HETATM   43  C   UNK N   1      19.872  15.378   6.606  0.00  0.00     0.291 C 
HETATM   44  O   UNK N   1      19.318  14.697   5.758  0.00  0.00    -0.260 OA
BRANCH  43  45
HETATM   45  O   UNK N   1      19.102  16.112   7.455  0.00  0.00    -0.323 OA
HETATM   46  C   UNK N   1      19.607  17.121   8.248  0.00  0.00     0.213 C 
ENDBRANCH  43  45
ENDBRANCH  27  43
ENDBRANCH   2  25
TORSDOF 14
ENDMDL
MODEL 7
REMARK VINA RESULT:      -7.8      2.556      6.420
REMARK  14 active torsions:
REMARK  status: ('A' for Active; 'I' for Inactive)
REMARK    1  A    between atoms: O_1  and  C_10 
REMARK    2  A    between atoms: O_1  and  C_23 
REMARK    3  A    between atoms: O_3  and  C_34 
REMARK    4  A    between atoms: N_7  and  C_11 
REMARK    5  A    between atoms: N_7  and  C_12 
REMARK    6  A    between atoms: N_9  and  C_36 
REMARK    7  A    between atoms: C_10  and  C_11 
REMARK    8  A    between atoms: C_12  and  C_13 
REMARK    9  A    between atoms: C_13  and  C_14 
REMARK   10  A    between atoms: C_14  and  C_20 
REMARK   11  A    between atoms: C_14  and  C_21 
REMARK   12  A    between atoms: C_15  and  C_25 
REMARK   13  A    between atoms: C_18  and  C_23 
REMARK   14  A    between atoms: C_22  and  C_34 
ROOT
HETATM    1  O   UNK N   1      26.054  16.351   2.051  0.00  0.00    -0.259 OA
HETATM    2  C   UNK N   1      25.569  16.007   3.118  0.00  0.00     0.293 C 
ENDROOT
BRANCH   2   3
HETATM    3  O   UNK N   1      26.353  15.328   4.000  0.00  0.00    -0.305 OA
BRANCH   3   4
HETATM    4  C   UNK N   1      27.645  15.685   4.394  0.00  0.00     0.090 C 
HETATM    5  C   UNK N   1      28.653  14.874   3.607  0.00  0.00     0.048 C 
HETATM    6  C   UNK N   1      27.999  17.156   4.217  0.00  0.00     0.048 C 
BRANCH   4   7
HETATM    7  C   UNK N   1      27.804  15.339   5.873  0.00  0.00     0.309 C 
BRANCH   7   8
HETATM    8  N   UNK N   1      26.695  15.877   6.669  0.00  0.00     0.087 N 
HETATM    9  C   UNK N   1      27.240  16.553   7.832  0.00  0.00     0.310 C 
BRANCH   8  10
HETATM   10  C   UNK N   1      25.851  14.799   7.169  0.00  0.00     0.273 C 
BRANCH  10  11
HETATM   11  C   UNK N   1      24.465  14.814   6.532  0.00  0.00     0.044 C 
BRANCH  11  12
HETATM   12  C   UNK N   1      23.458  14.065   7.405  0.00  0.00     0.053 C 
BRANCH  12  13
HETATM   13  C   UNK N   1      22.205  14.879   7.653  0.00  0.00    -0.050 A 
HETATM   14  C   UNK N   1      21.359  14.498   8.707  0.00  0.00     0.008 A 
HETATM   15  C   UNK N   1      20.246  15.271   9.044  0.00  0.00     0.001 A 
HETATM   16  C   UNK N   1      19.970  16.436   8.328  0.00  0.00     0.000 A 
HETATM   17  C   UNK N   1      20.803  16.824   7.274  0.00  0.00     0.001 A 
HETATM   18  C   UNK N   1      21.923  16.053   6.943  0.00  0.00     0.008 A 
ENDBRANCH  12  13
BRANCH  12  19
HETATM   19  C   UNK N   1      23.399  12.607   7.029  0.00  0.00    -0.050 A 
HETATM   20  C   UNK N   1      23.158  12.175   5.717  0.00  0.00     0.008 A 
HETATM   21  C   UNK N   1      23.185  10.810   5.410  0.00  0.00     0.001 A 
HETATM   22  C   UNK N   1      23.456   9.869   6.410  0.00  0.00     0.000 A 
HETATM   23  C   UNK N   1      23.693  10.293   7.719  0.00  0.00     0.001 A 
HETATM   24  C   UNK N   1      23.671  11.656   8.024  0.00  0.00     0.008 A 
ENDBRANCH  12  19
ENDBRANCH  11  12
ENDBRANCH  10  11
ENDBRANCH   8  10
ENDBRANCH   7   8
ENDBRANCH   4   7
ENDBRANCH   3   4
ENDBRANCH   2   3
BRANCH   2  25
HETATM   25  C   UNK N   1      24.125  16.274   3.364  0.00  0.00     0.052 C 
HETATM   26  C   UNK N   1      23.663  17.594   3.975  0.00  0.00     0.101 C 
HETATM   27  C   UNK N   1      22.161  17.895   3.832  0.00  0.00     0.052 C 
HETATM   28  C   UNK N   1      21.319  16.880   3.510  0.00  0.00     0.018 C 
HETATM   29  N   UNK N   1      21.823  15.590   3.217  0.00  0.00    -0.362 N 
HETATM   30  C   UNK N   1      19.832  17.062   3.467  0.00  0.00     0.069 C 
HETATM   31  C   UNK N   1      23.203  15.339   3.031  0.00  0.00     0.018 C 
HETATM   32  H   UNK N   1      21.190  14.839   3.141  0.00  0.00     0.165 HD
HETATM   33  C   UNK N   1      23.600  14.006   2.478  0.00  0.00     0.069 C 
BRANCH  26  34
HETATM   34  C   UNK N   1      24.657  18.744   4.067  0.00  0.00    -0.042 A 
HETATM   35  C   UNK N   1      25.186  19.138   5.303  0.00  0.00     0.044 A 
HETATM   36  C   UNK N   1      26.160  20.143   5.387  0.00  0.00     0.103 A 
HETATM   37  C   UNK N   1      26.572  20.797   4.218  0.00  0.00     0.036 A 
HETATM   38  C   UNK N   1      26.033  20.432   2.984  0.00  0.00     0.003 A 
HETATM   39  C   UNK N   1      25.100  19.393   2.908  0.00  0.00     0.008 A 
BRANCH  36  40
HETATM   40  N   UNK N   1      26.767  20.453   6.635  0.00  0.00    -0.116 N 
HETATM   41  O   UNK N   1      27.874  19.845   7.004  0.00  0.00    -0.532 OA
HETATM   42  O   UNK N   1      26.230  21.202   7.395  0.00  0.00    -0.532 OA
ENDBRANCH  36  40
ENDBRANCH  26  34
BRANCH  27  43
HETATM   43  C   UNK N   1      21.629  19.282   4.047  0.00  0.00     0.291 C 
HETATM   44  O   UNK N   1      21.139  19.579   5.125  0.00  0.00    -0.260 OA
BRANCH  43  45
HETATM   45  O   UNK N   1      21.769  20.254   3.106  0.00  0.00    -0.323 OA
HETATM   46  C   UNK N   1      20.887  20.422   2.058  0.00  0.00     0.213 C 
ENDBRANCH  43  45
ENDBRANCH  27  43
ENDBRANCH   2  25
TORSDOF 14
ENDMDL
MODEL 8
REMARK VINA RESULT:      -7.7      4.184      8.043
REMARK  14 active torsions:
REMARK  status: ('A' for Active; 'I' for Inactive)
REMARK    1  A    between atoms: O_1  and  C_10 
REMARK    2  A    between atoms: O_1  and  C_23 
REMARK    3  A    between atoms: O_3  and  C_34 
REMARK    4  A    between atoms: N_7  and  C_11 
REMARK    5  A    between atoms: N_7  and  C_12 
REMARK    6  A    between atoms: N_9  and  C_36 
REMARK    7  A    between atoms: C_10  and  C_11 
REMARK    8  A    between atoms: C_12  and  C_13 
REMARK    9  A    between atoms: C_13  and  C_14 
REMARK   10  A    between atoms: C_14  and  C_20 
REMARK   11  A    between atoms: C_14  and  C_21 
REMARK   12  A    between atoms: C_15  and  C_25 
REMARK   13  A    between atoms: C_18  and  C_23 
REMARK   14  A    between atoms: C_22  and  C_34 
ROOT
HETATM    1  O   UNK N   1      19.014  14.192   2.816  0.00  0.00    -0.259 OA
HETATM    2  C   UNK N   1      20.095  14.712   2.584  0.00  0.00     0.293 C 
ENDROOT
BRANCH   2   3
HETATM    3  O   UNK N   1      21.222  13.966   2.743  0.00  0.00    -0.305 OA
BRANCH   3   4
HETATM    4  C   UNK N   1      21.897  13.273   1.735  0.00  0.00     0.090 C 
HETATM    5  C   UNK N   1      20.913  12.416   0.967  0.00  0.00     0.048 C 
HETATM    6  C   UNK N   1      22.635  14.144   0.725  0.00  0.00     0.048 C 
BRANCH   4   7
HETATM    7  C   UNK N   1      22.921  12.350   2.394  0.00  0.00     0.309 C 
BRANCH   7   8
HETATM    8  N   UNK N   1      23.488  12.960   3.603  0.00  0.00     0.087 N 
HETATM    9  C   UNK N   1      24.767  13.558   3.268  0.00  0.00     0.310 C 
BRANCH   8  10
HETATM   10  C   UNK N   1      23.753  11.945   4.615  0.00  0.00     0.273 C 
BRANCH  10  11
HETATM   11  C   UNK N   1      23.489  12.460   6.026  0.00  0.00     0.044 C 
BRANCH  11  12
HETATM   12  C   UNK N   1      22.655  11.457   6.823  0.00  0.00     0.053 C 
BRANCH  12  13
HETATM   13  C   UNK N   1      22.542  11.844   8.282  0.00  0.00    -0.050 A 
HETATM   14  C   UNK N   1      21.486  12.684   8.671  0.00  0.00     0.008 A 
HETATM   15  C   UNK N   1      21.276  12.989  10.017  0.00  0.00     0.001 A 
HETATM   16  C   UNK N   1      22.121  12.455  10.989  0.00  0.00     0.000 A 
HETATM   17  C   UNK N   1      23.178  11.620  10.614  0.00  0.00     0.001 A 
HETATM   18  C   UNK N   1      23.384  11.308   9.265  0.00  0.00     0.008 A 
ENDBRANCH  12  13
BRANCH  12  19
HETATM   19  C   UNK N   1      21.462  10.996   6.026  0.00  0.00    -0.050 A 
HETATM   20  C   UNK N   1      21.198   9.642   5.777  0.00  0.00     0.008 A 
HETATM   21  C   UNK N   1      20.036   9.266   5.093  0.00  0.00     0.001 A 
HETATM   22  C   UNK N   1      19.131  10.239   4.657  0.00  0.00     0.000 A 
HETATM   23  C   UNK N   1      19.389  11.590   4.899  0.00  0.00     0.001 A 
HETATM   24  C   UNK N   1      20.546  11.964   5.586  0.00  0.00     0.008 A 
ENDBRANCH  12  19
ENDBRANCH  11  12
ENDBRANCH  10  11
ENDBRANCH   8  10
ENDBRANCH   7   8
ENDBRANCH   4   7
ENDBRANCH   3   4
ENDBRANCH   2   3
BRANCH   2  25
HETATM   25  C   UNK N   1      20.129  16.155   2.223  0.00  0.00     0.052 C 
HETATM   26  C   UNK N   1      20.477  17.218   3.262  0.00  0.00     0.101 C 
HETATM   27  C   UNK N   1      20.840  18.600   2.692  0.00  0.00     0.052 C 
HETATM   28  C   UNK N   1      20.508  18.886   1.407  0.00  0.00     0.018 C 
HETATM   29  N   UNK N   1      19.926  17.898   0.576  0.00  0.00    -0.362 N 
HETATM   30  C   UNK N   1      20.719  20.245   0.813  0.00  0.00     0.069 C 
HETATM   31  C   UNK N   1      19.858  16.535   0.951  0.00  0.00     0.018 C 
HETATM   32  H   UNK N   1      19.554  18.170  -0.294  0.00  0.00     0.165 HD
HETATM   33  C   UNK N   1      19.459  15.545  -0.098  0.00  0.00     0.069 C 
BRANCH  26  34
HETATM   34  C   UNK N   1      21.066  16.772   4.593  0.00  0.00    -0.042 A 
HETATM   35  C   UNK N   1      20.321  16.869   5.776  0.00  0.00     0.044 A 
HETATM   36  C   UNK N   1      20.827  16.388   6.992  0.00  0.00     0.103 A 
HETATM   37  C   UNK N   1      22.121  15.849   7.031  0.00  0.00     0.036 A 
HETATM   38  C   UNK N   1      22.882  15.772   5.864  0.00  0.00     0.003 A 
HETATM   39  C   UNK N   1      22.346  16.208   4.649  0.00  0.00     0.008 A 
BRANCH  36  40
HETATM   40  N   UNK N   1      20.015  16.393   8.160  0.00  0.00    -0.116 N 
HETATM   41  O   UNK N   1      20.163  17.336   9.066  0.00  0.00    -0.532 OA
HETATM   42  O   UNK N   1      19.256  15.495   8.368  0.00  0.00    -0.532 OA
ENDBRANCH  36  40
ENDBRANCH  26  34
BRANCH  27  43
HETATM   43  C   UNK N   1      21.545  19.621   3.538  0.00  0.00     0.291 C 
HETATM   44  O   UNK N   1      20.967  20.116   4.492  0.00  0.00    -0.260 OA
BRANCH  43  45
HETATM   45  O   UNK N   1      22.852  19.938   3.333  0.00  0.00    -0.323 OA
HETATM   46  C   UNK N   1      23.896  19.236   3.899  0.00  0.00     0.213 C 
ENDBRANCH  43  45
ENDBRANCH  27  43
ENDBRANCH   2  25
TORSDOF 14
ENDMDL
MODEL 9
REMARK VINA RESULT:      -7.7      2.478      5.248
REMARK  14 active torsions:
REMARK  status: ('A' for Active; 'I' for Inactive)
REMARK    1  A    between atoms: O_1  and  C_10 
REMARK    2  A    between atoms: O_1  and  C_23 
REMARK    3  A    between atoms: O_3  and  C_34 
REMARK    4  A    between atoms: N_7  and  C_11 
REMARK    5  A    between atoms: N_7  and  C_12 
REMARK    6  A    between atoms: N_9  and  C_36 
REMARK    7  A    between atoms: C_10  and  C_11 
REMARK    8  A    between atoms: C_12  and  C_13 
REMARK    9  A    between atoms: C_13  and  C_14 
REMARK   10  A    between atoms: C_14  and  C_20 
REMARK   11  A    between atoms: C_14  and  C_21 
REMARK   12  A    between atoms: C_15  and  C_25 
REMARK   13  A    between atoms: C_18  and  C_23 
REMARK   14  A    between atoms: C_22  and  C_34 
ROOT
HETATM    1  O   UNK N   1      23.137  11.498   3.825  0.00  0.00    -0.259 OA
HETATM    2  C   UNK N   1      23.503  12.663   3.775  0.00  0.00     0.293 C 
ENDROOT
BRANCH   2   3
HETATM    3  O   UNK N   1      24.837  12.921   3.698  0.00  0.00    -0.305 OA
BRANCH   3   4
HETATM    4  C   UNK N   1      25.512  13.431   2.587  0.00  0.00     0.090 C 
HETATM    5  C   UNK N   1      25.235  12.555   1.383  0.00  0.00     0.048 C 
HETATM    6  C   UNK N   1      25.155  14.863   2.205  0.00  0.00     0.048 C 
BRANCH   4   7
HETATM    7  C   UNK N   1      27.011  13.384   2.876  0.00  0.00     0.309 C 
BRANCH   7   8
HETATM    8  N   UNK N   1      27.561  14.732   3.066  0.00  0.00     0.087 N 
HETATM    9  C   UNK N   1      28.699  14.900   2.182  0.00  0.00     0.310 C 
BRANCH   8  10
HETATM   10  C   UNK N   1      28.058  14.898   4.425  0.00  0.00     0.273 C 
BRANCH  10  11
HETATM   11  C   UNK N   1      28.713  16.260   4.634  0.00  0.00     0.044 C 
BRANCH  11  12
HETATM   12  C   UNK N   1      27.888  17.118   5.593  0.00  0.00     0.053 C 
BRANCH  12  13
HETATM   13  C   UNK N   1      28.648  17.442   6.862  0.00  0.00    -0.050 A 
HETATM   14  C   UNK N   1      30.005  17.087   6.939  0.00  0.00     0.008 A 
HETATM   15  C   UNK N   1      30.776  17.453   8.043  0.00  0.00     0.001 A 
HETATM   16  C   UNK N   1      30.197  18.181   9.083  0.00  0.00     0.000 A 
HETATM   17  C   UNK N   1      28.847  18.538   9.019  0.00  0.00     0.001 A 
HETATM   18  C   UNK N   1      28.076  18.177   7.908  0.00  0.00     0.008 A 
ENDBRANCH  12  13
BRANCH  12  19
HETATM   19  C   UNK N   1      27.108  18.166   4.842  0.00  0.00    -0.050 A 
HETATM   20  C   UNK N   1      27.694  19.346   4.364  0.00  0.00     0.008 A 
HETATM   21  C   UNK N   1      26.939  20.252   3.610  0.00  0.00     0.001 A 
HETATM   22  C   UNK N   1      25.595  19.984   3.329  0.00  0.00     0.000 A 
HETATM   23  C   UNK N   1      25.004  18.812   3.806  0.00  0.00     0.001 A 
HETATM   24  C   UNK N   1      25.760  17.906   4.553  0.00  0.00     0.008 A 
ENDBRANCH  12  19
ENDBRANCH  11  12
ENDBRANCH  10  11
ENDBRANCH   8  10
ENDBRANCH   7   8
ENDBRANCH   4   7
ENDBRANCH   3   4
ENDBRANCH   2   3
BRANCH   2  25
HETATM   25  C   UNK N   1      22.479  13.737   3.884  0.00  0.00     0.052 C 
HETATM   26  C   UNK N   1      22.273  14.498   5.192  0.00  0.00     0.101 C 
HETATM   27  C   UNK N   1      21.472  15.805   5.075  0.00  0.00     0.052 C 
HETATM   28  C   UNK N   1      20.732  16.020   3.957  0.00  0.00     0.018 C 
HETATM   29  N   UNK N   1      20.773  15.104   2.878  0.00  0.00    -0.362 N 
HETATM   30  C   UNK N   1      19.832  17.209   3.814  0.00  0.00     0.069 C 
HETATM   31  C   UNK N   1      21.723  14.057   2.807  0.00  0.00     0.018 C 
HETATM   32  H   UNK N   1      20.116  15.199   2.150  0.00  0.00     0.165 HD
HETATM   33  C   UNK N   1      21.842  13.312   1.514  0.00  0.00     0.069 C 
BRANCH  26  34
HETATM   34  C   UNK N   1      23.312  14.346   6.295  0.00  0.00    -0.042 A 
HETATM   35  C   UNK N   1      23.082  13.498   7.387  0.00  0.00     0.044 A 
HETATM   36  C   UNK N   1      24.066  13.293   8.365  0.00  0.00     0.103 A 
HETATM   37  C   UNK N   1      25.278  13.990   8.274  0.00  0.00     0.036 A 
HETATM   38  C   UNK N   1      25.508  14.859   7.206  0.00  0.00     0.003 A 
HETATM   39  C   UNK N   1      24.540  15.014   6.210  0.00  0.00     0.008 A 
BRANCH  36  40
HETATM   40  N   UNK N   1      23.859  12.344   9.404  0.00  0.00    -0.116 N 
HETATM   41  O   UNK N   1      22.671  11.805   9.582  0.00  0.00    -0.532 OA
HETATM   42  O   UNK N   1      24.735  12.097  10.176  0.00  0.00    -0.532 OA
ENDBRANCH  36  40
ENDBRANCH  26  34
BRANCH  27  43
HETATM   43  C   UNK N   1      21.498  16.826   6.174  0.00  0.00     0.291 C 
HETATM   44  O   UNK N   1      22.319  17.729   6.139  0.00  0.00    -0.260 OA
BRANCH  43  45
HETATM   45  O   UNK N   1      20.563  16.836   7.163  0.00  0.00    -0.323 OA
HETATM   46  C   UNK N   1      20.736  16.190   8.370  0.00  0.00     0.213 C 
ENDBRANCH  43  45
ENDBRANCH  27  43
ENDBRANCH   2  25
TORSDOF 14
ENDMDL
