REMARK  14 active torsions:
REMARK  status: ('A' for Active; 'I' for Inactive)
REMARK    1  A    between atoms: O_1  and  C_10 
REMARK    2  A    between atoms: O_1  and  C_23 
REMARK    3  A    between atoms: O_3  and  C_34 
REMARK    4  A    between atoms: N_7  and  C_11 
REMARK    5  A    between atoms: N_7  and  C_12 
REMARK    6  A    between atoms: N_9  and  C_36 
REMARK    7  A    between atoms: C_10  and  C_11 
REMARK    8  A    between atoms: C_12  and  C_13 
REMARK    9  A    between atoms: C_13  and  C_14 
REMARK   10  A    between atoms: C_14  and  C_20 
REMARK   11  A    between atoms: C_14  and  C_21 
REMARK   12  A    between atoms: C_15  and  C_25 
REMARK   13  A    between atoms: C_18  and  C_23 
REMARK   14  A    between atoms: C_22  and  C_34 
ROOT
HETATM    1  O   UNK N   1       8.392  -1.166   2.137  0.00  0.00    -0.259 OA
HETATM    2  C   UNK N   1       8.625  -1.094   0.940  0.00  0.00     0.293 C 
ENDROOT
BRANCH   2   3
HETATM    3  O   UNK N   1       7.695  -0.517   0.131  0.00  0.00    -0.305 OA
BRANCH   3   4
HETATM    4  C   UNK N   1       7.132  -1.090  -1.012  0.00  0.00     0.090 C 
HETATM    5  C   UNK N   1       7.017  -0.040  -2.097  0.00  0.00     0.048 C 
HETATM    6  C   UNK N   1       7.897  -2.272  -1.595  0.00  0.00     0.048 C 
BRANCH   4   7
HETATM    7  C   UNK N   1       5.725  -1.570  -0.661  0.00  0.00     0.309 C 
BRANCH   7   8
HETATM    8  N   UNK N   1       5.659  -2.065   0.719  0.00  0.00     0.087 N 
HETATM    9  C   UNK N   1       5.933  -3.490   0.717  0.00  0.00     0.310 C 
BRANCH   8  10
HETATM   10  C   UNK N   1       4.317  -1.898   1.262  0.00  0.00     0.273 C 
BRANCH  10  11
HETATM   11  C   UNK N   1       3.861  -0.443   1.226  0.00  0.00     0.044 C 
BRANCH  11  12
HETATM   12  C   UNK N   1       3.177  -0.121  -0.102  0.00  0.00     0.053 C 
BRANCH  12  13
HETATM   13  C   UNK N   1       1.877  -0.879  -0.271  0.00  0.00    -0.050 A 
HETATM   14  C   UNK N   1       1.936  -2.255  -0.546  0.00  0.00     0.008 A 
HETATM   15  C   UNK N   1       0.770  -3.020  -0.610  0.00  0.00     0.001 A 
HETATM   16  C   UNK N   1      -0.469  -2.415  -0.398  0.00  0.00     0.000 A 
HETATM   17  C   UNK N   1      -0.541  -1.045  -0.127  0.00  0.00     0.001 A 
HETATM   18  C   UNK N   1       0.629  -0.280  -0.055  0.00  0.00     0.008 A 
ENDBRANCH  12  13
BRANCH  12  19
HETATM   19  C   UNK N   1       3.290   1.347  -0.424  0.00  0.00    -0.050 A 
HETATM   20  C   UNK N   1       2.191   2.216  -0.382  0.00  0.00     0.008 A 
HETATM   21  C   UNK N   1       2.366   3.584  -0.620  0.00  0.00     0.001 A 
HETATM   22  C   UNK N   1       3.639   4.092  -0.899  0.00  0.00     0.000 A 
HETATM   23  C   UNK N   1       4.738   3.231  -0.946  0.00  0.00     0.001 A 
HETATM   24  C   UNK N   1       4.563   1.867  -0.703  0.00  0.00     0.008 A 
ENDBRANCH  12  19
ENDBRANCH  11  12
ENDBRANCH  10  11
ENDBRANCH   8  10
ENDBRANCH   7   8
ENDBRANCH   4   7
ENDBRANCH   3   4
ENDBRANCH   2   3
BRANCH   2  25
HETATM   25  C   UNK N   1       9.873  -1.715   0.418  0.00  0.00     0.052 C 
HETATM   26  C   UNK N   1      10.899  -0.889  -0.354  0.00  0.00     0.101 C 
HETATM   27  C   UNK N   1      12.285  -1.538  -0.508  0.00  0.00     0.052 C 
HETATM   28  C   UNK N   1      12.412  -2.870  -0.278  0.00  0.00     0.018 C 
HETATM   29  N   UNK N   1      11.312  -3.630   0.188  0.00  0.00    -0.362 N 
HETATM   30  C   UNK N   1      13.698  -3.601  -0.519  0.00  0.00     0.069 C 
HETATM   31  C   UNK N   1      10.112  -3.030   0.639  0.00  0.00     0.018 C 
HETATM   32  H   UNK N   1      11.384  -4.612   0.198  0.00  0.00     0.165 HD
HETATM   33  C   UNK N   1       9.120  -3.902   1.343  0.00  0.00     0.069 C 
BRANCH  26  34
HETATM   34  C   UNK N   1      10.774   0.628  -0.340  0.00  0.00    -0.042 A 
HETATM   35  C   UNK N   1      11.805   1.429   0.170  0.00  0.00     0.044 A 
HETATM   36  C   UNK N   1      11.731   2.828   0.114  0.00  0.00     0.103 A 
HETATM   37  C   UNK N   1      10.582   3.433  -0.414  0.00  0.00     0.036 A 
HETATM   38  C   UNK N   1       9.537   2.646  -0.900  0.00  0.00     0.003 A 
HETATM   39  C   UNK N   1       9.646   1.252  -0.886  0.00  0.00     0.008 A 
BRANCH  36  40
HETATM   40  N   UNK N   1      12.833   3.623   0.534  0.00  0.00    -0.116 N 
HETATM   41  O   UNK N   1      12.789   4.933   0.413  0.00  0.00    -0.532 OA
HETATM   42  O   UNK N   1      13.838   3.104   0.917  0.00  0.00    -0.532 OA
ENDBRANCH  36  40
ENDBRANCH  26  34
BRANCH  27  43
HETATM   43  C   UNK N   1      13.478  -0.721  -0.909  0.00  0.00     0.291 C 
HETATM   44  O   UNK N   1      13.361   0.134  -1.772  0.00  0.00    -0.260 OA
BRANCH  43  45
HETATM   45  O   UNK N   1      14.671  -0.835  -0.264  0.00  0.00    -0.323 OA
HETATM   46  C   UNK N   1      14.793  -1.350   1.010  0.00  0.00     0.213 C 
ENDBRANCH  43  45
ENDBRANCH  27  43
ENDBRANCH   2  25
TORSDOF 14
