REMARK  3 active torsions:
REMARK  status: ('A' for Active; 'I' for Inactive)
REMARK    1  A    between atoms: S_6  and  C_5 
REMARK    2  A    between atoms: S_6  and  C_7 
REMARK    3  A    between atoms: C_12  and  C_11 
ROOT
HETATM    1  C   UNK N   1      -1.962  -0.420  -0.269  0.00  0.00     0.090 A 
HETATM    2  C   UNK N   1      -1.803   0.889  -0.700  0.00  0.00     0.041 A 
HETATM    3  C   UNK N   1      -0.596   1.532  -0.483  0.00  0.00     0.035 A 
HETATM    4  C   UNK N   1       0.446   0.859   0.164  0.00  0.00     0.074 A 
HETATM    5  C   UNK N   1       1.680   1.503   0.428  0.00  0.00     0.074 A 
HETATM    6  C   UNK N   1       2.699   0.731   1.023  0.00  0.00     0.259 A 
HETATM    7  O   UNK N   1       3.775   1.227   1.305  0.00  0.00    -0.267 OA
HETATM    8  N   UNK N   1       2.466  -0.580   1.338  0.00  0.00    -0.317 N 
ATOM      9  HN  UNK N   1       3.214  -1.133   1.756  1.00  0.00     0.169 HD
HETATM   10  C   UNK N   1       1.263  -1.159   1.107  0.00  0.00     0.209 A 
HETATM   11  N   UNK N   1       0.256  -0.456   0.528  0.00  0.00    -0.250 N 
HETATM   12  N   UNK N   1      -0.918  -1.059   0.329  0.00  0.00    -0.286 N 
ATOM     13  HN  UNK N   1      -1.037  -2.026   0.633  1.00  0.00     0.188 HD
ENDROOT
BRANCH   1  14
HETATM   14  S   UNK N   1      -3.554  -1.220  -0.515  0.00  0.00    -0.068 SA
BRANCH  14  15
HETATM   15  C   UNK N   1      -3.039  -2.938  -0.403  0.00  0.00     0.045 A 
HETATM   16  C   UNK N   1      -3.732  -3.789   0.465  0.00  0.00     0.025 A 
HETATM   17  C   UNK N   1      -3.386  -5.140   0.553  0.00  0.00     0.044 A 
HETATM   18  C   UNK N   1      -2.344  -5.645  -0.228  0.00  0.00     0.119 A 
HETATM   19  F   UNK N   1      -2.011  -6.955  -0.146  0.00  0.00    -0.206 F 
HETATM   20  C   UNK N   1      -1.648  -4.801  -1.098  0.00  0.00     0.086 A 
HETATM   21  C   UNK N   1      -1.995  -3.451  -1.194  0.00  0.00     0.136 A 
HETATM   22  F   UNK N   1      -1.317  -2.650  -2.052  0.00  0.00    -0.205 F 
ENDBRANCH  14  15
ENDBRANCH   1  14
BRANCH   5  23
HETATM   23  C   UNK N   1       1.885   2.966   0.136  0.00  0.00     0.025 A 
HETATM   24  C   UNK N   1       0.977   3.936   0.654  0.00  0.00     0.047 A 
HETATM   25 Cl   UNK N   1      -0.361   3.522   1.726  0.00  0.00    -0.083 Cl
HETATM   26  C   UNK N   1       1.174   5.292   0.395  0.00  0.00     0.025 A 
HETATM   27  C   UNK N   1       2.252   5.719  -0.371  0.00  0.00     0.003 A 
HETATM   28  C   UNK N   1       3.157   4.790  -0.876  0.00  0.00     0.025 A 
HETATM   29  C   UNK N   1       2.993   3.424  -0.629  0.00  0.00     0.047 A 
HETATM   30 Cl   UNK N   1       4.163   2.332  -1.360  0.00  0.00    -0.083 Cl
ENDBRANCH   5  23
TORSDOF 3
