MODEL 1
REMARK VINA RESULT:      -8.1      0.000      0.000
REMARK  3 active torsions:
REMARK  status: ('A' for Active; 'I' for Inactive)
REMARK    1  A    between atoms: S_6  and  C_5 
REMARK    2  A    between atoms: S_6  and  C_7 
REMARK    3  A    between atoms: C_12  and  C_11 
ROOT
HETATM    1  C   UNK N   1      35.061  12.572  11.275  0.00  0.00     0.090 A 
HETATM    2  C   UNK N   1      34.478  12.337  10.039  0.00  0.00     0.041 A 
HETATM    3  C   UNK N   1      34.168  13.411   9.221  0.00  0.00     0.035 A 
HETATM    4  C   UNK N   1      34.447  14.714   9.645  0.00  0.00     0.074 A 
HETATM    5  C   UNK N   1      34.111  15.832   8.843  0.00  0.00     0.074 A 
HETATM    6  C   UNK N   1      34.489  17.106   9.316  0.00  0.00     0.259 A 
HETATM    7  O   UNK N   1      34.207  18.113   8.693  0.00  0.00    -0.267 OA
HETATM    8  N   UNK N   1      35.135  17.224  10.517  0.00  0.00    -0.317 N 
ATOM      9  HN  UNK N   1      35.415  18.148  10.844  1.00  0.00     0.169 HD
HETATM   10  C   UNK N   1      35.410  16.139  11.280  0.00  0.00     0.209 A 
HETATM   11  N   UNK N   1      35.073  14.893  10.860  0.00  0.00    -0.250 N 
HETATM   12  N   UNK N   1      35.350  13.851  11.647  0.00  0.00    -0.286 N 
ATOM     13  HN  UNK N   1      35.790  14.017  12.552  1.00  0.00     0.188 HD
ENDROOT
BRANCH   1  14
HETATM   14  S   UNK N   1      35.409  11.168  12.344  0.00  0.00    -0.068 SA
BRANCH  14  15
HETATM   15  C   UNK N   1      35.506  12.019  13.924  0.00  0.00     0.045 A 
HETATM   16  C   UNK N   1      36.656  12.762  14.214  0.00  0.00     0.025 A 
HETATM   17  C   UNK N   1      36.755  13.468  15.415  0.00  0.00     0.044 A 
HETATM   18  C   UNK N   1      35.702  13.434  16.332  0.00  0.00     0.119 A 
HETATM   19  F   UNK N   1      35.795  14.122  17.495  0.00  0.00    -0.206 F 
HETATM   20  C   UNK N   1      34.550  12.695  16.049  0.00  0.00     0.086 A 
HETATM   21  C   UNK N   1      34.444  11.993  14.846  0.00  0.00     0.136 A 
HETATM   22  F   UNK N   1      33.314  11.292  14.582  0.00  0.00    -0.205 F 
ENDBRANCH  14  15
ENDBRANCH   1  14
BRANCH   5  23
HETATM   23  C   UNK N   1      33.337  15.679   7.560  0.00  0.00     0.025 A 
HETATM   24  C   UNK N   1      31.928  15.895   7.542  0.00  0.00     0.047 A 
HETATM   25 Cl   UNK N   1      31.021  16.437   8.955  0.00  0.00    -0.083 Cl
HETATM   26  C   UNK N   1      31.212  15.767   6.352  0.00  0.00     0.025 A 
HETATM   27  C   UNK N   1      31.857  15.425   5.169  0.00  0.00     0.003 A 
HETATM   28  C   UNK N   1      33.234  15.222   5.163  0.00  0.00     0.025 A 
HETATM   29  C   UNK N   1      33.982  15.350   6.336  0.00  0.00     0.047 A 
HETATM   30 Cl   UNK N   1      35.707  15.018   6.227  0.00  0.00    -0.083 Cl
ENDBRANCH   5  23
TORSDOF 3
ENDMDL
MODEL 2
REMARK VINA RESULT:      -8.1     11.545     14.355
REMARK  3 active torsions:
REMARK  status: ('A' for Active; 'I' for Inactive)
REMARK    1  A    between atoms: S_6  and  C_5 
REMARK    2  A    between atoms: S_6  and  C_7 
REMARK    3  A    between atoms: C_12  and  C_11 
ROOT
HETATM    1  C   UNK N   1      23.539  19.005   3.953  0.00  0.00     0.090 A 
HETATM    2  C   UNK N   1      23.831  18.163   5.016  0.00  0.00     0.041 A 
HETATM    3  C   UNK N   1      22.853  17.305   5.490  0.00  0.00     0.035 A 
HETATM    4  C   UNK N   1      21.587  17.295   4.895  0.00  0.00     0.074 A 
HETATM    5  C   UNK N   1      20.557  16.452   5.380  0.00  0.00     0.074 A 
HETATM    6  C   UNK N   1      19.333  16.455   4.679  0.00  0.00     0.259 A 
HETATM    7  O   UNK N   1      18.395  15.777   5.057  0.00  0.00    -0.267 OA
HETATM    8  N   UNK N   1      19.173  17.267   3.590  0.00  0.00    -0.317 N 
ATOM      9  HN  UNK N   1      18.289  17.252   3.082  1.00  0.00     0.169 HD
HETATM   10  C   UNK N   1      20.164  18.091   3.171  0.00  0.00     0.209 A 
HETATM   11  N   UNK N   1      21.362  18.114   3.810  0.00  0.00    -0.250 N 
HETATM   12  N   UNK N   1      22.307  18.949   3.374  0.00  0.00    -0.286 N 
ATOM     13  HN  UNK N   1      22.103  19.562   2.584  1.00  0.00     0.188 HD
ENDROOT
BRANCH   1  14
HETATM   14  S   UNK N   1      24.808  20.147   3.386  0.00  0.00    -0.068 SA
BRANCH  14  15
HETATM   15  C   UNK N   1      26.033  19.888   4.675  0.00  0.00     0.045 A 
HETATM   16  C   UNK N   1      26.078  20.787   5.746  0.00  0.00     0.025 A 
HETATM   17  C   UNK N   1      26.992  20.599   6.786  0.00  0.00     0.044 A 
HETATM   18  C   UNK N   1      27.864  19.509   6.759  0.00  0.00     0.119 A 
HETATM   19  F   UNK N   1      28.747  19.324   7.769  0.00  0.00    -0.206 F 
HETATM   20  C   UNK N   1      27.824  18.606   5.693  0.00  0.00     0.086 A 
HETATM   21  C   UNK N   1      26.908  18.786   4.654  0.00  0.00     0.136 A 
HETATM   22  F   UNK N   1      26.874  17.894   3.634  0.00  0.00    -0.205 F 
ENDBRANCH  14  15
ENDBRANCH   1  14
BRANCH   5  23
HETATM   23  C   UNK N   1      20.737  15.622   6.623  0.00  0.00     0.025 A 
HETATM   24  C   UNK N   1      21.162  14.264   6.525  0.00  0.00     0.047 A 
HETATM   25 Cl   UNK N   1      21.591  13.501   4.994  0.00  0.00    -0.083 Cl
HETATM   26  C   UNK N   1      21.341  13.499   7.677  0.00  0.00     0.025 A 
HETATM   27  C   UNK N   1      21.108  14.043   8.934  0.00  0.00     0.003 A 
HETATM   28  C   UNK N   1      20.705  15.370   9.053  0.00  0.00     0.025 A 
HETATM   29  C   UNK N   1      20.523  16.167   7.919  0.00  0.00     0.047 A 
HETATM   30 Cl   UNK N   1      19.958  17.813   8.179  0.00  0.00    -0.083 Cl
ENDBRANCH   5  23
TORSDOF 3
ENDMDL
MODEL 3
REMARK VINA RESULT:      -8.1      0.101      1.759
REMARK  3 active torsions:
REMARK  status: ('A' for Active; 'I' for Inactive)
REMARK    1  A    between atoms: S_6  and  C_5 
REMARK    2  A    between atoms: S_6  and  C_7 
REMARK    3  A    between atoms: C_12  and  C_11 
ROOT
HETATM    1  C   UNK N   1      35.156  12.587  11.219  0.00  0.00     0.090 A 
HETATM    2  C   UNK N   1      34.533  12.361  10.000  0.00  0.00     0.041 A 
HETATM    3  C   UNK N   1      34.222  13.440   9.189  0.00  0.00     0.035 A 
HETATM    4  C   UNK N   1      34.538  14.738   9.603  0.00  0.00     0.074 A 
HETATM    5  C   UNK N   1      34.202  15.861   8.808  0.00  0.00     0.074 A 
HETATM    6  C   UNK N   1      34.619  17.128   9.267  0.00  0.00     0.259 A 
HETATM    7  O   UNK N   1      34.339  18.140   8.650  0.00  0.00    -0.267 OA
HETATM    8  N   UNK N   1      35.301  17.234  10.449  0.00  0.00    -0.317 N 
ATOM      9  HN  UNK N   1      35.609  18.153  10.766  1.00  0.00     0.169 HD
HETATM   10  C   UNK N   1      35.576  16.145  11.206  0.00  0.00     0.209 A 
HETATM   11  N   UNK N   1      35.202  14.905  10.798  0.00  0.00    -0.250 N 
HETATM   12  N   UNK N   1      35.481  13.860  11.579  0.00  0.00    -0.286 N 
ATOM     13  HN  UNK N   1      35.950  14.018  12.472  1.00  0.00     0.188 HD
ENDROOT
BRANCH   1  14
HETATM   14  S   UNK N   1      35.506  11.177  12.280  0.00  0.00    -0.068 SA
BRANCH  14  15
HETATM   15  C   UNK N   1      35.554  12.013  13.871  0.00  0.00     0.045 A 
HETATM   16  C   UNK N   1      36.691  12.760  14.200  0.00  0.00     0.025 A 
HETATM   17  C   UNK N   1      36.752  13.455  15.410  0.00  0.00     0.044 A 
HETATM   18  C   UNK N   1      35.674  13.405  16.298  0.00  0.00     0.119 A 
HETATM   19  F   UNK N   1      35.731  14.081  17.469  0.00  0.00    -0.206 F 
HETATM   20  C   UNK N   1      34.535  12.662  15.975  0.00  0.00     0.086 A 
HETATM   21  C   UNK N   1      34.467  11.971  14.763  0.00  0.00     0.136 A 
HETATM   22  F   UNK N   1      33.350  11.265  14.461  0.00  0.00    -0.205 F 
ENDBRANCH  14  15
ENDBRANCH   1  14
BRANCH   5  23
HETATM   23  C   UNK N   1      33.389  15.722   7.548  0.00  0.00     0.025 A 
HETATM   24  C   UNK N   1      34.024  15.385   6.317  0.00  0.00     0.047 A 
HETATM   25 Cl   UNK N   1      35.745  15.019   6.192  0.00  0.00    -0.083 Cl
HETATM   26  C   UNK N   1      33.269  15.242   5.153  0.00  0.00     0.025 A 
HETATM   27  C   UNK N   1      31.892  15.429   5.173  0.00  0.00     0.003 A 
HETATM   28  C   UNK N   1      31.251  15.746   6.366  0.00  0.00     0.025 A 
HETATM   29  C   UNK N   1      31.976  15.889   7.552  0.00  0.00     0.047 A 
HETATM   30 Cl   UNK N   1      31.075  16.346   8.993  0.00  0.00    -0.083 Cl
ENDBRANCH   5  23
TORSDOF 3
ENDMDL
MODEL 4
REMARK VINA RESULT:      -8.0     10.919     14.061
REMARK  3 active torsions:
REMARK  status: ('A' for Active; 'I' for Inactive)
REMARK    1  A    between atoms: S_6  and  C_5 
REMARK    2  A    between atoms: S_6  and  C_7 
REMARK    3  A    between atoms: C_12  and  C_11 
ROOT
HETATM    1  C   UNK N   1      25.050  19.734   3.475  0.00  0.00     0.090 A 
HETATM    2  C   UNK N   1      24.864  18.447   3.958  0.00  0.00     0.041 A 
HETATM    3  C   UNK N   1      23.587  17.913   3.991  0.00  0.00     0.035 A 
HETATM    4  C   UNK N   1      22.503  18.672   3.538  0.00  0.00     0.074 A 
HETATM    5  C   UNK N   1      21.181  18.164   3.591  0.00  0.00     0.074 A 
HETATM    6  C   UNK N   1      20.156  18.968   3.051  0.00  0.00     0.259 A 
HETATM    7  O   UNK N   1      18.994  18.607   3.089  0.00  0.00    -0.267 OA
HETATM    8  N   UNK N   1      20.457  20.194   2.523  0.00  0.00    -0.317 N 
ATOM      9  HN  UNK N   1      19.710  20.761   2.123  1.00  0.00     0.169 HD
HETATM   10  C   UNK N   1      21.726  20.669   2.520  0.00  0.00     0.209 A 
HETATM   11  N   UNK N   1      22.745  19.926   3.021  0.00  0.00    -0.250 N 
HETATM   12  N   UNK N   1      23.979  20.435   3.011  0.00  0.00    -0.286 N 
ATOM     13  HN  UNK N   1      24.124  21.377   2.645  1.00  0.00     0.188 HD
ENDROOT
BRANCH   1  14
HETATM   14  S   UNK N   1      26.710  20.427   3.488  0.00  0.00    -0.068 SA
BRANCH  14  15
HETATM   15  C   UNK N   1      27.233  19.903   5.125  0.00  0.00     0.045 A 
HETATM   16  C   UNK N   1      28.054  18.775   5.237  0.00  0.00     0.025 A 
HETATM   17  C   UNK N   1      28.512  18.358   6.489  0.00  0.00     0.044 A 
HETATM   18  C   UNK N   1      28.151  19.069   7.636  0.00  0.00     0.119 A 
HETATM   19  F   UNK N   1      28.598  18.668   8.849  0.00  0.00    -0.206 F 
HETATM   20  C   UNK N   1      27.333  20.198   7.532  0.00  0.00     0.086 A 
HETATM   21  C   UNK N   1      26.877  20.622   6.281  0.00  0.00     0.136 A 
HETATM   22  F   UNK N   1      26.095  21.726   6.198  0.00  0.00    -0.205 F 
ENDBRANCH  14  15
ENDBRANCH   1  14
BRANCH   5  23
HETATM   23  C   UNK N   1      20.869  16.842   4.242  0.00  0.00     0.025 A 
HETATM   24  C   UNK N   1      20.677  15.676   3.445  0.00  0.00     0.047 A 
HETATM   25 Cl   UNK N   1      20.880  15.667   1.692  0.00  0.00    -0.083 Cl
HETATM   26  C   UNK N   1      20.402  14.449   4.048  0.00  0.00     0.025 A 
HETATM   27  C   UNK N   1      20.307  14.344   5.430  0.00  0.00     0.003 A 
HETATM   28  C   UNK N   1      20.504  15.467   6.228  0.00  0.00     0.025 A 
HETATM   29  C   UNK N   1      20.789  16.710   5.656  0.00  0.00     0.047 A 
HETATM   30 Cl   UNK N   1      20.964  18.075   6.752  0.00  0.00    -0.083 Cl
ENDBRANCH   5  23
TORSDOF 3
ENDMDL
MODEL 5
REMARK VINA RESULT:      -8.0      5.422      8.956
REMARK  3 active torsions:
REMARK  status: ('A' for Active; 'I' for Inactive)
REMARK    1  A    between atoms: S_6  and  C_5 
REMARK    2  A    between atoms: S_6  and  C_7 
REMARK    3  A    between atoms: C_12  and  C_11 
ROOT
HETATM    1  C   UNK N   1      29.926  16.158   5.878  0.00  0.00     0.090 A 
HETATM    2  C   UNK N   1      30.286  16.336   7.206  0.00  0.00     0.041 A 
HETATM    3  C   UNK N   1      31.615  16.198   7.572  0.00  0.00     0.035 A 
HETATM    4  C   UNK N   1      32.575  15.885   6.604  0.00  0.00     0.074 A 
HETATM    5  C   UNK N   1      33.936  15.706   6.956  0.00  0.00     0.074 A 
HETATM    6  C   UNK N   1      34.848  15.459   5.909  0.00  0.00     0.259 A 
HETATM    7  O   UNK N   1      36.028  15.267   6.141  0.00  0.00    -0.267 OA
HETATM    8  N   UNK N   1      34.401  15.381   4.619  0.00  0.00    -0.317 N 
ATOM      9  HN  UNK N   1      35.070  15.215   3.868  1.00  0.00     0.169 HD
HETATM   10  C   UNK N   1      33.087  15.520   4.317  0.00  0.00     0.209 A 
HETATM   11  N   UNK N   1      32.175  15.768   5.291  0.00  0.00    -0.250 N 
HETATM   12  N   UNK N   1      30.889  15.885   4.954  0.00  0.00    -0.286 N 
ATOM     13  HN  UNK N   1      30.619  15.768   3.977  1.00  0.00     0.188 HD
ENDROOT
BRANCH   1  14
HETATM   14  S   UNK N   1      28.188  16.291   5.433  0.00  0.00    -0.068 SA
BRANCH  14  15
HETATM   15  C   UNK N   1      27.968  18.063   5.638  0.00  0.00     0.045 A 
HETATM   16  C   UNK N   1      27.959  18.872   4.496  0.00  0.00     0.025 A 
HETATM   17  C   UNK N   1      27.753  20.249   4.611  0.00  0.00     0.044 A 
HETATM   18  C   UNK N   1      27.555  20.823   5.869  0.00  0.00     0.119 A 
HETATM   19  F   UNK N   1      27.352  22.157   5.980  0.00  0.00    -0.206 F 
HETATM   20  C   UNK N   1      27.562  20.020   7.013  0.00  0.00     0.086 A 
HETATM   21  C   UNK N   1      27.761  18.641   6.903  0.00  0.00     0.136 A 
HETATM   22  F   UNK N   1      27.751  17.877   8.022  0.00  0.00    -0.205 F 
ENDBRANCH  14  15
ENDBRANCH   1  14
BRANCH   5  23
HETATM   23  C   UNK N   1      34.389  15.726   8.392  0.00  0.00     0.025 A 
HETATM   24  C   UNK N   1      34.467  14.513   9.138  0.00  0.00     0.047 A 
HETATM   25 Cl   UNK N   1      34.142  12.930   8.431  0.00  0.00    -0.083 Cl
HETATM   26  C   UNK N   1      34.900  14.530  10.463  0.00  0.00     0.025 A 
HETATM   27  C   UNK N   1      35.258  15.723  11.078  0.00  0.00     0.003 A 
HETATM   28  C   UNK N   1      35.202  16.917  10.365  0.00  0.00     0.025 A 
HETATM   29  C   UNK N   1      34.780  16.935   9.032  0.00  0.00     0.047 A 
HETATM   30 Cl   UNK N   1      34.693  18.504   8.241  0.00  0.00    -0.083 Cl
ENDBRANCH   5  23
TORSDOF 3
ENDMDL
MODEL 6
REMARK VINA RESULT:      -8.0     11.481     14.210
REMARK  3 active torsions:
REMARK  status: ('A' for Active; 'I' for Inactive)
REMARK    1  A    between atoms: S_6  and  C_5 
REMARK    2  A    between atoms: S_6  and  C_7 
REMARK    3  A    between atoms: C_12  and  C_11 
ROOT
HETATM    1  C   UNK N   1      23.475  18.730   4.045  0.00  0.00     0.090 A 
HETATM    2  C   UNK N   1      23.818  17.894   5.097  0.00  0.00     0.041 A 
HETATM    3  C   UNK N   1      22.873  17.015   5.601  0.00  0.00     0.035 A 
HETATM    4  C   UNK N   1      21.589  16.979   5.045  0.00  0.00     0.074 A 
HETATM    5  C   UNK N   1      20.593  16.113   5.562  0.00  0.00     0.074 A 
HETATM    6  C   UNK N   1      19.348  16.091   4.900  0.00  0.00     0.259 A 
HETATM    7  O   UNK N   1      18.437  15.393   5.307  0.00  0.00    -0.267 OA
HETATM    8  N   UNK N   1      19.137  16.900   3.817  0.00  0.00    -0.317 N 
ATOM      9  HN  UNK N   1      18.237  16.867   3.338  1.00  0.00     0.169 HD
HETATM   10  C   UNK N   1      20.096  17.745   3.368  0.00  0.00     0.209 A 
HETATM   11  N   UNK N   1      21.313  17.793   3.969  0.00  0.00    -0.250 N 
HETATM   12  N   UNK N   1      22.227  18.648   3.504  0.00  0.00    -0.286 N 
ATOM     13  HN  UNK N   1      21.984  19.257   2.722  1.00  0.00     0.188 HD
ENDROOT
BRANCH   1  14
HETATM   14  S   UNK N   1      24.700  19.898   3.439  0.00  0.00    -0.068 SA
BRANCH  14  15
HETATM   15  C   UNK N   1      25.972  19.662   4.686  0.00  0.00     0.045 A 
HETATM   16  C   UNK N   1      26.051  20.576   5.743  0.00  0.00     0.025 A 
HETATM   17  C   UNK N   1      27.002  20.405   6.752  0.00  0.00     0.044 A 
HETATM   18  C   UNK N   1      27.879  19.319   6.708  0.00  0.00     0.119 A 
HETATM   19  F   UNK N   1      28.798  19.151   7.688  0.00  0.00    -0.206 F 
HETATM   20  C   UNK N   1      27.805  18.402   5.656  0.00  0.00     0.086 A 
HETATM   21  C   UNK N   1      26.851  18.564   4.648  0.00  0.00     0.136 A 
HETATM   22  F   UNK N   1      26.786  17.658   3.642  0.00  0.00    -0.205 F 
ENDBRANCH  14  15
ENDBRANCH   1  14
BRANCH   5  23
HETATM   23  C   UNK N   1      20.830  15.287   6.798  0.00  0.00     0.025 A 
HETATM   24  C   UNK N   1      20.591  15.842   8.090  0.00  0.00     0.047 A 
HETATM   25 Cl   UNK N   1      19.926  17.457   8.332  0.00  0.00    -0.083 Cl
HETATM   26  C   UNK N   1      20.797  15.072   9.234  0.00  0.00     0.025 A 
HETATM   27  C   UNK N   1      21.239  13.759   9.136  0.00  0.00     0.003 A 
HETATM   28  C   UNK N   1      21.467  13.194   7.885  0.00  0.00     0.025 A 
HETATM   29  C   UNK N   1      21.263  13.935   6.718  0.00  0.00     0.047 A 
HETATM   30 Cl   UNK N   1      21.634  13.142   5.191  0.00  0.00    -0.083 Cl
ENDBRANCH   5  23
TORSDOF 3
ENDMDL
MODEL 7
REMARK VINA RESULT:      -7.8     11.408     13.464
REMARK  3 active torsions:
REMARK  status: ('A' for Active; 'I' for Inactive)
REMARK    1  A    between atoms: S_6  and  C_5 
REMARK    2  A    between atoms: S_6  and  C_7 
REMARK    3  A    between atoms: C_12  and  C_11 
ROOT
HETATM    1  C   UNK N   1      24.049  14.159   6.876  0.00  0.00     0.090 A 
HETATM    2  C   UNK N   1      23.509  13.231   5.998  0.00  0.00     0.041 A 
HETATM    3  C   UNK N   1      22.769  13.674   4.914  0.00  0.00     0.035 A 
HETATM    4  C   UNK N   1      22.575  15.045   4.716  0.00  0.00     0.074 A 
HETATM    5  C   UNK N   1      21.796  15.525   3.635  0.00  0.00     0.074 A 
HETATM    6  C   UNK N   1      21.708  16.923   3.470  0.00  0.00     0.259 A 
HETATM    7  O   UNK N   1      21.032  17.406   2.579  0.00  0.00    -0.267 OA
HETATM    8  N   UNK N   1      22.347  17.755   4.348  0.00  0.00    -0.317 N 
ATOM      9  HN  UNK N   1      22.287  18.764   4.212  1.00  0.00     0.169 HD
HETATM   10  C   UNK N   1      23.055  17.267   5.395  0.00  0.00     0.209 A 
HETATM   11  N   UNK N   1      23.174  15.929   5.588  0.00  0.00    -0.250 N 
HETATM   12  N   UNK N   1      23.869  15.489   6.638  0.00  0.00    -0.286 N 
ATOM     13  HN  UNK N   1      24.279  16.167   7.281  1.00  0.00     0.188 HD
ENDROOT
BRANCH   1  14
HETATM   14  S   UNK N   1      24.963  13.562   8.305  0.00  0.00    -0.068 SA
BRANCH  14  15
HETATM   15  C   UNK N   1      23.585  13.129   9.375  0.00  0.00     0.045 A 
HETATM   16  C   UNK N   1      22.306  13.584   9.035  0.00  0.00     0.025 A 
HETATM   17  C   UNK N   1      21.203  13.238   9.821  0.00  0.00     0.044 A 
HETATM   18  C   UNK N   1      21.376  12.436  10.950  0.00  0.00     0.119 A 
HETATM   19  F   UNK N   1      20.308  12.097  11.710  0.00  0.00    -0.206 F 
HETATM   20  C   UNK N   1      22.651  11.977  11.295  0.00  0.00     0.086 A 
HETATM   21  C   UNK N   1      23.755  12.315  10.509  0.00  0.00     0.136 A 
HETATM   22  F   UNK N   1      24.982  11.851  10.852  0.00  0.00    -0.205 F 
ENDBRANCH  14  15
ENDBRANCH   1  14
BRANCH   5  23
HETATM   23  C   UNK N   1      21.046  14.588   2.725  0.00  0.00     0.025 A 
HETATM   24  C   UNK N   1      21.646  14.127   1.516  0.00  0.00     0.047 A 
HETATM   25 Cl   UNK N   1      23.300  14.527   1.052  0.00  0.00    -0.083 Cl
HETATM   26  C   UNK N   1      20.957  13.248   0.680  0.00  0.00     0.025 A 
HETATM   27  C   UNK N   1      19.680  12.811   1.009  0.00  0.00     0.003 A 
HETATM   28  C   UNK N   1      19.081  13.239   2.190  0.00  0.00     0.025 A 
HETATM   29  C   UNK N   1      19.746  14.114   3.053  0.00  0.00     0.047 A 
HETATM   30 Cl   UNK N   1      18.877  14.635   4.491  0.00  0.00    -0.083 Cl
ENDBRANCH   5  23
TORSDOF 3
ENDMDL
MODEL 8
REMARK VINA RESULT:      -7.8     17.575     20.440
REMARK  3 active torsions:
REMARK  status: ('A' for Active; 'I' for Inactive)
REMARK    1  A    between atoms: S_6  and  C_5 
REMARK    2  A    between atoms: S_6  and  C_7 
REMARK    3  A    between atoms: C_12  and  C_11 
ROOT
HETATM    1  C   UNK N   1      27.280  24.623  -5.322  0.00  0.00     0.090 A 
HETATM    2  C   UNK N   1      28.242  24.328  -6.277  0.00  0.00     0.041 A 
HETATM    3  C   UNK N   1      29.425  23.725  -5.884  0.00  0.00     0.035 A 
HETATM    4  C   UNK N   1      29.636  23.419  -4.535  0.00  0.00     0.074 A 
HETATM    5  C   UNK N   1      30.850  22.831  -4.100  0.00  0.00     0.074 A 
HETATM    6  C   UNK N   1      30.952  22.493  -2.735  0.00  0.00     0.259 A 
HETATM    7  O   UNK N   1      31.977  22.012  -2.285  0.00  0.00    -0.267 OA
HETATM    8  N   UNK N   1      29.910  22.753  -1.887  0.00  0.00    -0.317 N 
ATOM      9  HN  UNK N   1      29.990  22.493  -0.904  1.00  0.00     0.169 HD
HETATM   10  C   UNK N   1      28.776  23.350  -2.325  0.00  0.00     0.209 A 
HETATM   11  N   UNK N   1      28.630  23.685  -3.633  0.00  0.00    -0.250 N 
HETATM   12  N   UNK N   1      27.502  24.283  -4.022  0.00  0.00    -0.286 N 
ATOM     13  HN  UNK N   1      26.785  24.491  -3.326  1.00  0.00     0.188 HD
ENDROOT
BRANCH   1  14
HETATM   14  S   UNK N   1      25.773  25.452  -5.847  0.00  0.00    -0.068 SA
BRANCH  14  15
HETATM   15  C   UNK N   1      26.191  27.138  -5.385  0.00  0.00     0.045 A 
HETATM   16  C   UNK N   1      25.684  27.649  -4.185  0.00  0.00     0.025 A 
HETATM   17  C   UNK N   1      26.015  28.942  -3.773  0.00  0.00     0.044 A 
HETATM   18  C   UNK N   1      26.857  29.730  -4.561  0.00  0.00     0.119 A 
HETATM   19  F   UNK N   1      27.182  30.982  -4.160  0.00  0.00    -0.206 F 
HETATM   20  C   UNK N   1      27.368  29.226  -5.761  0.00  0.00     0.086 A 
HETATM   21  C   UNK N   1      27.044  27.932  -6.173  0.00  0.00     0.136 A 
HETATM   22  F   UNK N   1      27.559  27.455  -7.333  0.00  0.00    -0.205 F 
ENDBRANCH  14  15
ENDBRANCH   1  14
BRANCH   5  23
HETATM   23  C   UNK N   1      32.007  22.621  -5.040  0.00  0.00     0.025 A 
HETATM   24  C   UNK N   1      32.226  21.344  -5.636  0.00  0.00     0.047 A 
HETATM   25 Cl   UNK N   1      31.137  19.976  -5.402  0.00  0.00    -0.083 Cl
HETATM   26  C   UNK N   1      33.289  21.152  -6.517  0.00  0.00     0.025 A 
HETATM   27  C   UNK N   1      34.151  22.197  -6.827  0.00  0.00     0.003 A 
HETATM   28  C   UNK N   1      33.948  23.455  -6.267  0.00  0.00     0.025 A 
HETATM   29  C   UNK N   1      32.888  23.683  -5.385  0.00  0.00     0.047 A 
HETATM   30 Cl   UNK N   1      32.755  25.295  -4.692  0.00  0.00    -0.083 Cl
ENDBRANCH   5  23
TORSDOF 3
ENDMDL
MODEL 9
REMARK VINA RESULT:      -7.7      8.273     10.601
REMARK  3 active torsions:
REMARK  status: ('A' for Active; 'I' for Inactive)
REMARK    1  A    between atoms: S_6  and  C_5 
REMARK    2  A    between atoms: S_6  and  C_7 
REMARK    3  A    between atoms: C_12  and  C_11 
ROOT
HETATM    1  C   UNK N   1      24.404  14.345   5.932  0.00  0.00     0.090 A 
HETATM    2  C   UNK N   1      25.683  14.119   6.418  0.00  0.00     0.041 A 
HETATM    3  C   UNK N   1      26.602  15.154   6.414  0.00  0.00     0.035 A 
HETATM    4  C   UNK N   1      26.234  16.411   5.922  0.00  0.00     0.074 A 
HETATM    5  C   UNK N   1      27.163  17.480   5.876  0.00  0.00     0.074 A 
HETATM    6  C   UNK N   1      26.690  18.731   5.429  0.00  0.00     0.259 A 
HETATM    7  O   UNK N   1      27.440  19.686   5.336  0.00  0.00    -0.267 OA
HETATM    8  N   UNK N   1      25.384  18.869   5.046  0.00  0.00    -0.317 N 
ATOM      9  HN  UNK N   1      25.049  19.781   4.737  1.00  0.00     0.169 HD
HETATM   10  C   UNK N   1      24.527  17.820   5.067  0.00  0.00     0.209 A 
HETATM   11  N   UNK N   1      24.937  16.599   5.497  0.00  0.00    -0.250 N 
HETATM   12  N   UNK N   1      24.065  15.588   5.491  0.00  0.00    -0.286 N 
ATOM     13  HN  UNK N   1      23.119  15.751   5.145  1.00  0.00     0.188 HD
ENDROOT
BRANCH   1  14
HETATM   14  S   UNK N   1      23.240  12.973   5.900  0.00  0.00    -0.068 SA
BRANCH  14  15
HETATM   15  C   UNK N   1      22.939  12.803   7.663  0.00  0.00     0.045 A 
HETATM   16  C   UNK N   1      23.422  11.664   8.318  0.00  0.00     0.025 A 
HETATM   17  C   UNK N   1      23.241  11.513   9.695  0.00  0.00     0.044 A 
HETATM   18  C   UNK N   1      22.575  12.501  10.423  0.00  0.00     0.119 A 
HETATM   19  F   UNK N   1      22.403  12.356  11.759  0.00  0.00    -0.206 F 
HETATM   20  C   UNK N   1      22.091  13.641   9.777  0.00  0.00     0.086 A 
HETATM   21  C   UNK N   1      22.276  13.800   8.401  0.00  0.00     0.136 A 
HETATM   22  F   UNK N   1      21.810  14.918   7.793  0.00  0.00    -0.205 F 
ENDBRANCH  14  15
ENDBRANCH   1  14
BRANCH   5  23
HETATM   23  C   UNK N   1      28.612  17.282   6.236  0.00  0.00     0.025 A 
HETATM   24  C   UNK N   1      29.041  17.420   7.589  0.00  0.00     0.047 A 
HETATM   25 Cl   UNK N   1      27.928  17.728   8.922  0.00  0.00    -0.083 Cl
HETATM   26  C   UNK N   1      30.380  17.224   7.926  0.00  0.00     0.025 A 
HETATM   27  C   UNK N   1      31.315  16.894   6.952  0.00  0.00     0.003 A 
HETATM   28  C   UNK N   1      30.916  16.741   5.628  0.00  0.00     0.025 A 
HETATM   29  C   UNK N   1      29.580  16.924   5.258  0.00  0.00     0.047 A 
HETATM   30 Cl   UNK N   1      29.193  16.761   3.549  0.00  0.00    -0.083 Cl
ENDBRANCH   5  23
TORSDOF 3
ENDMDL
