MODEL 1
REMARK VINA RESULT:      -6.5      0.000      0.000
REMARK  10 active torsions:
REMARK  status: ('A' for Active; 'I' for Inactive)
REMARK    1  A    between atoms: O_1  and  C_12 
REMARK    2  A    between atoms: O_1  and  C_17 
REMARK    3  A    between atoms: O_2  and  C_13 
REMARK    4  A    between atoms: O_2  and  C_19 
REMARK    5  A    between atoms: O_3  and  C_21 
REMARK    6  A    between atoms: O_4  and  C_22 
REMARK    7  A    between atoms: N_5  and  C_15 
REMARK    8  A    between atoms: N_5  and  C_18 
REMARK    9  A    between atoms: C_17  and  C_21 
REMARK   10  A    between atoms: C_19  and  C_22 
ROOT
HETATM    1  C   UNK N   1      28.567  17.896   4.274  0.00  0.00     0.035 A 
HETATM    2  C   UNK N   1      28.240  19.037   5.006  0.00  0.00     0.050 A 
HETATM    3  C   UNK N   1      27.554  17.113   3.711  0.00  0.00     0.029 A 
HETATM    4  C   UNK N   1      26.920  19.421   5.187  0.00  0.00     0.019 A 
HETATM    5  C   UNK N   1      26.213  17.487   3.907  0.00  0.00     0.004 A 
HETATM    6  C   UNK N   1      25.897  18.645   4.637  0.00  0.00     0.021 A 
HETATM    7  C   UNK N   1      26.646  20.637   5.902  0.00  0.00    -0.078 C 
HETATM    8  C   UNK N   1      26.475  21.665   6.510  0.00  0.00     0.018 C 
ENDROOT
BRANCH   1   9
HETATM    9  N   UNK N   1      29.939  17.664   4.088  0.00  0.00    -0.342 N 
HETATM   10  H   UNK N   1      30.419  18.484   3.829  0.00  0.00     0.167 HD
BRANCH   9  11
HETATM   11  C   UNK N   1      30.809  16.549   4.178  0.00  0.00     0.119 A 
HETATM   12  N   UNK N   1      31.063  15.700   3.143  0.00  0.00    -0.338 N 
HETATM   13  C   UNK N   1      31.884  14.620   3.332  0.00  0.00     0.182 A 
ATOM     14  HN  UNK N   1      30.642  15.868   2.229  1.00  0.00     0.168 HD
HETATM   15  N   UNK N   1      32.435  14.370   4.561  0.00  0.00    -0.351 N 
HETATM   16  C   UNK N   1      32.190  15.202   5.612  0.00  0.00     0.050 A 
ATOM     17  HN  UNK N   1      33.034  13.555   4.690  1.00  0.00     0.166 HD
HETATM   18  C   UNK N   1      31.383  16.318   5.418  0.00  0.00     0.038 A 
HETATM   19  C   UNK N   1      32.701  14.945   6.895  0.00  0.00     0.070 A 
HETATM   20  C   UNK N   1      31.113  17.190   6.472  0.00  0.00     0.057 A 
HETATM   21  C   UNK N   1      31.597  16.961   7.745  0.00  0.00     0.103 A 
HETATM   22  C   UNK N   1      32.402  15.820   7.978  0.00  0.00     0.104 A 
BRANCH  21  23
HETATM   23  O   UNK N   1      31.219  17.835   8.711  0.00  0.00    -0.346 OA
BRANCH  23  24
HETATM   24  C   UNK N   1      29.971  18.398   8.809  0.00  0.00     0.201 C 
BRANCH  24  25
HETATM   25  C   UNK N   1      29.204  17.766   9.948  0.00  0.00     0.193 C 
BRANCH  25  26
HETATM   26  O   UNK N   1      27.868  17.630   9.573  0.00  0.00    -0.394 OA
HETATM   27  C   UNK N   1      27.900  17.326   8.212  0.00  0.00     0.201 C 
ENDBRANCH  25  26
ENDBRANCH  24  25
ENDBRANCH  23  24
ENDBRANCH  21  23
BRANCH  22  28
HETATM   28  O   UNK N   1      32.861  15.564   9.225  0.00  0.00    -0.346 OA
BRANCH  28  29
HETATM   29  C   UNK N   1      34.201  15.492   9.490  0.00  0.00     0.201 C 
BRANCH  29  30
HETATM   30  C   UNK N   1      34.851  16.845   9.503  0.00  0.00     0.193 C 
BRANCH  30  31
HETATM   31  O   UNK N   1      35.165  17.109  10.833  0.00  0.00    -0.394 OA
HETATM   32  C   UNK N   1      35.729  15.929  11.309  0.00  0.00     0.201 C 
ENDBRANCH  30  31
ENDBRANCH  29  30
ENDBRANCH  28  29
ENDBRANCH  22  28
ENDBRANCH   9  11
ENDBRANCH   1   9
TORSDOF 10
ENDMDL
MODEL 2
REMARK VINA RESULT:      -6.5      2.478      4.426
REMARK  10 active torsions:
REMARK  status: ('A' for Active; 'I' for Inactive)
REMARK    1  A    between atoms: O_1  and  C_12 
REMARK    2  A    between atoms: O_1  and  C_17 
REMARK    3  A    between atoms: O_2  and  C_13 
REMARK    4  A    between atoms: O_2  and  C_19 
REMARK    5  A    between atoms: O_3  and  C_21 
REMARK    6  A    between atoms: O_4  and  C_22 
REMARK    7  A    between atoms: N_5  and  C_15 
REMARK    8  A    between atoms: N_5  and  C_18 
REMARK    9  A    between atoms: C_17  and  C_21 
REMARK   10  A    between atoms: C_19  and  C_22 
ROOT
HETATM    1  C   UNK N   1      27.301  18.400   4.930  0.00  0.00     0.035 A 
HETATM    2  C   UNK N   1      25.967  18.009   4.822  0.00  0.00     0.050 A 
HETATM    3  C   UNK N   1      27.731  19.590   4.334  0.00  0.00     0.029 A 
HETATM    4  C   UNK N   1      25.045  18.782   4.134  0.00  0.00     0.019 A 
HETATM    5  C   UNK N   1      26.805  20.369   3.619  0.00  0.00     0.004 A 
HETATM    6  C   UNK N   1      25.461  19.970   3.526  0.00  0.00     0.021 A 
HETATM    7  C   UNK N   1      23.672  18.357   4.103  0.00  0.00    -0.078 C 
HETATM    8  C   UNK N   1      22.536  17.952   4.110  0.00  0.00     0.018 C 
ENDROOT
BRANCH   1   9
HETATM    9  N   UNK N   1      28.114  17.577   5.727  0.00  0.00    -0.342 N 
HETATM   10  H   UNK N   1      28.451  16.799   5.228  0.00  0.00     0.167 HD
BRANCH   9  11
HETATM   11  C   UNK N   1      28.573  17.585   7.068  0.00  0.00     0.119 A 
HETATM   12  N   UNK N   1      27.758  17.757   8.147  0.00  0.00    -0.338 N 
HETATM   13  C   UNK N   1      28.294  17.794   9.407  0.00  0.00     0.182 A 
ATOM     14  HN  UNK N   1      26.752  17.858   8.016  1.00  0.00     0.168 HD
HETATM   15  N   UNK N   1      29.646  17.684   9.593  0.00  0.00    -0.351 N 
HETATM   16  C   UNK N   1      30.481  17.518   8.529  0.00  0.00     0.050 A 
ATOM     17  HN  UNK N   1      30.032  17.727  10.536  1.00  0.00     0.166 HD
HETATM   18  C   UNK N   1      29.940  17.447   7.249  0.00  0.00     0.038 A 
HETATM   19  C   UNK N   1      31.875  17.451   8.683  0.00  0.00     0.070 A 
HETATM   20  C   UNK N   1      30.765  17.276   6.139  0.00  0.00     0.057 A 
HETATM   21  C   UNK N   1      32.140  17.212   6.259  0.00  0.00     0.103 A 
HETATM   22  C   UNK N   1      32.720  17.306   7.547  0.00  0.00     0.104 A 
BRANCH  21  23
HETATM   23  O   UNK N   1      32.852  17.113   5.109  0.00  0.00    -0.346 OA
BRANCH  23  24
HETATM   24  C   UNK N   1      32.381  17.459   3.867  0.00  0.00     0.201 C 
BRANCH  24  25
HETATM   25  C   UNK N   1      32.342  16.244   2.969  0.00  0.00     0.193 C 
BRANCH  25  26
HETATM   26  O   UNK N   1      33.635  15.971   2.523  0.00  0.00    -0.394 OA
HETATM   27  C   UNK N   1      33.795  14.595   2.683  0.00  0.00     0.201 C 
ENDBRANCH  25  26
ENDBRANCH  24  25
ENDBRANCH  23  24
ENDBRANCH  21  23
BRANCH  22  28
HETATM   28  O   UNK N   1      34.066  17.274   7.682  0.00  0.00    -0.346 OA
BRANCH  28  29
HETATM   29  C   UNK N   1      34.660  17.315   8.914  0.00  0.00     0.201 C 
BRANCH  29  30
HETATM   30  C   UNK N   1      35.177  15.971   9.341  0.00  0.00     0.193 C 
BRANCH  30  31
HETATM   31  O   UNK N   1      36.148  16.220  10.304  0.00  0.00    -0.394 OA
HETATM   32  C   UNK N   1      35.521  15.966  11.520  0.00  0.00     0.201 C 
ENDBRANCH  30  31
ENDBRANCH  29  30
ENDBRANCH  28  29
ENDBRANCH  22  28
ENDBRANCH   9  11
ENDBRANCH   1   9
TORSDOF 10
ENDMDL
MODEL 3
REMARK VINA RESULT:      -6.4      6.813     10.583
REMARK  10 active torsions:
REMARK  status: ('A' for Active; 'I' for Inactive)
REMARK    1  A    between atoms: O_1  and  C_12 
REMARK    2  A    between atoms: O_1  and  C_17 
REMARK    3  A    between atoms: O_2  and  C_13 
REMARK    4  A    between atoms: O_2  and  C_19 
REMARK    5  A    between atoms: O_3  and  C_21 
REMARK    6  A    between atoms: O_4  and  C_22 
REMARK    7  A    between atoms: N_5  and  C_15 
REMARK    8  A    between atoms: N_5  and  C_18 
REMARK    9  A    between atoms: C_17  and  C_21 
REMARK   10  A    between atoms: C_19  and  C_22 
ROOT
HETATM    1  C   UNK N   1      23.604  13.024   9.034  0.00  0.00     0.035 A 
HETATM    2  C   UNK N   1      22.365  12.839   9.644  0.00  0.00     0.050 A 
HETATM    3  C   UNK N   1      24.778  12.688   9.717  0.00  0.00     0.029 A 
HETATM    4  C   UNK N   1      22.265  12.319  10.925  0.00  0.00     0.019 A 
HETATM    5  C   UNK N   1      24.684  12.177  11.023  0.00  0.00     0.004 A 
HETATM    6  C   UNK N   1      23.428  11.985  11.624  0.00  0.00     0.021 A 
HETATM    7  C   UNK N   1      20.958  12.098  11.482  0.00  0.00    -0.078 C 
HETATM    8  C   UNK N   1      19.838  11.935  11.898  0.00  0.00     0.018 C 
ENDROOT
BRANCH   1   9
HETATM    9  N   UNK N   1      23.568  13.474   7.703  0.00  0.00    -0.342 N 
HETATM   10  H   UNK N   1      22.749  13.184   7.240  0.00  0.00     0.167 HD
BRANCH   9  11
HETATM   11  C   UNK N   1      24.411  14.239   6.860  0.00  0.00     0.119 A 
HETATM   12  N   UNK N   1      25.720  13.944   6.627  0.00  0.00    -0.338 N 
HETATM   13  C   UNK N   1      26.473  14.765   5.830  0.00  0.00     0.182 A 
ATOM     14  HN  UNK N   1      26.138  13.112   7.044  1.00  0.00     0.168 HD
HETATM   15  N   UNK N   1      25.929  15.897   5.283  0.00  0.00    -0.351 N 
HETATM   16  C   UNK N   1      24.624  16.216   5.508  0.00  0.00     0.050 A 
ATOM     17  HN  UNK N   1      26.507  16.506   4.703  1.00  0.00     0.166 HD
HETATM   18  C   UNK N   1      23.845  15.369   6.290  0.00  0.00     0.038 A 
HETATM   19  C   UNK N   1      24.051  17.394   5.002  0.00  0.00     0.070 A 
HETATM   20  C   UNK N   1      22.506  15.665   6.538  0.00  0.00     0.057 A 
HETATM   21  C   UNK N   1      21.916  16.819   6.058  0.00  0.00     0.103 A 
HETATM   22  C   UNK N   1      22.691  17.712   5.279  0.00  0.00     0.104 A 
BRANCH  21  23
HETATM   23  O   UNK N   1      20.627  17.043   6.414  0.00  0.00    -0.346 OA
BRANCH  23  24
HETATM   24  C   UNK N   1      19.689  16.060   6.607  0.00  0.00     0.201 C 
BRANCH  24  25
HETATM   25  C   UNK N   1      18.951  15.785   5.317  0.00  0.00     0.193 C 
BRANCH  25  26
HETATM   26  O   UNK N   1      18.784  14.408   5.176  0.00  0.00    -0.394 OA
HETATM   27  C   UNK N   1      19.268  14.109   3.903  0.00  0.00     0.201 C 
ENDBRANCH  25  26
ENDBRANCH  24  25
ENDBRANCH  23  24
ENDBRANCH  21  23
BRANCH  22  28
HETATM   28  O   UNK N   1      22.140  18.860   4.825  0.00  0.00    -0.346 OA
BRANCH  28  29
HETATM   29  C   UNK N   1      22.016  19.110   3.485  0.00  0.00     0.201 C 
BRANCH  29  30
HETATM   30  C   UNK N   1      22.903  20.233   3.031  0.00  0.00     0.193 C 
BRANCH  30  31
HETATM   31  O   UNK N   1      22.053  21.267   2.653  0.00  0.00    -0.394 OA
HETATM   32  C   UNK N   1      20.942  20.635   2.103  0.00  0.00     0.201 C 
ENDBRANCH  30  31
ENDBRANCH  29  30
ENDBRANCH  28  29
ENDBRANCH  22  28
ENDBRANCH   9  11
ENDBRANCH   1   9
TORSDOF 10
ENDMDL
MODEL 4
REMARK VINA RESULT:      -6.3      8.926     11.506
REMARK  10 active torsions:
REMARK  status: ('A' for Active; 'I' for Inactive)
REMARK    1  A    between atoms: O_1  and  C_12 
REMARK    2  A    between atoms: O_1  and  C_17 
REMARK    3  A    between atoms: O_2  and  C_13 
REMARK    4  A    between atoms: O_2  and  C_19 
REMARK    5  A    between atoms: O_3  and  C_21 
REMARK    6  A    between atoms: O_4  and  C_22 
REMARK    7  A    between atoms: N_5  and  C_15 
REMARK    8  A    between atoms: N_5  and  C_18 
REMARK    9  A    between atoms: C_17  and  C_21 
REMARK   10  A    between atoms: C_19  and  C_22 
ROOT
HETATM    1  C   UNK N   1      21.757  12.960   8.544  0.00  0.00     0.035 A 
HETATM    2  C   UNK N   1      21.967  12.891   9.921  0.00  0.00     0.050 A 
HETATM    3  C   UNK N   1      22.525  12.174   7.679  0.00  0.00     0.029 A 
HETATM    4  C   UNK N   1      22.928  12.049  10.460  0.00  0.00     0.019 A 
HETATM    5  C   UNK N   1      23.513  11.333   8.218  0.00  0.00     0.004 A 
HETATM    6  C   UNK N   1      23.709  11.264   9.608  0.00  0.00     0.021 A 
HETATM    7  C   UNK N   1      23.061  11.978  11.889  0.00  0.00    -0.078 C 
HETATM    8  C   UNK N   1      23.129  11.959  13.093  0.00  0.00     0.018 C 
ENDROOT
BRANCH   1   9
HETATM    9  N   UNK N   1      20.696  13.783   8.130  0.00  0.00    -0.342 N 
HETATM   10  H   UNK N   1      20.015  13.280   7.629  0.00  0.00     0.167 HD
BRANCH   9  11
HETATM   11  C   UNK N   1      20.358  15.153   8.253  0.00  0.00     0.119 A 
HETATM   12  N   UNK N   1      19.423  15.629   9.122  0.00  0.00    -0.338 N 
HETATM   13  C   UNK N   1      19.129  16.967   9.143  0.00  0.00     0.182 A 
ATOM     14  HN  UNK N   1      18.943  14.990   9.756  1.00  0.00     0.168 HD
HETATM   15  N   UNK N   1      19.749  17.830   8.280  0.00  0.00    -0.351 N 
HETATM   16  C   UNK N   1      20.683  17.377   7.397  0.00  0.00     0.050 A 
ATOM     17  HN  UNK N   1      19.510  18.822   8.298  1.00  0.00     0.166 HD
HETATM   18  C   UNK N   1      21.010  16.024   7.393  0.00  0.00     0.038 A 
HETATM   19  C   UNK N   1      21.301  18.229   6.467  0.00  0.00     0.070 A 
HETATM   20  C   UNK N   1      21.961  15.527   6.505  0.00  0.00     0.057 A 
HETATM   21  C   UNK N   1      22.582  16.340   5.576  0.00  0.00     0.103 A 
HETATM   22  C   UNK N   1      22.252  17.716   5.540  0.00  0.00     0.104 A 
BRANCH  21  23
HETATM   23  O   UNK N   1      23.442  15.741   4.714  0.00  0.00    -0.346 OA
BRANCH  23  24
HETATM   24  C   UNK N   1      23.202  14.551   4.074  0.00  0.00     0.201 C 
BRANCH  24  25
HETATM   25  C   UNK N   1      22.759  14.807   2.652  0.00  0.00     0.193 C 
BRANCH  25  26
HETATM   26  O   UNK N   1      23.060  13.687   1.876  0.00  0.00    -0.394 OA
HETATM   27  C   UNK N   1      23.697  14.189   0.742  0.00  0.00     0.201 C 
ENDBRANCH  25  26
ENDBRANCH  24  25
ENDBRANCH  23  24
ENDBRANCH  21  23
BRANCH  22  28
HETATM   28  O   UNK N   1      22.827  18.522   4.618  0.00  0.00    -0.346 OA
BRANCH  28  29
HETATM   29  C   UNK N   1      22.260  18.714   3.387  0.00  0.00     0.201 C 
BRANCH  29  30
HETATM   30  C   UNK N   1      22.183  20.167   3.018  0.00  0.00     0.193 C 
BRANCH  30  31
HETATM   31  O   UNK N   1      20.949  20.617   3.477  0.00  0.00    -0.394 OA
HETATM   32  C   UNK N   1      20.022  19.724   2.948  0.00  0.00     0.201 C 
ENDBRANCH  30  31
ENDBRANCH  29  30
ENDBRANCH  28  29
ENDBRANCH  22  28
ENDBRANCH   9  11
ENDBRANCH   1   9
TORSDOF 10
ENDMDL
MODEL 5
REMARK VINA RESULT:      -6.2      4.979      9.709
REMARK  10 active torsions:
REMARK  status: ('A' for Active; 'I' for Inactive)
REMARK    1  A    between atoms: O_1  and  C_12 
REMARK    2  A    between atoms: O_1  and  C_17 
REMARK    3  A    between atoms: O_2  and  C_13 
REMARK    4  A    between atoms: O_2  and  C_19 
REMARK    5  A    between atoms: O_3  and  C_21 
REMARK    6  A    between atoms: O_4  and  C_22 
REMARK    7  A    between atoms: N_5  and  C_15 
REMARK    8  A    between atoms: N_5  and  C_18 
REMARK    9  A    between atoms: C_17  and  C_21 
REMARK   10  A    between atoms: C_19  and  C_22 
ROOT
HETATM    1  C   UNK N   1      35.193  12.400  13.110  0.00  0.00     0.035 A 
HETATM    2  C   UNK N   1      35.366  12.962  14.374  0.00  0.00     0.050 A 
HETATM    3  C   UNK N   1      34.461  11.216  12.966  0.00  0.00     0.029 A 
HETATM    4  C   UNK N   1      34.821  12.372  15.504  0.00  0.00     0.019 A 
HETATM    5  C   UNK N   1      33.922  10.604  14.110  0.00  0.00     0.004 A 
HETATM    6  C   UNK N   1      34.094  11.186  15.377  0.00  0.00     0.021 A 
HETATM    7  C   UNK N   1      34.984  13.027  16.773  0.00  0.00    -0.078 C 
HETATM    8  C   UNK N   1      35.153  13.620  17.810  0.00  0.00     0.018 C 
ENDROOT
BRANCH   1   9
HETATM    9  N   UNK N   1      35.717  13.139  12.037  0.00  0.00    -0.342 N 
HETATM   10  H   UNK N   1      36.476  12.680  11.611  0.00  0.00     0.167 HD
BRANCH   9  11
HETATM   11  C   UNK N   1      35.430  14.378  11.413  0.00  0.00     0.119 A 
HETATM   12  N   UNK N   1      35.892  15.579  11.863  0.00  0.00    -0.338 N 
HETATM   13  C   UNK N   1      35.529  16.733  11.222  0.00  0.00     0.182 A 
ATOM     14  HN  UNK N   1      36.509  15.617  12.675  1.00  0.00     0.168 HD
HETATM   15  N   UNK N   1      34.682  16.696  10.145  0.00  0.00    -0.351 N 
HETATM   16  C   UNK N   1      34.202  15.508   9.682  0.00  0.00     0.050 A 
ATOM     17  HN  UNK N   1      34.410  17.566   9.686  1.00  0.00     0.166 HD
HETATM   18  C   UNK N   1      34.594  14.329  10.309  0.00  0.00     0.038 A 
HETATM   19  C   UNK N   1      33.295  15.442   8.612  0.00  0.00     0.070 A 
HETATM   20  C   UNK N   1      34.122  13.097   9.860  0.00  0.00     0.057 A 
HETATM   21  C   UNK N   1      33.226  13.000   8.813  0.00  0.00     0.103 A 
HETATM   22  C   UNK N   1      32.791  14.185   8.171  0.00  0.00     0.104 A 
BRANCH  21  23
HETATM   23  O   UNK N   1      32.780  11.758   8.501  0.00  0.00    -0.346 OA
BRANCH  23  24
HETATM   24  C   UNK N   1      32.991  10.638   9.265  0.00  0.00     0.201 C 
BRANCH  24  25
HETATM   25  C   UNK N   1      32.472   9.414   8.547  0.00  0.00     0.193 C 
BRANCH  25  26
HETATM   26  O   UNK N   1      31.114   9.266   8.831  0.00  0.00    -0.394 OA
HETATM   27  C   UNK N   1      30.919   7.893   8.980  0.00  0.00     0.201 C 
ENDBRANCH  25  26
ENDBRANCH  24  25
ENDBRANCH  23  24
ENDBRANCH  21  23
BRANCH  22  28
HETATM   28  O   UNK N   1      31.891  14.113   7.164  0.00  0.00    -0.346 OA
BRANCH  28  29
HETATM   29  C   UNK N   1      32.000  14.906   6.054  0.00  0.00     0.201 C 
BRANCH  29  30
HETATM   30  C   UNK N   1      32.877  14.293   5.000  0.00  0.00     0.193 C 
BRANCH  30  31
HETATM   31  O   UNK N   1      33.715  15.311   4.557  0.00  0.00    -0.394 OA
HETATM   32  C   UNK N   1      33.101  16.488   4.972  0.00  0.00     0.201 C 
ENDBRANCH  30  31
ENDBRANCH  29  30
ENDBRANCH  28  29
ENDBRANCH  22  28
ENDBRANCH   9  11
ENDBRANCH   1   9
TORSDOF 10
ENDMDL
MODEL 6
REMARK VINA RESULT:      -6.1     12.908     15.227
REMARK  10 active torsions:
REMARK  status: ('A' for Active; 'I' for Inactive)
REMARK    1  A    between atoms: O_1  and  C_12 
REMARK    2  A    between atoms: O_1  and  C_17 
REMARK    3  A    between atoms: O_2  and  C_13 
REMARK    4  A    between atoms: O_2  and  C_19 
REMARK    5  A    between atoms: O_3  and  C_21 
REMARK    6  A    between atoms: O_4  and  C_22 
REMARK    7  A    between atoms: N_5  and  C_15 
REMARK    8  A    between atoms: N_5  and  C_18 
REMARK    9  A    between atoms: C_17  and  C_21 
REMARK   10  A    between atoms: C_19  and  C_22 
ROOT
HETATM    1  C   UNK N   1      26.804  26.175  -4.955  0.00  0.00     0.035 A 
HETATM    2  C   UNK N   1      27.609  27.047  -5.687  0.00  0.00     0.050 A 
HETATM    3  C   UNK N   1      25.847  26.683  -4.070  0.00  0.00     0.029 A 
HETATM    4  C   UNK N   1      27.480  28.421  -5.561  0.00  0.00     0.019 A 
HETATM    5  C   UNK N   1      25.724  28.076  -3.925  0.00  0.00     0.004 A 
HETATM    6  C   UNK N   1      26.534  28.944  -4.676  0.00  0.00     0.021 A 
HETATM    7  C   UNK N   1      28.298  29.271  -6.383  0.00  0.00    -0.078 C 
HETATM    8  C   UNK N   1      29.010  29.934  -7.096  0.00  0.00     0.018 C 
ENDROOT
BRANCH   1   9
HETATM    9  N   UNK N   1      26.971  24.809  -5.237  0.00  0.00    -0.342 N 
HETATM   10  H   UNK N   1      27.351  24.319  -4.473  0.00  0.00     0.167 HD
BRANCH   9  11
HETATM   11  C   UNK N   1      26.731  23.958  -6.344  0.00  0.00     0.119 A 
HETATM   12  N   UNK N   1      25.643  24.061  -7.157  0.00  0.00    -0.338 N 
HETATM   13  C   UNK N   1      25.469  23.167  -8.180  0.00  0.00     0.182 A 
ATOM     14  HN  UNK N   1      24.959  24.803  -7.005  1.00  0.00     0.168 HD
HETATM   15  N   UNK N   1      26.367  22.152  -8.380  0.00  0.00    -0.351 N 
HETATM   16  C   UNK N   1      27.459  22.026  -7.576  0.00  0.00     0.050 A 
ATOM     17  HN  UNK N   1      26.217  21.486  -9.138  1.00  0.00     0.166 HD
HETATM   18  C   UNK N   1      27.659  22.950  -6.555  0.00  0.00     0.038 A 
HETATM   19  C   UNK N   1      28.371  20.968  -7.724  0.00  0.00     0.070 A 
HETATM   20  C   UNK N   1      28.766  22.850  -5.715  0.00  0.00     0.057 A 
HETATM   21  C   UNK N   1      29.678  21.819  -5.834  0.00  0.00     0.103 A 
HETATM   22  C   UNK N   1      29.487  20.850  -6.848  0.00  0.00     0.104 A 
BRANCH  21  23
HETATM   23  O   UNK N   1      30.681  21.779  -4.922  0.00  0.00    -0.346 OA
BRANCH  23  24
HETATM   24  C   UNK N   1      30.502  21.606  -3.572  0.00  0.00     0.201 C 
BRANCH  24  25
HETATM   25  C   UNK N   1      31.187  22.718  -2.811  0.00  0.00     0.193 C 
BRANCH  25  26
HETATM   26  O   UNK N   1      30.499  22.940  -1.619  0.00  0.00    -0.394 OA
HETATM   27  C   UNK N   1      29.153  23.003  -1.980  0.00  0.00     0.201 C 
ENDBRANCH  25  26
ENDBRANCH  24  25
ENDBRANCH  23  24
ENDBRANCH  21  23
BRANCH  22  28
HETATM   28  O   UNK N   1      30.353  19.816  -6.962  0.00  0.00    -0.346 OA
BRANCH  28  29
HETATM   29  C   UNK N   1      31.014  19.566  -8.133  0.00  0.00     0.201 C 
BRANCH  29  30
HETATM   30  C   UNK N   1      32.120  20.551  -8.383  0.00  0.00     0.193 C 
BRANCH  30  31
HETATM   31  O   UNK N   1      32.357  20.526  -9.753  0.00  0.00    -0.394 OA
HETATM   32  C   UNK N   1      31.123  20.232 -10.326  0.00  0.00     0.201 C 
ENDBRANCH  30  31
ENDBRANCH  29  30
ENDBRANCH  28  29
ENDBRANCH  22  28
ENDBRANCH   9  11
ENDBRANCH   1   9
TORSDOF 10
ENDMDL
MODEL 7
REMARK VINA RESULT:      -6.0     12.656     14.696
REMARK  10 active torsions:
REMARK  status: ('A' for Active; 'I' for Inactive)
REMARK    1  A    between atoms: O_1  and  C_12 
REMARK    2  A    between atoms: O_1  and  C_17 
REMARK    3  A    between atoms: O_2  and  C_13 
REMARK    4  A    between atoms: O_2  and  C_19 
REMARK    5  A    between atoms: O_3  and  C_21 
REMARK    6  A    between atoms: O_4  and  C_22 
REMARK    7  A    between atoms: N_5  and  C_15 
REMARK    8  A    between atoms: N_5  and  C_18 
REMARK    9  A    between atoms: C_17  and  C_21 
REMARK   10  A    between atoms: C_19  and  C_22 
ROOT
HETATM    1  C   UNK N   1      27.220  26.746  -6.163  0.00  0.00     0.035 A 
HETATM    2  C   UNK N   1      26.839  27.717  -5.238  0.00  0.00     0.050 A 
HETATM    3  C   UNK N   1      28.011  27.098  -7.262  0.00  0.00     0.029 A 
HETATM    4  C   UNK N   1      27.233  29.039  -5.380  0.00  0.00     0.019 A 
HETATM    5  C   UNK N   1      28.398  28.440  -7.421  0.00  0.00     0.004 A 
HETATM    6  C   UNK N   1      28.017  29.408  -6.476  0.00  0.00     0.021 A 
HETATM    7  C   UNK N   1      26.857  29.985  -4.366  0.00  0.00    -0.078 C 
HETATM    8  C   UNK N   1      26.513  30.734  -3.485  0.00  0.00     0.018 C 
ENDROOT
BRANCH   1   9
HETATM    9  N   UNK N   1      26.832  25.430  -5.860  0.00  0.00    -0.342 N 
HETATM   10  H   UNK N   1      26.561  25.334  -4.919  0.00  0.00     0.167 HD
BRANCH   9  11
HETATM   11  C   UNK N   1      26.730  24.206  -6.567  0.00  0.00     0.119 A 
HETATM   12  N   UNK N   1      25.597  23.785  -7.196  0.00  0.00    -0.338 N 
HETATM   13  C   UNK N   1      25.576  22.567  -7.820  0.00  0.00     0.182 A 
ATOM     14  HN  UNK N   1      24.766  24.377  -7.202  1.00  0.00     0.168 HD
HETATM   15  N   UNK N   1      26.677  21.753  -7.799  0.00  0.00    -0.351 N 
HETATM   16  C   UNK N   1      27.819  22.150  -7.171  0.00  0.00     0.050 A 
ATOM     17  HN  UNK N   1      26.642  20.842  -8.257  1.00  0.00     0.166 HD
HETATM   18  C   UNK N   1      27.858  23.401  -6.563  0.00  0.00     0.038 A 
HETATM   19  C   UNK N   1      28.948  21.318  -7.090  0.00  0.00     0.070 A 
HETATM   20  C   UNK N   1      29.011  23.838  -5.914  0.00  0.00     0.057 A 
HETATM   21  C   UNK N   1      30.135  23.041  -5.814  0.00  0.00     0.103 A 
HETATM   22  C   UNK N   1      30.117  21.753  -6.402  0.00  0.00     0.104 A 
BRANCH  21  23
HETATM   23  O   UNK N   1      31.178  23.537  -5.103  0.00  0.00    -0.346 OA
BRANCH  23  24
HETATM   24  C   UNK N   1      31.108  23.936  -3.791  0.00  0.00     0.201 C 
BRANCH  24  25
HETATM   25  C   UNK N   1      31.140  22.730  -2.880  0.00  0.00     0.193 C 
BRANCH  25  26
HETATM   26  O   UNK N   1      30.551  23.069  -1.662  0.00  0.00    -0.394 OA
HETATM   27  C   UNK N   1      29.177  22.997  -1.888  0.00  0.00     0.201 C 
ENDBRANCH  25  26
ENDBRANCH  24  25
ENDBRANCH  23  24
ENDBRANCH  21  23
BRANCH  22  28
HETATM   28  O   UNK N   1      31.197  20.947  -6.290  0.00  0.00    -0.346 OA
BRANCH  28  29
HETATM   29  C   UNK N   1      31.303  20.036  -5.274  0.00  0.00     0.201 C 
BRANCH  29  30
HETATM   30  C   UNK N   1      32.688  19.988  -4.696  0.00  0.00     0.193 C 
BRANCH  30  31
HETATM   31  O   UNK N   1      33.446  20.891  -5.435  0.00  0.00    -0.394 OA
HETATM   32  C   UNK N   1      34.290  21.494  -4.508  0.00  0.00     0.201 C 
ENDBRANCH  30  31
ENDBRANCH  29  30
ENDBRANCH  28  29
ENDBRANCH  22  28
ENDBRANCH   9  11
ENDBRANCH   1   9
TORSDOF 10
ENDMDL
MODEL 8
REMARK VINA RESULT:      -5.9      6.644     10.264
REMARK  10 active torsions:
REMARK  status: ('A' for Active; 'I' for Inactive)
REMARK    1  A    between atoms: O_1  and  C_12 
REMARK    2  A    between atoms: O_1  and  C_17 
REMARK    3  A    between atoms: O_2  and  C_13 
REMARK    4  A    between atoms: O_2  and  C_19 
REMARK    5  A    between atoms: O_3  and  C_21 
REMARK    6  A    between atoms: O_4  and  C_22 
REMARK    7  A    between atoms: N_5  and  C_15 
REMARK    8  A    between atoms: N_5  and  C_18 
REMARK    9  A    between atoms: C_17  and  C_21 
REMARK   10  A    between atoms: C_19  and  C_22 
ROOT
HETATM    1  C   UNK N   1      24.786  13.158   8.030  0.00  0.00     0.035 A 
HETATM    2  C   UNK N   1      24.492  13.049   9.389  0.00  0.00     0.050 A 
HETATM    3  C   UNK N   1      24.348  12.173   7.138  0.00  0.00     0.029 A 
HETATM    4  C   UNK N   1      23.763  11.978   9.882  0.00  0.00     0.019 A 
HETATM    5  C   UNK N   1      23.624  11.076   7.635  0.00  0.00     0.004 A 
HETATM    6  C   UNK N   1      23.324  10.983   9.005  0.00  0.00     0.021 A 
HETATM    7  C   UNK N   1      23.441  11.947  11.283  0.00  0.00    -0.078 C 
HETATM    8  C   UNK N   1      23.201  11.974  12.465  0.00  0.00     0.018 C 
ENDROOT
BRANCH   1   9
HETATM    9  N   UNK N   1      25.454  14.332   7.644  0.00  0.00    -0.342 N 
HETATM   10  H   UNK N   1      25.895  14.772   8.405  0.00  0.00     0.167 HD
BRANCH   9  11
HETATM   11  C   UNK N   1      25.652  15.043   6.434  0.00  0.00     0.119 A 
HETATM   12  N   UNK N   1      26.842  15.098   5.773  0.00  0.00    -0.338 N 
HETATM   13  C   UNK N   1      26.955  15.846   4.632  0.00  0.00     0.182 A 
ATOM     14  HN  UNK N   1      27.648  14.582   6.128  1.00  0.00     0.168 HD
HETATM   15  N   UNK N   1      25.887  16.562   4.159  0.00  0.00    -0.351 N 
HETATM   16  C   UNK N   1      24.689  16.528   4.807  0.00  0.00     0.050 A 
ATOM     17  HN  UNK N   1      25.990  17.126   3.315  1.00  0.00     0.166 HD
HETATM   18  C   UNK N   1      24.559  15.744   5.949  0.00  0.00     0.038 A 
HETATM   19  C   UNK N   1      23.591  17.289   4.375  0.00  0.00     0.070 A 
HETATM   20  C   UNK N   1      23.347  15.686   6.635  0.00  0.00     0.057 A 
HETATM   21  C   UNK N   1      22.251  16.427   6.237  0.00  0.00     0.103 A 
HETATM   22  C   UNK N   1      22.361  17.252   5.092  0.00  0.00     0.104 A 
BRANCH  21  23
HETATM   23  O   UNK N   1      21.143  16.348   7.014  0.00  0.00    -0.346 OA
BRANCH  23  24
HETATM   24  C   UNK N   1      21.051  15.614   8.171  0.00  0.00     0.201 C 
BRANCH  24  25
HETATM   25  C   UNK N   1      19.678  15.774   8.780  0.00  0.00     0.193 C 
BRANCH  25  26
HETATM   26  O   UNK N   1      19.355  14.611   9.479  0.00  0.00    -0.394 OA
HETATM   27  C   UNK N   1      20.578  14.000   9.755  0.00  0.00     0.201 C 
ENDBRANCH  25  26
ENDBRANCH  24  25
ENDBRANCH  23  24
ENDBRANCH  21  23
BRANCH  22  28
HETATM   28  O   UNK N   1      21.308  18.007   4.704  0.00  0.00    -0.346 OA
BRANCH  28  29
HETATM   29  C   UNK N   1      21.093  18.307   3.386  0.00  0.00     0.201 C 
BRANCH  29  30
HETATM   30  C   UNK N   1      20.364  17.210   2.665  0.00  0.00     0.193 C 
BRANCH  30  31
HETATM   31  O   UNK N   1      19.853  17.784   1.506  0.00  0.00    -0.394 OA
HETATM   32  C   UNK N   1      20.047  16.826   0.515  0.00  0.00     0.201 C 
ENDBRANCH  30  31
ENDBRANCH  29  30
ENDBRANCH  28  29
ENDBRANCH  22  28
ENDBRANCH   9  11
ENDBRANCH   1   9
TORSDOF 10
ENDMDL
MODEL 9
REMARK VINA RESULT:      -5.9      1.476      2.563
REMARK  10 active torsions:
REMARK  status: ('A' for Active; 'I' for Inactive)
REMARK    1  A    between atoms: O_1  and  C_12 
REMARK    2  A    between atoms: O_1  and  C_17 
REMARK    3  A    between atoms: O_2  and  C_13 
REMARK    4  A    between atoms: O_2  and  C_19 
REMARK    5  A    between atoms: O_3  and  C_21 
REMARK    6  A    between atoms: O_4  and  C_22 
REMARK    7  A    between atoms: N_5  and  C_15 
REMARK    8  A    between atoms: N_5  and  C_18 
REMARK    9  A    between atoms: C_17  and  C_21 
REMARK   10  A    between atoms: C_19  and  C_22 
ROOT
HETATM    1  C   UNK N   1      28.554  17.965   4.139  0.00  0.00     0.035 A 
HETATM    2  C   UNK N   1      28.250  16.749   3.526  0.00  0.00     0.050 A 
HETATM    3  C   UNK N   1      27.533  18.877   4.425  0.00  0.00     0.029 A 
HETATM    4  C   UNK N   1      26.946  16.417   3.195  0.00  0.00     0.019 A 
HETATM    5  C   UNK N   1      26.211  18.554   4.074  0.00  0.00     0.004 A 
HETATM    6  C   UNK N   1      25.916  17.321   3.467  0.00  0.00     0.021 A 
HETATM    7  C   UNK N   1      26.687  15.127   2.617  0.00  0.00    -0.078 C 
HETATM    8  C   UNK N   1      26.529  14.032   2.135  0.00  0.00     0.018 C 
ENDROOT
BRANCH   1   9
HETATM    9  N   UNK N   1      29.898  18.145   4.504  0.00  0.00    -0.342 N 
HETATM   10  H   UNK N   1      30.025  18.951   5.054  0.00  0.00     0.167 HD
BRANCH   9  11
HETATM   11  C   UNK N   1      31.117  17.458   4.283  0.00  0.00     0.119 A 
HETATM   12  N   UNK N   1      31.665  17.264   3.050  0.00  0.00    -0.338 N 
HETATM   13  C   UNK N   1      32.827  16.550   2.925  0.00  0.00     0.182 A 
ATOM     14  HN  UNK N   1      31.211  17.650   2.222  1.00  0.00     0.168 HD
HETATM   15  N   UNK N   1      33.434  16.007   4.026  0.00  0.00    -0.351 N 
HETATM   16  C   UNK N   1      32.902  16.182   5.267  0.00  0.00     0.050 A 
ATOM     17  HN  UNK N   1      34.292  15.466   3.915  1.00  0.00     0.166 HD
HETATM   18  C   UNK N   1      31.738  16.934   5.405  0.00  0.00     0.038 A 
HETATM   19  C   UNK N   1      33.473  15.597   6.409  0.00  0.00     0.070 A 
HETATM   20  C   UNK N   1      31.168  17.134   6.661  0.00  0.00     0.057 A 
HETATM   21  C   UNK N   1      31.705  16.567   7.801  0.00  0.00     0.103 A 
HETATM   22  C   UNK N   1      32.875  15.777   7.689  0.00  0.00     0.104 A 
BRANCH  21  23
HETATM   23  O   UNK N   1      31.033  16.770   8.962  0.00  0.00    -0.346 OA
BRANCH  23  24
HETATM   24  C   UNK N   1      30.110  17.766   9.165  0.00  0.00     0.201 C 
BRANCH  24  25
HETATM   25  C   UNK N   1      28.958  17.245   9.993  0.00  0.00     0.193 C 
BRANCH  25  26
HETATM   26  O   UNK N   1      27.760  17.649   9.404  0.00  0.00    -0.394 OA
HETATM   27  C   UNK N   1      28.115  18.661   8.511  0.00  0.00     0.201 C 
ENDBRANCH  25  26
ENDBRANCH  24  25
ENDBRANCH  23  24
ENDBRANCH  21  23
BRANCH  22  28
HETATM   28  O   UNK N   1      33.398  15.190   8.789  0.00  0.00    -0.346 OA
BRANCH  28  29
HETATM   29  C   UNK N   1      34.480  14.357   8.705  0.00  0.00     0.201 C 
BRANCH  29  30
HETATM   30  C   UNK N   1      34.797  13.703  10.019  0.00  0.00     0.193 C 
BRANCH  30  31
HETATM   31  O   UNK N   1      34.277  14.539  11.002  0.00  0.00    -0.394 OA
HETATM   32  C   UNK N   1      35.251  14.577  11.995  0.00  0.00     0.201 C 
ENDBRANCH  30  31
ENDBRANCH  29  30
ENDBRANCH  28  29
ENDBRANCH  22  28
ENDBRANCH   9  11
ENDBRANCH   1   9
TORSDOF 10
ENDMDL
