MODEL 1
REMARK VINA RESULT:      -4.7      0.000      0.000
REMARK  5 active torsions:
REMARK  status: ('A' for Active; 'I' for Inactive)
REMARK    1  A    between atoms: P_3  and  N_6 
REMARK    2  A    between atoms: N_6  and  C_11 
REMARK    3  A    between atoms: N_6  and  C_12 
REMARK    4  A    between atoms: C_11  and  C_13 
REMARK    5  A    between atoms: C_12  and  C_14 
ROOT
HETATM    1  P   UNK N   1      34.679  16.662   8.761  0.00  0.00     0.365 P 
HETATM    2  O   UNK N   1      35.166  17.188  10.357  0.00  0.00    -0.307 OA
HETATM    3  O   UNK N   1      34.583  18.211   8.840  0.00  0.00    -0.248 OA
HETATM    4  N   UNK N   1      33.400  16.047   9.898  0.00  0.00    -0.338 N 
HETATM    5  C   UNK N   1      33.892  14.802  10.487  0.00  0.00     0.126 C 
HETATM    6  C   UNK N   1      34.990  15.118  11.497  0.00  0.00     0.046 C 
HETATM    7  C   UNK N   1      35.936  16.139  10.882  0.00  0.00     0.180 C 
HETATM    8  H   UNK N   1      32.502  16.490  10.091  0.00  0.00     0.164 HD
ENDROOT
BRANCH   1   9
HETATM    9  N   UNK N   1      33.157  16.967   7.787  0.00  0.00    -0.221 NA
BRANCH   9  10
HETATM   10  C   UNK N   1      33.523  17.626   6.535  0.00  0.00     0.116 C 
BRANCH  10  11
HETATM   11  C   UNK N   1      33.435  16.638   5.388  0.00  0.00     0.129 C 
HETATM   12 Cl   UNK N   1      32.809  17.458   3.941  0.00  0.00    -0.129 Cl
ENDBRANCH  10  11
ENDBRANCH   9  10
BRANCH   9  13
HETATM   13  C   UNK N   1      32.352  17.984   8.468  0.00  0.00     0.116 C 
BRANCH  13  14
HETATM   14  C   UNK N   1      30.874  17.722   8.248  0.00  0.00     0.129 C 
HETATM   15 Cl   UNK N   1      29.938  18.630   9.456  0.00  0.00    -0.129 Cl
ENDBRANCH  13  14
ENDBRANCH   9  13
ENDBRANCH   1   9
TORSDOF 5
ENDMDL
MODEL 2
REMARK VINA RESULT:      -4.5     12.999     13.915
REMARK  5 active torsions:
REMARK  status: ('A' for Active; 'I' for Inactive)
REMARK    1  A    between atoms: P_3  and  N_6 
REMARK    2  A    between atoms: N_6  and  C_11 
REMARK    3  A    between atoms: N_6  and  C_12 
REMARK    4  A    between atoms: C_11  and  C_13 
REMARK    5  A    between atoms: C_12  and  C_14 
ROOT
HETATM    1  P   UNK N   1      31.751  22.185  -3.475  0.00  0.00     0.365 P 
HETATM    2  O   UNK N   1      32.693  21.277  -2.313  0.00  0.00    -0.307 OA
HETATM    3  O   UNK N   1      31.207  22.463  -2.047  0.00  0.00    -0.248 OA
HETATM    4  N   UNK N   1      31.380  20.432  -3.792  0.00  0.00    -0.338 N 
HETATM    5  C   UNK N   1      32.453  19.896  -4.629  0.00  0.00     0.126 C 
HETATM    6  C   UNK N   1      33.716  19.733  -3.791  0.00  0.00     0.046 C 
HETATM    7  C   UNK N   1      33.908  20.988  -2.953  0.00  0.00     0.180 C 
HETATM    8  H   UNK N   1      30.570  19.917  -3.449  0.00  0.00     0.164 HD
ENDROOT
BRANCH   1   9
HETATM    9  N   UNK N   1      29.949  22.253  -3.797  0.00  0.00    -0.221 NA
BRANCH   9  10
HETATM   10  C   UNK N   1      29.724  22.927  -5.074  0.00  0.00     0.116 C 
BRANCH  10  11
HETATM   11  C   UNK N   1      29.356  21.908  -6.136  0.00  0.00     0.129 C 
HETATM   12 Cl   UNK N   1      27.801  22.351  -6.873  0.00  0.00    -0.129 Cl
ENDBRANCH  10  11
ENDBRANCH   9  10
BRANCH   9  13
HETATM   13  C   UNK N   1      29.328  23.165  -2.833  0.00  0.00     0.116 C 
BRANCH  13  14
HETATM   14  C   UNK N   1      28.639  24.307  -3.556  0.00  0.00     0.129 C 
HETATM   15 Cl   UNK N   1      26.881  24.159  -3.334  0.00  0.00    -0.129 Cl
ENDBRANCH  13  14
ENDBRANCH   9  13
ENDBRANCH   1   9
TORSDOF 5
ENDMDL
MODEL 3
REMARK VINA RESULT:      -4.4      0.724      2.815
REMARK  5 active torsions:
REMARK  status: ('A' for Active; 'I' for Inactive)
REMARK    1  A    between atoms: P_3  and  N_6 
REMARK    2  A    between atoms: N_6  and  C_11 
REMARK    3  A    between atoms: N_6  and  C_12 
REMARK    4  A    between atoms: C_11  and  C_13 
REMARK    5  A    between atoms: C_12  and  C_14 
ROOT
HETATM    1  P   UNK N   1      34.611  16.861   8.542  0.00  0.00     0.365 P 
HETATM    2  O   UNK N   1      35.185  17.357  10.119  0.00  0.00    -0.307 OA
HETATM    3  O   UNK N   1      34.610  18.412   8.622  0.00  0.00    -0.248 OA
HETATM    4  N   UNK N   1      33.340  16.323   9.727  0.00  0.00    -0.338 N 
HETATM    5  C   UNK N   1      33.778  15.051  10.300  0.00  0.00     0.126 C 
HETATM    6  C   UNK N   1      34.929  15.301  11.269  0.00  0.00     0.046 C 
HETATM    7  C   UNK N   1      35.910  16.264  10.618  0.00  0.00     0.180 C 
HETATM    8  H   UNK N   1      32.477  16.819   9.951  0.00  0.00     0.164 HD
ENDROOT
BRANCH   1   9
HETATM    9  N   UNK N   1      33.076  17.256   7.624  0.00  0.00    -0.221 NA
BRANCH   9  10
HETATM   10  C   UNK N   1      32.029  17.605   8.583  0.00  0.00     0.116 C 
BRANCH  10  11
HETATM   11  C   UNK N   1      30.679  17.613   7.893  0.00  0.00     0.129 C 
HETATM   12 Cl   UNK N   1      29.560  18.666   8.785  0.00  0.00    -0.129 Cl
ENDBRANCH  10  11
ENDBRANCH   9  10
BRANCH   9  13
HETATM   13  C   UNK N   1      32.559  16.030   7.011  0.00  0.00     0.116 C 
BRANCH  13  14
HETATM   14  C   UNK N   1      33.005  15.934   5.564  0.00  0.00     0.129 C 
HETATM   15 Cl   UNK N   1      33.208  17.575   4.910  0.00  0.00    -0.129 Cl
ENDBRANCH  13  14
ENDBRANCH   9  13
ENDBRANCH   1   9
TORSDOF 5
ENDMDL
MODEL 4
REMARK VINA RESULT:      -4.3     13.124     14.131
REMARK  5 active torsions:
REMARK  status: ('A' for Active; 'I' for Inactive)
REMARK    1  A    between atoms: P_3  and  N_6 
REMARK    2  A    between atoms: N_6  and  C_11 
REMARK    3  A    between atoms: N_6  and  C_12 
REMARK    4  A    between atoms: C_11  and  C_13 
REMARK    5  A    between atoms: C_12  and  C_14 
ROOT
HETATM    1  P   UNK N   1      31.450  21.701  -3.227  0.00  0.00     0.365 P 
HETATM    2  O   UNK N   1      30.977  22.766  -1.922  0.00  0.00    -0.307 OA
HETATM    3  O   UNK N   1      32.495  21.602  -2.083  0.00  0.00    -0.248 OA
HETATM    4  N   UNK N   1      31.617  23.391  -3.878  0.00  0.00    -0.338 N 
HETATM    5  C   UNK N   1      30.292  23.831  -4.315  0.00  0.00     0.126 C 
HETATM    6  C   UNK N   1      29.426  24.121  -3.094  0.00  0.00     0.046 C 
HETATM    7  C   UNK N   1      29.602  22.988  -2.094  0.00  0.00     0.180 C 
HETATM    8  H   UNK N   1      32.478  23.934  -3.930  0.00  0.00     0.164 HD
ENDROOT
BRANCH   1   9
HETATM    9  N   UNK N   1      33.004  21.563  -4.186  0.00  0.00    -0.221 NA
BRANCH   9  10
HETATM   10  C   UNK N   1      32.750  20.762  -5.383  0.00  0.00     0.116 C 
BRANCH  10  11
HETATM   11  C   UNK N   1      31.389  20.102  -5.281  0.00  0.00     0.129 C 
HETATM   12 Cl   UNK N   1      30.661  19.985  -6.898  0.00  0.00    -0.129 Cl
ENDBRANCH  10  11
ENDBRANCH   9  10
BRANCH   9  13
HETATM   13  C   UNK N   1      33.954  20.737  -3.437  0.00  0.00     0.116 C 
BRANCH  13  14
HETATM   14  C   UNK N   1      35.138  20.369  -4.312  0.00  0.00     0.129 C 
HETATM   15 Cl   UNK N   1      36.496  21.455  -3.939  0.00  0.00    -0.129 Cl
ENDBRANCH  13  14
ENDBRANCH   9  13
ENDBRANCH   1   9
TORSDOF 5
ENDMDL
MODEL 5
REMARK VINA RESULT:      -4.2     16.833     18.624
REMARK  5 active torsions:
REMARK  status: ('A' for Active; 'I' for Inactive)
REMARK    1  A    between atoms: P_3  and  N_6 
REMARK    2  A    between atoms: N_6  and  C_11 
REMARK    3  A    between atoms: N_6  and  C_12 
REMARK    4  A    between atoms: C_11  and  C_13 
REMARK    5  A    between atoms: C_12  and  C_14 
ROOT
HETATM    1  P   UNK N   1      25.893  28.232  -4.249  0.00  0.00     0.365 P 
HETATM    2  O   UNK N   1      26.491  29.328  -3.024  0.00  0.00    -0.307 OA
HETATM    3  O   UNK N   1      25.860  27.522  -2.868  0.00  0.00    -0.248 OA
HETATM    4  N   UNK N   1      27.658  28.475  -4.616  0.00  0.00    -0.338 N 
HETATM    5  C   UNK N   1      27.787  29.722  -5.368  0.00  0.00     0.126 C 
HETATM    6  C   UNK N   1      27.565  30.904  -4.431  0.00  0.00     0.046 C 
HETATM    7  C   UNK N   1      26.347  30.615  -3.565  0.00  0.00     0.180 C 
HETATM    8  H   UNK N   1      28.421  27.853  -4.347  0.00  0.00     0.164 HD
ENDROOT
BRANCH   1   9
HETATM    9  N   UNK N   1      26.399  26.534  -4.718  0.00  0.00    -0.221 NA
BRANCH   9  10
HETATM   10  C   UNK N   1      25.299  25.898  -5.442  0.00  0.00     0.116 C 
BRANCH  10  11
HETATM   11  C   UNK N   1      25.771  25.466  -6.817  0.00  0.00     0.129 C 
HETATM   12 Cl   UNK N   1      26.695  26.784  -7.571  0.00  0.00    -0.129 Cl
ENDBRANCH  10  11
ENDBRANCH   9  10
BRANCH   9  13
HETATM   13  C   UNK N   1      26.506  25.718  -3.506  0.00  0.00     0.116 C 
BRANCH  13  14
HETATM   14  C   UNK N   1      27.460  24.559  -3.733  0.00  0.00     0.129 C 
HETATM   15 Cl   UNK N   1      28.881  25.144  -4.625  0.00  0.00    -0.129 Cl
ENDBRANCH  13  14
ENDBRANCH   9  13
ENDBRANCH   1   9
TORSDOF 5
ENDMDL
MODEL 6
REMARK VINA RESULT:      -4.2      5.204      7.203
REMARK  5 active torsions:
REMARK  status: ('A' for Active; 'I' for Inactive)
REMARK    1  A    between atoms: P_3  and  N_6 
REMARK    2  A    between atoms: N_6  and  C_11 
REMARK    3  A    between atoms: N_6  and  C_12 
REMARK    4  A    between atoms: C_11  and  C_13 
REMARK    5  A    between atoms: C_12  and  C_14 
ROOT
HETATM    1  P   UNK N   1      28.231  18.351   5.825  0.00  0.00     0.365 P 
HETATM    2  O   UNK N   1      26.520  18.412   5.461  0.00  0.00    -0.307 OA
HETATM    3  O   UNK N   1      27.595  16.966   6.127  0.00  0.00    -0.248 OA
HETATM    4  N   UNK N   1      27.502  19.485   7.046  0.00  0.00    -0.338 N 
HETATM    5  C   UNK N   1      27.377  20.797   6.412  0.00  0.00     0.126 C 
HETATM    6  C   UNK N   1      26.240  20.764   5.397  0.00  0.00     0.046 C 
HETATM    7  C   UNK N   1      26.360  19.488   4.576  0.00  0.00     0.180 C 
HETATM    8  H   UNK N   1      27.230  19.249   8.000  0.00  0.00     0.164 HD
ENDROOT
BRANCH   1   9
HETATM    9  N   UNK N   1      29.138  17.874   7.343  0.00  0.00    -0.221 NA
BRANCH   9  10
HETATM   10  C   UNK N   1      29.972  16.710   7.048  0.00  0.00     0.116 C 
BRANCH  10  11
HETATM   11  C   UNK N   1      31.318  17.162   6.514  0.00  0.00     0.129 C 
HETATM   12 Cl   UNK N   1      32.354  17.669   7.866  0.00  0.00    -0.129 Cl
ENDBRANCH  10  11
ENDBRANCH   9  10
BRANCH   9  13
HETATM   13  C   UNK N   1      28.184  17.351   8.324  0.00  0.00     0.116 C 
BRANCH  13  14
HETATM   14  C   UNK N   1      28.803  17.339   9.709  0.00  0.00     0.129 C 
HETATM   15 Cl   UNK N   1      29.738  18.833   9.940  0.00  0.00    -0.129 Cl
ENDBRANCH  13  14
ENDBRANCH   9  13
ENDBRANCH   1   9
TORSDOF 5
ENDMDL
MODEL 7
REMARK VINA RESULT:      -4.2     16.451     18.315
REMARK  5 active torsions:
REMARK  status: ('A' for Active; 'I' for Inactive)
REMARK    1  A    between atoms: P_3  and  N_6 
REMARK    2  A    between atoms: N_6  and  C_11 
REMARK    3  A    between atoms: N_6  and  C_12 
REMARK    4  A    between atoms: C_11  and  C_13 
REMARK    5  A    between atoms: C_12  and  C_14 
ROOT
HETATM    1  P   UNK N   1      26.028  28.004  -4.045  0.00  0.00     0.365 P 
HETATM    2  O   UNK N   1      26.610  29.239  -2.951  0.00  0.00    -0.307 OA
HETATM    3  O   UNK N   1      26.138  27.408  -2.615  0.00  0.00    -0.248 OA
HETATM    4  N   UNK N   1      27.741  28.350  -4.550  0.00  0.00    -0.338 N 
HETATM    5  C   UNK N   1      27.722  29.539  -5.401  0.00  0.00     0.126 C 
HETATM    6  C   UNK N   1      27.463  30.772  -4.544  0.00  0.00     0.046 C 
HETATM    7  C   UNK N   1      26.329  30.463  -3.577  0.00  0.00     0.180 C 
HETATM    8  H   UNK N   1      28.567  27.812  -4.287  0.00  0.00     0.164 HD
ENDROOT
BRANCH   1   9
HETATM    9  N   UNK N   1      26.639  26.317  -4.417  0.00  0.00    -0.221 NA
BRANCH   9  10
HETATM   10  C   UNK N   1      28.074  26.266  -4.145  0.00  0.00     0.116 C 
BRANCH  10  11
HETATM   11  C   UNK N   1      28.489  24.839  -3.839  0.00  0.00     0.129 C 
HETATM   12 Cl   UNK N   1      27.191  24.020  -2.944  0.00  0.00    -0.129 Cl
ENDBRANCH  10  11
ENDBRANCH   9  10
BRANCH   9  13
HETATM   13  C   UNK N   1      26.573  26.095  -5.863  0.00  0.00     0.116 C 
BRANCH  13  14
HETATM   14  C   UNK N   1      25.536  25.036  -6.188  0.00  0.00     0.129 C 
HETATM   15 Cl   UNK N   1      26.358  23.482  -6.455  0.00  0.00    -0.129 Cl
ENDBRANCH  13  14
ENDBRANCH   9  13
ENDBRANCH   1   9
TORSDOF 5
ENDMDL
MODEL 8
REMARK VINA RESULT:      -4.2     13.521     14.770
REMARK  5 active torsions:
REMARK  status: ('A' for Active; 'I' for Inactive)
REMARK    1  A    between atoms: P_3  and  N_6 
REMARK    2  A    between atoms: N_6  and  C_11 
REMARK    3  A    between atoms: N_6  and  C_12 
REMARK    4  A    between atoms: C_11  and  C_13 
REMARK    5  A    between atoms: C_12  and  C_14 
ROOT
HETATM    1  P   UNK N   1      44.569  23.594   2.044  0.00  0.00     0.365 P 
HETATM    2  O   UNK N   1      44.663  23.253   3.757  0.00  0.00    -0.307 OA
HETATM    3  O   UNK N   1      45.194  24.814   2.774  0.00  0.00    -0.248 OA
HETATM    4  N   UNK N   1      42.849  23.519   2.632  0.00  0.00    -0.338 N 
HETATM    5  C   UNK N   1      42.458  22.111   2.679  0.00  0.00     0.126 C 
HETATM    6  C   UNK N   1      43.151  21.432   3.855  0.00  0.00     0.046 C 
HETATM    7  C   UNK N   1      44.612  21.856   3.868  0.00  0.00     0.180 C 
HETATM    8  H   UNK N   1      42.263  24.315   2.883  0.00  0.00     0.164 HD
ENDROOT
BRANCH   1   9
HETATM    9  N   UNK N   1      43.812  24.981   1.116  0.00  0.00    -0.221 NA
BRANCH   9  10
HETATM   10  C   UNK N   1      43.059  24.437  -0.014  0.00  0.00     0.116 C 
BRANCH  10  11
HETATM   11  C   UNK N   1      41.961  25.404  -0.414  0.00  0.00     0.129 C 
HETATM   12 Cl   UNK N   1      40.521  25.116   0.586  0.00  0.00    -0.129 Cl
ENDBRANCH  10  11
ENDBRANCH   9  10
BRANCH   9  13
HETATM   13  C   UNK N   1      44.872  25.750   0.460  0.00  0.00     0.116 C 
BRANCH  13  14
HETATM   14  C   UNK N   1      45.488  24.945  -0.668  0.00  0.00     0.129 C 
HETATM   15 Cl   UNK N   1      46.360  26.046  -1.758  0.00  0.00    -0.129 Cl
ENDBRANCH  13  14
ENDBRANCH   9  13
ENDBRANCH   1   9
TORSDOF 5
ENDMDL
MODEL 9
REMARK VINA RESULT:      -4.1     17.421     18.560
REMARK  5 active torsions:
REMARK  status: ('A' for Active; 'I' for Inactive)
REMARK    1  A    between atoms: P_3  and  N_6 
REMARK    2  A    between atoms: N_6  and  C_11 
REMARK    3  A    between atoms: N_6  and  C_12 
REMARK    4  A    between atoms: C_11  and  C_13 
REMARK    5  A    between atoms: C_12  and  C_14 
ROOT
HETATM    1  P   UNK N   1      26.760  24.168  -5.873  0.00  0.00     0.365 P 
HETATM    2  O   UNK N   1      25.400  23.089  -6.090  0.00  0.00    -0.307 OA
HETATM    3  O   UNK N   1      26.063  23.943  -4.503  0.00  0.00    -0.248 OA
HETATM    4  N   UNK N   1      25.552  25.085  -6.876  0.00  0.00    -0.338 N 
HETATM    5  C   UNK N   1      25.721  24.666  -8.267  0.00  0.00     0.126 C 
HETATM    6  C   UNK N   1      25.167  23.256  -8.442  0.00  0.00     0.046 C 
HETATM    7  C   UNK N   1      25.652  22.397  -7.283  0.00  0.00     0.180 C 
HETATM    8  H   UNK N   1      24.879  25.769  -6.532  0.00  0.00     0.164 HD
ENDROOT
BRANCH   1   9
HETATM    9  N   UNK N   1      26.885  25.843  -5.140  0.00  0.00    -0.221 NA
BRANCH   9  10
HETATM   10  C   UNK N   1      28.293  26.230  -5.087  0.00  0.00     0.116 C 
BRANCH  10  11
HETATM   11  C   UNK N   1      28.721  26.800  -6.426  0.00  0.00     0.129 C 
HETATM   12 Cl   UNK N   1      27.530  28.001  -6.971  0.00  0.00    -0.129 Cl
ENDBRANCH  10  11
ENDBRANCH   9  10
BRANCH   9  13
HETATM   13  C   UNK N   1      26.513  25.772  -3.725  0.00  0.00     0.116 C 
BRANCH  13  14
HETATM   14  C   UNK N   1      26.284  27.165  -3.169  0.00  0.00     0.129 C 
HETATM   15 Cl   UNK N   1      25.281  28.088  -4.310  0.00  0.00    -0.129 Cl
ENDBRANCH  13  14
ENDBRANCH   9  13
ENDBRANCH   1   9
TORSDOF 5
ENDMDL
