MODEL 1
REMARK VINA RESULT:      -6.5      0.000      0.000
REMARK  2 active torsions:
REMARK  status: ('A' for Active; 'I' for Inactive)
REMARK    1  A    between atoms: C_5  and  C_6 
REMARK    2  A    between atoms: C_5  and  C_8 
ROOT
HETATM    1  O   UNK N   1      32.950  15.326   9.190  0.00  0.00    -0.270 OA
HETATM    2  O   UNK N   1      35.261  19.071   8.510  0.00  0.00    -0.247 OA
HETATM    3  N   UNK N   1      33.447  18.267   7.430  0.00  0.00    -0.320 N 
HETATM    4  N   UNK N   1      34.328  17.114   9.123  0.00  0.00    -0.272 N 
HETATM    5  C   UNK N   1      32.593  17.082   7.525  0.00  0.00     0.143 A 
HETATM    6  C   UNK N   1      33.279  16.396   8.699  0.00  0.00     0.260 A 
HETATM    7  C   UNK N   1      34.408  18.209   8.371  0.00  0.00     0.326 A 
HETATM    8  C   UNK N   1      35.221  16.757  10.198  0.00  0.00     0.164 C 
HETATM    9  H   UNK N   1      33.334  18.996   6.778  0.00  0.00     0.165 HD
ENDROOT
BRANCH   5  10
HETATM   10  C   UNK N   1      32.744  16.283   6.219  0.00  0.00     0.042 C 
HETATM   11  C   UNK N   1      33.227  17.112   5.036  0.00  0.00     0.008 C 
ENDBRANCH   5  10
BRANCH   5  12
HETATM   12  C   UNK N   1      31.153  17.490   7.830  0.00  0.00    -0.021 A 
HETATM   13  C   UNK N   1      30.100  17.044   7.011  0.00  0.00     0.010 A 
HETATM   14  C   UNK N   1      28.774  17.364   7.319  0.00  0.00     0.001 A 
HETATM   15  C   UNK N   1      28.483  18.128   8.451  0.00  0.00     0.000 A 
HETATM   16  C   UNK N   1      29.519  18.580   9.272  0.00  0.00     0.001 A 
HETATM   17  C   UNK N   1      30.845  18.262   8.963  0.00  0.00     0.010 A 
ENDBRANCH   5  12
TORSDOF 2
ENDMDL
MODEL 2
REMARK VINA RESULT:      -5.9      7.646      9.608
REMARK  2 active torsions:
REMARK  status: ('A' for Active; 'I' for Inactive)
REMARK    1  A    between atoms: C_5  and  C_6 
REMARK    2  A    between atoms: C_5  and  C_8 
ROOT
HETATM    1  O   UNK N   1      38.088  11.529  14.318  0.00  0.00    -0.270 OA
HETATM    2  O   UNK N   1      35.133  13.211  11.443  0.00  0.00    -0.247 OA
HETATM    3  N   UNK N   1      34.966  12.881  13.673  0.00  0.00    -0.320 N 
HETATM    4  N   UNK N   1      36.846  12.326  12.610  0.00  0.00    -0.272 N 
HETATM    5  C   UNK N   1      35.821  12.348  14.734  0.00  0.00     0.143 A 
HETATM    6  C   UNK N   1      37.051  12.022  13.898  0.00  0.00     0.260 A 
HETATM    7  C   UNK N   1      35.620  12.833  12.497  0.00  0.00     0.326 A 
HETATM    8  C   UNK N   1      37.783  12.128  11.531  0.00  0.00     0.164 C 
HETATM    9  H   UNK N   1      34.051  13.225  13.799  0.00  0.00     0.165 HD
ENDROOT
BRANCH   5  10
HETATM   10  C   UNK N   1      35.149  11.083  15.294  0.00  0.00     0.042 C 
HETATM   11  C   UNK N   1      33.717  10.878  14.817  0.00  0.00     0.008 C 
ENDBRANCH   5  10
BRANCH   5  12
HETATM   12  C   UNK N   1      36.084  13.421  15.790  0.00  0.00    -0.021 A 
HETATM   13  C   UNK N   1      37.000  14.458  15.535  0.00  0.00     0.010 A 
HETATM   14  C   UNK N   1      37.201  15.476  16.472  0.00  0.00     0.001 A 
HETATM   15  C   UNK N   1      36.485  15.475  17.671  0.00  0.00     0.000 A 
HETATM   16  C   UNK N   1      35.574  14.451  17.938  0.00  0.00     0.001 A 
HETATM   17  C   UNK N   1      35.374  13.432  17.003  0.00  0.00     0.010 A 
ENDBRANCH   5  12
TORSDOF 2
ENDMDL
MODEL 3
REMARK VINA RESULT:      -5.5     11.618     14.050
REMARK  2 active torsions:
REMARK  status: ('A' for Active; 'I' for Inactive)
REMARK    1  A    between atoms: C_5  and  C_6 
REMARK    2  A    between atoms: C_5  and  C_8 
ROOT
HETATM    1  O   UNK N   1      34.122   8.622  18.655  0.00  0.00    -0.270 OA
HETATM    2  O   UNK N   1      33.067  10.620  22.492  0.00  0.00    -0.247 OA
HETATM    3  N   UNK N   1      34.809  10.978  21.097  0.00  0.00    -0.320 N 
HETATM    4  N   UNK N   1      33.301   9.411  20.604  0.00  0.00    -0.272 N 
HETATM    5  C   UNK N   1      35.290  10.419  19.833  0.00  0.00     0.143 A 
HETATM    6  C   UNK N   1      34.192   9.390  19.603  0.00  0.00     0.260 A 
HETATM    7  C   UNK N   1      33.677  10.352  21.468  0.00  0.00     0.326 A 
HETATM    8  C   UNK N   1      32.145   8.558  20.730  0.00  0.00     0.164 C 
HETATM    9  H   UNK N   1      35.247  11.704  21.600  0.00  0.00     0.165 HD
ENDROOT
BRANCH   5  10
HETATM   10  C   UNK N   1      36.656   9.761  20.094  0.00  0.00     0.042 C 
HETATM   11  C   UNK N   1      37.449  10.404  21.224  0.00  0.00     0.008 C 
ENDBRANCH   5  10
BRANCH   5  12
HETATM   12  C   UNK N   1      35.328  11.502  18.757  0.00  0.00    -0.021 A 
HETATM   13  C   UNK N   1      35.143  12.854  19.102  0.00  0.00     0.010 A 
HETATM   14  C   UNK N   1      35.236  13.856  18.131  0.00  0.00     0.001 A 
HETATM   15  C   UNK N   1      35.522  13.522  16.806  0.00  0.00     0.000 A 
HETATM   16  C   UNK N   1      35.706  12.184  16.448  0.00  0.00     0.001 A 
HETATM   17  C   UNK N   1      35.610  11.182  17.417  0.00  0.00     0.010 A 
ENDBRANCH   5  12
TORSDOF 2
ENDMDL
MODEL 4
REMARK VINA RESULT:      -5.4     14.334     15.546
REMARK  2 active torsions:
REMARK  status: ('A' for Active; 'I' for Inactive)
REMARK    1  A    between atoms: C_5  and  C_6 
REMARK    2  A    between atoms: C_5  and  C_8 
ROOT
HETATM    1  O   UNK N   1      26.990  23.849  -2.351  0.00  0.00    -0.270 OA
HETATM    2  O   UNK N   1      30.578  23.701  -4.984  0.00  0.00    -0.247 OA
HETATM    3  N   UNK N   1      28.506  24.504  -5.394  0.00  0.00    -0.320 N 
HETATM    4  N   UNK N   1      28.974  23.618  -3.403  0.00  0.00    -0.272 N 
HETATM    5  C   UNK N   1      27.247  24.620  -4.658  0.00  0.00     0.143 A 
HETATM    6  C   UNK N   1      27.693  24.003  -3.339  0.00  0.00     0.260 A 
HETATM    7  C   UNK N   1      29.436  23.924  -4.613  0.00  0.00     0.326 A 
HETATM    8  C   UNK N   1      29.720  22.973  -2.350  0.00  0.00     0.164 C 
HETATM    9  H   UNK N   1      28.651  24.806  -6.321  0.00  0.00     0.165 HD
ENDROOT
BRANCH   5  10
HETATM   10  C   UNK N   1      26.195  23.757  -5.375  0.00  0.00     0.042 C 
HETATM   11  C   UNK N   1      26.580  23.363  -6.795  0.00  0.00     0.008 C 
ENDBRANCH   5  10
BRANCH   5  12
HETATM   12  C   UNK N   1      26.846  26.089  -4.524  0.00  0.00    -0.021 A 
HETATM   13  C   UNK N   1      25.600  26.531  -5.006  0.00  0.00     0.010 A 
HETATM   14  C   UNK N   1      25.201  27.860  -4.833  0.00  0.00     0.001 A 
HETATM   15  C   UNK N   1      26.039  28.762  -4.172  0.00  0.00     0.000 A 
HETATM   16  C   UNK N   1      27.279  28.337  -3.691  0.00  0.00     0.001 A 
HETATM   17  C   UNK N   1      27.680  27.009  -3.865  0.00  0.00     0.010 A 
ENDBRANCH   5  12
TORSDOF 2
ENDMDL
MODEL 5
REMARK VINA RESULT:      -5.4      8.898     10.811
REMARK  2 active torsions:
REMARK  status: ('A' for Active; 'I' for Inactive)
REMARK    1  A    between atoms: C_5  and  C_6 
REMARK    2  A    between atoms: C_5  and  C_8 
ROOT
HETATM    1  O   UNK N   1      33.608  10.727  14.609  0.00  0.00    -0.270 OA
HETATM    2  O   UNK N   1      37.887   9.928  13.670  0.00  0.00    -0.247 OA
HETATM    3  N   UNK N   1      36.944  11.627  14.825  0.00  0.00    -0.320 N 
HETATM    4  N   UNK N   1      35.654  10.026  13.963  0.00  0.00    -0.272 N 
HETATM    5  C   UNK N   1      35.590  12.028  15.208  0.00  0.00     0.143 A 
HETATM    6  C   UNK N   1      34.822  10.873  14.582  0.00  0.00     0.260 A 
HETATM    7  C   UNK N   1      36.895  10.482  14.119  0.00  0.00     0.326 A 
HETATM    8  C   UNK N   1      35.274   8.836  13.242  0.00  0.00     0.164 C 
HETATM    9  H   UNK N   1      37.767  12.120  15.049  0.00  0.00     0.165 HD
ENDROOT
BRANCH   5  10
HETATM   10  C   UNK N   1      35.280  13.370  14.522  0.00  0.00     0.042 C 
HETATM   11  C   UNK N   1      36.517  14.152  14.101  0.00  0.00     0.008 C 
ENDBRANCH   5  10
BRANCH   5  12
HETATM   12  C   UNK N   1      35.464  12.075  16.730  0.00  0.00    -0.021 A 
HETATM   13  C   UNK N   1      35.694  10.918  17.497  0.00  0.00     0.010 A 
HETATM   14  C   UNK N   1      35.640  10.968  18.894  0.00  0.00     0.001 A 
HETATM   15  C   UNK N   1      35.361  12.173  19.541  0.00  0.00     0.000 A 
HETATM   16  C   UNK N   1      35.128  13.329  18.792  0.00  0.00     0.001 A 
HETATM   17  C   UNK N   1      35.180  13.280  17.396  0.00  0.00     0.010 A 
ENDBRANCH   5  12
TORSDOF 2
ENDMDL
MODEL 6
REMARK VINA RESULT:      -5.4     16.446     17.858
REMARK  2 active torsions:
REMARK  status: ('A' for Active; 'I' for Inactive)
REMARK    1  A    between atoms: C_5  and  C_6 
REMARK    2  A    between atoms: C_5  and  C_8 
ROOT
HETATM    1  O   UNK N   1      27.777  25.241  -8.177  0.00  0.00    -0.270 OA
HETATM    2  O   UNK N   1      24.286  22.479  -8.285  0.00  0.00    -0.247 OA
HETATM    3  N   UNK N   1      25.451  23.280  -6.523  0.00  0.00    -0.320 N 
HETATM    4  N   UNK N   1      26.024  23.881  -8.592  0.00  0.00    -0.272 N 
HETATM    5  C   UNK N   1      26.596  24.169  -6.322  0.00  0.00     0.143 A 
HETATM    6  C   UNK N   1      26.881  24.511  -7.778  0.00  0.00     0.260 A 
HETATM    7  C   UNK N   1      25.190  23.168  -7.838  0.00  0.00     0.326 A 
HETATM    8  C   UNK N   1      26.013  23.951 -10.033  0.00  0.00     0.164 C 
HETATM    9  H   UNK N   1      24.947  22.834  -5.804  0.00  0.00     0.165 HD
ENDROOT
BRANCH   5  10
HETATM   10  C   UNK N   1      27.731  23.345  -5.688  0.00  0.00     0.042 C 
HETATM   11  C   UNK N   1      28.411  22.381  -6.651  0.00  0.00     0.008 C 
ENDBRANCH   5  10
BRANCH   5  12
HETATM   12  C   UNK N   1      26.184  25.384  -5.493  0.00  0.00    -0.021 A 
HETATM   13  C   UNK N   1      26.676  25.551  -4.185  0.00  0.00     0.010 A 
HETATM   14  C   UNK N   1      26.351  26.690  -3.442  0.00  0.00     0.001 A 
HETATM   15  C   UNK N   1      25.537  27.679  -3.998  0.00  0.00     0.000 A 
HETATM   16  C   UNK N   1      25.040  27.526  -5.294  0.00  0.00     0.001 A 
HETATM   17  C   UNK N   1      25.362  26.386  -6.037  0.00  0.00     0.010 A 
ENDBRANCH   5  12
TORSDOF 2
ENDMDL
MODEL 7
REMARK VINA RESULT:      -5.4     15.337     16.864
REMARK  2 active torsions:
REMARK  status: ('A' for Active; 'I' for Inactive)
REMARK    1  A    between atoms: C_5  and  C_6 
REMARK    2  A    between atoms: C_5  and  C_8 
ROOT
HETATM    1  O   UNK N   1      28.974  25.080  -6.199  0.00  0.00    -0.270 OA
HETATM    2  O   UNK N   1      26.860  24.122  -2.398  0.00  0.00    -0.247 OA
HETATM    3  N   UNK N   1      26.030  24.729  -4.410  0.00  0.00    -0.320 N 
HETATM    4  N   UNK N   1      28.234  24.538  -4.136  0.00  0.00    -0.272 N 
HETATM    5  C   UNK N   1      26.574  25.075  -5.723  0.00  0.00     0.143 A 
HETATM    6  C   UNK N   1      28.054  24.899  -5.413  0.00  0.00     0.260 A 
HETATM    7  C   UNK N   1      27.036  24.438  -3.565  0.00  0.00     0.326 A 
HETATM    8  C   UNK N   1      29.503  24.308  -3.489  0.00  0.00     0.164 C 
HETATM    9  H   UNK N   1      25.072  24.711  -4.179  0.00  0.00     0.165 HD
ENDROOT
BRANCH   5  10
HETATM   10  C   UNK N   1      26.213  26.541  -6.016  0.00  0.00     0.042 C 
HETATM   11  C   UNK N   1      24.802  26.929  -5.596  0.00  0.00     0.008 C 
ENDBRANCH   5  10
BRANCH   5  12
HETATM   12  C   UNK N   1      26.066  24.096  -6.781  0.00  0.00    -0.021 A 
HETATM   13  C   UNK N   1      26.040  24.467  -8.138  0.00  0.00     0.010 A 
HETATM   14  C   UNK N   1      25.633  23.556  -9.117  0.00  0.00     0.001 A 
HETATM   15  C   UNK N   1      25.253  22.262  -8.755  0.00  0.00     0.000 A 
HETATM   16  C   UNK N   1      25.271  21.881  -7.411  0.00  0.00     0.001 A 
HETATM   17  C   UNK N   1      25.676  22.792  -6.431  0.00  0.00     0.010 A 
ENDBRANCH   5  12
TORSDOF 2
ENDMDL
MODEL 8
REMARK VINA RESULT:      -5.3      1.862      2.754
REMARK  2 active torsions:
REMARK  status: ('A' for Active; 'I' for Inactive)
REMARK    1  A    between atoms: C_5  and  C_6 
REMARK    2  A    between atoms: C_5  and  C_8 
ROOT
HETATM    1  O   UNK N   1      31.997  14.532   6.691  0.00  0.00    -0.270 OA
HETATM    2  O   UNK N   1      33.745  14.928  10.767  0.00  0.00    -0.247 OA
HETATM    3  N   UNK N   1      32.912  16.508   9.383  0.00  0.00    -0.320 N 
HETATM    4  N   UNK N   1      32.926  14.372   8.743  0.00  0.00    -0.272 N 
HETATM    5  C   UNK N   1      32.320  16.543   8.045  0.00  0.00     0.143 A 
HETATM    6  C   UNK N   1      32.376  15.055   7.730  0.00  0.00     0.260 A 
HETATM    7  C   UNK N   1      33.229  15.241   9.705  0.00  0.00     0.326 A 
HETATM    8  C   UNK N   1      33.160  12.950   8.780  0.00  0.00     0.164 C 
HETATM    9  H   UNK N   1      33.055  17.293   9.961  0.00  0.00     0.165 HD
ENDROOT
BRANCH   5  10
HETATM   10  C   UNK N   1      33.251  17.363   7.135  0.00  0.00     0.042 C 
HETATM   11  C   UNK N   1      34.195  18.291   7.889  0.00  0.00     0.008 C 
ENDBRANCH   5  10
BRANCH   5  12
HETATM   12  C   UNK N   1      30.894  17.087   8.112  0.00  0.00    -0.021 A 
HETATM   13  C   UNK N   1      30.329  17.447   9.349  0.00  0.00     0.010 A 
HETATM   14  C   UNK N   1      29.046  18.002   9.411  0.00  0.00     0.001 A 
HETATM   15  C   UNK N   1      28.316  18.208   8.239  0.00  0.00     0.000 A 
HETATM   16  C   UNK N   1      28.863  17.853   7.005  0.00  0.00     0.001 A 
HETATM   17  C   UNK N   1      30.144  17.297   6.942  0.00  0.00     0.010 A 
ENDBRANCH   5  12
TORSDOF 2
ENDMDL
MODEL 9
REMARK VINA RESULT:      -5.2     11.034     12.598
REMARK  2 active torsions:
REMARK  status: ('A' for Active; 'I' for Inactive)
REMARK    1  A    between atoms: C_5  and  C_6 
REMARK    2  A    between atoms: C_5  and  C_8 
ROOT
HETATM    1  O   UNK N   1      18.764  15.058   5.902  0.00  0.00    -0.270 OA
HETATM    2  O   UNK N   1      21.732  18.338   5.392  0.00  0.00    -0.247 OA
HETATM    3  N   UNK N   1      21.018  17.303   7.269  0.00  0.00    -0.320 N 
HETATM    4  N   UNK N   1      20.198  16.691   5.289  0.00  0.00    -0.272 N 
HETATM    5  C   UNK N   1      20.070  16.239   7.600  0.00  0.00     0.143 A 
HETATM    6  C   UNK N   1      19.596  15.906   6.192  0.00  0.00     0.260 A 
HETATM    7  C   UNK N   1      21.031  17.501   5.938  0.00  0.00     0.326 A 
HETATM    8  C   UNK N   1      19.973  16.672   3.864  0.00  0.00     0.164 C 
HETATM    9  H   UNK N   1      21.564  17.800   7.922  0.00  0.00     0.165 HD
ENDROOT
BRANCH   5  10
HETATM   10  C   UNK N   1      18.949  16.851   8.459  0.00  0.00     0.042 C 
HETATM   11  C   UNK N   1      19.352  18.127   9.186  0.00  0.00     0.008 C 
ENDBRANCH   5  10
BRANCH   5  12
HETATM   12  C   UNK N   1      20.794  15.077   8.277  0.00  0.00    -0.021 A 
HETATM   13  C   UNK N   1      20.271  14.500   9.449  0.00  0.00     0.010 A 
HETATM   14  C   UNK N   1      20.896  13.397  10.040  0.00  0.00     0.001 A 
HETATM   15  C   UNK N   1      22.047  12.854   9.465  0.00  0.00     0.000 A 
HETATM   16  C   UNK N   1      22.579  13.418   8.303  0.00  0.00     0.001 A 
HETATM   17  C   UNK N   1      21.956  14.522   7.713  0.00  0.00     0.010 A 
ENDBRANCH   5  12
TORSDOF 2
ENDMDL
