MODEL 1
REMARK VINA RESULT:      -6.9      0.000      0.000
REMARK  3 active torsions:
REMARK  status: ('A' for Active; 'I' for Inactive)
REMARK    1  A    between atoms: S_1  and  C_10 
REMARK    2  A    between atoms: C_6  and  C_7 
REMARK    3  A    between atoms: C_8  and  C_11 
ROOT
HETATM    1  O   UNK N   1      28.502  18.119   7.237  0.00  0.00    -0.313 OA
HETATM    2  O   UNK N   1      28.330  17.682   5.032  0.00  0.00    -0.259 OA
HETATM    3  C   UNK N   1      30.626  17.346   7.517  0.00  0.00    -0.007 A 
HETATM    4  C   UNK N   1      30.325  17.177   6.214  0.00  0.00     0.059 A 
HETATM    5  C   UNK N   1      29.460  18.002   8.234  0.00  0.00     0.219 A 
HETATM    6  C   UNK N   1      28.968  17.653   6.067  0.00  0.00     0.295 A 
ENDROOT
BRANCH   3   7
HETATM    7  C   UNK N   1      31.879  16.947   8.212  0.00  0.00    -0.027 A 
HETATM    8  C   UNK N   1      32.993  17.806   8.304  0.00  0.00     0.013 A 
HETATM    9  C   UNK N   1      34.187  17.349   8.904  0.00  0.00     0.024 A 
HETATM   10  C   UNK N   1      34.243  16.047   9.435  0.00  0.00     0.058 A 
HETATM   11  C   UNK N   1      33.111  15.246   9.406  0.00  0.00     0.024 A 
HETATM   12  C   UNK N   1      31.949  15.693   8.813  0.00  0.00     0.013 A 
BRANCH  10  13
HETATM   13  S   UNK N   1      35.716  15.315  10.142  0.00  0.00     0.171 S 
HETATM   14  O   UNK N   1      35.245  14.738  11.487  0.00  0.00    -0.223 OA
HETATM   15  O   UNK N   1      36.415  16.547  10.732  0.00  0.00    -0.223 OA
HETATM   16  C   UNK N   1      37.121  14.278   9.648  0.00  0.00     0.167 C 
ENDBRANCH  10  13
ENDBRANCH   3   7
BRANCH   4  17
HETATM   17  C   UNK N   1      31.178  16.679   5.078  0.00  0.00    -0.019 A 
HETATM   18  C   UNK N   1      31.168  15.328   4.693  0.00  0.00     0.012 A 
HETATM   19  C   UNK N   1      31.987  14.858   3.667  0.00  0.00     0.001 A 
HETATM   20  C   UNK N   1      32.854  15.735   3.018  0.00  0.00     0.000 A 
HETATM   21  C   UNK N   1      32.905  17.076   3.407  0.00  0.00     0.001 A 
HETATM   22  C   UNK N   1      32.080  17.543   4.438  0.00  0.00     0.012 A 
ENDBRANCH   4  17
TORSDOF 3
ENDMDL
MODEL 2
REMARK VINA RESULT:      -6.8      2.857      4.940
REMARK  3 active torsions:
REMARK  status: ('A' for Active; 'I' for Inactive)
REMARK    1  A    between atoms: S_1  and  C_10 
REMARK    2  A    between atoms: C_6  and  C_7 
REMARK    3  A    between atoms: C_8  and  C_11 
ROOT
HETATM    1  O   UNK N   1      27.095  15.800   2.954  0.00  0.00    -0.313 OA
HETATM    2  O   UNK N   1      25.613  17.482   3.190  0.00  0.00    -0.259 OA
HETATM    3  C   UNK N   1      28.735  16.674   4.270  0.00  0.00    -0.007 A 
HETATM    4  C   UNK N   1      27.717  17.557   4.287  0.00  0.00     0.059 A 
HETATM    5  C   UNK N   1      28.358  15.470   3.425  0.00  0.00     0.219 A 
HETATM    6  C   UNK N   1      26.700  16.992   3.429  0.00  0.00     0.295 A 
ENDROOT
BRANCH   3   7
HETATM    7  C   UNK N   1      30.059  16.812   4.933  0.00  0.00    -0.027 A 
HETATM    8  C   UNK N   1      31.170  17.384   4.279  0.00  0.00     0.013 A 
HETATM    9  C   UNK N   1      32.426  17.418   4.924  0.00  0.00     0.024 A 
HETATM   10  C   UNK N   1      32.548  16.911   6.230  0.00  0.00     0.058 A 
HETATM   11  C   UNK N   1      31.427  16.427   6.887  0.00  0.00     0.024 A 
HETATM   12  C   UNK N   1      30.203  16.387   6.251  0.00  0.00     0.013 A 
BRANCH  10  13
HETATM   13  S   UNK N   1      34.096  16.815   7.127  0.00  0.00     0.171 S 
HETATM   14  O   UNK N   1      34.636  18.254   7.106  0.00  0.00    -0.223 OA
HETATM   15  O   UNK N   1      35.041  16.272   6.047  0.00  0.00    -0.223 OA
HETATM   16  C   UNK N   1      34.777  16.076   8.638  0.00  0.00     0.167 C 
ENDBRANCH  10  13
ENDBRANCH   3   7
BRANCH   4  17
HETATM   17  C   UNK N   1      27.557  18.839   5.061  0.00  0.00    -0.019 A 
HETATM   18  C   UNK N   1      27.692  18.871   6.459  0.00  0.00     0.012 A 
HETATM   19  C   UNK N   1      27.506  20.049   7.181  0.00  0.00     0.001 A 
HETATM   20  C   UNK N   1      27.158  21.222   6.514  0.00  0.00     0.000 A 
HETATM   21  C   UNK N   1      26.986  21.206   5.127  0.00  0.00     0.001 A 
HETATM   22  C   UNK N   1      27.174  20.019   4.406  0.00  0.00     0.012 A 
ENDBRANCH   4  17
TORSDOF 3
ENDMDL
MODEL 3
REMARK VINA RESULT:      -6.7      7.514     10.187
REMARK  3 active torsions:
REMARK  status: ('A' for Active; 'I' for Inactive)
REMARK    1  A    between atoms: S_1  and  C_10 
REMARK    2  A    between atoms: C_6  and  C_7 
REMARK    3  A    between atoms: C_8  and  C_11 
ROOT
HETATM    1  O   UNK N   1      22.999  20.662   2.318  0.00  0.00    -0.313 OA
HETATM    2  O   UNK N   1      25.174  21.233   2.158  0.00  0.00    -0.259 OA
HETATM    3  C   UNK N   1      23.231  19.104   3.963  0.00  0.00    -0.007 A 
HETATM    4  C   UNK N   1      24.464  19.590   3.718  0.00  0.00     0.059 A 
HETATM    5  C   UNK N   1      22.215  19.809   3.082  0.00  0.00     0.219 A 
HETATM    6  C   UNK N   1      24.294  20.558   2.658  0.00  0.00     0.295 A 
ENDROOT
BRANCH   3   7
HETATM    7  C   UNK N   1      22.861  18.023   4.915  0.00  0.00    -0.027 A 
HETATM    8  C   UNK N   1      23.550  16.794   4.961  0.00  0.00     0.013 A 
HETATM    9  C   UNK N   1      23.108  15.771   5.827  0.00  0.00     0.024 A 
HETATM   10  C   UNK N   1      22.001  16.001   6.664  0.00  0.00     0.058 A 
HETATM   11  C   UNK N   1      21.386  17.244   6.663  0.00  0.00     0.024 A 
HETATM   12  C   UNK N   1      21.815  18.239   5.810  0.00  0.00     0.013 A 
BRANCH  10  13
HETATM   13  S   UNK N   1      21.287  14.763   7.744  0.00  0.00     0.171 S 
HETATM   14  O   UNK N   1      21.732  13.425   7.134  0.00  0.00    -0.223 OA
HETATM   15  O   UNK N   1      19.844  14.704   7.227  0.00  0.00    -0.223 OA
HETATM   16  C   UNK N   1      21.073  14.428   9.515  0.00  0.00     0.167 C 
ENDBRANCH  10  13
ENDBRANCH   3   7
BRANCH   4  17
HETATM   17  C   UNK N   1      25.774  19.301   4.401  0.00  0.00    -0.019 A 
HETATM   18  C   UNK N   1      26.197  20.045   5.515  0.00  0.00     0.012 A 
HETATM   19  C   UNK N   1      27.428  19.804   6.125  0.00  0.00     0.001 A 
HETATM   20  C   UNK N   1      28.273  18.822   5.614  0.00  0.00     0.000 A 
HETATM   21  C   UNK N   1      27.888  18.093   4.485  0.00  0.00     0.001 A 
HETATM   22  C   UNK N   1      26.650  18.339   3.876  0.00  0.00     0.012 A 
ENDBRANCH   4  17
TORSDOF 3
ENDMDL
MODEL 4
REMARK VINA RESULT:      -6.6     12.961     15.322
REMARK  3 active torsions:
REMARK  status: ('A' for Active; 'I' for Inactive)
REMARK    1  A    between atoms: S_1  and  C_10 
REMARK    2  A    between atoms: C_6  and  C_7 
REMARK    3  A    between atoms: C_8  and  C_11 
ROOT
HETATM    1  O   UNK N   1      25.837  27.889  -4.090  0.00  0.00    -0.313 OA
HETATM    2  O   UNK N   1      24.247  27.274  -5.566  0.00  0.00    -0.259 OA
HETATM    3  C   UNK N   1      27.221  26.107  -4.400  0.00  0.00    -0.007 A 
HETATM    4  C   UNK N   1      26.174  25.928  -5.230  0.00  0.00     0.059 A 
HETATM    5  C   UNK N   1      27.063  27.414  -3.645  0.00  0.00     0.219 A 
HETATM    6  C   UNK N   1      25.301  27.057  -4.999  0.00  0.00     0.295 A 
ENDROOT
BRANCH   3   7
HETATM    7  C   UNK N   1      28.372  25.188  -4.191  0.00  0.00    -0.027 A 
HETATM    8  C   UNK N   1      29.612  25.378  -4.833  0.00  0.00     0.013 A 
HETATM    9  C   UNK N   1      30.646  24.431  -4.663  0.00  0.00     0.024 A 
HETATM   10  C   UNK N   1      30.438  23.322  -3.824  0.00  0.00     0.058 A 
HETATM   11  C   UNK N   1      29.240  23.195  -3.137  0.00  0.00     0.024 A 
HETATM   12  C   UNK N   1      28.230  24.117  -3.312  0.00  0.00     0.013 A 
BRANCH  10  13
HETATM   13  S   UNK N   1      31.631  22.006  -3.589  0.00  0.00     0.171 S 
HETATM   14  O   UNK N   1      30.794  20.719  -3.657  0.00  0.00    -0.223 OA
HETATM   15  O   UNK N   1      31.794  22.011  -2.064  0.00  0.00    -0.223 OA
HETATM   16  C   UNK N   1      33.288  21.523  -4.150  0.00  0.00     0.167 C 
ENDBRANCH  10  13
ENDBRANCH   3   7
BRANCH   4  17
HETATM   17  C   UNK N   1      25.922  24.858  -6.258  0.00  0.00    -0.019 A 
HETATM   18  C   UNK N   1      25.782  23.509  -5.890  0.00  0.00     0.012 A 
HETATM   19  C   UNK N   1      25.588  22.511  -6.844  0.00  0.00     0.001 A 
HETATM   20  C   UNK N   1      25.553  22.845  -8.197  0.00  0.00     0.000 A 
HETATM   21  C   UNK N   1      25.725  24.175  -8.588  0.00  0.00     0.001 A 
HETATM   22  C   UNK N   1      25.919  25.174  -7.625  0.00  0.00     0.012 A 
ENDBRANCH   4  17
TORSDOF 3
ENDMDL
MODEL 5
REMARK VINA RESULT:      -6.6     14.422     17.641
REMARK  3 active torsions:
REMARK  status: ('A' for Active; 'I' for Inactive)
REMARK    1  A    between atoms: S_1  and  C_10 
REMARK    2  A    between atoms: C_6  and  C_7 
REMARK    3  A    between atoms: C_8  and  C_11 
ROOT
HETATM    1  O   UNK N   1      25.135  28.047  -4.262  0.00  0.00    -0.313 OA
HETATM    2  O   UNK N   1      26.602  27.880  -2.558  0.00  0.00    -0.259 OA
HETATM    3  C   UNK N   1      25.796  26.185  -5.394  0.00  0.00    -0.007 A 
HETATM    4  C   UNK N   1      26.573  26.263  -4.295  0.00  0.00     0.059 A 
HETATM    5  C   UNK N   1      24.799  27.329  -5.401  0.00  0.00     0.219 A 
HETATM    6  C   UNK N   1      26.151  27.461  -3.607  0.00  0.00     0.295 A 
ENDROOT
BRANCH   3   7
HETATM    7  C   UNK N   1      25.873  25.174  -6.483  0.00  0.00    -0.027 A 
HETATM    8  C   UNK N   1      25.879  23.789  -6.222  0.00  0.00     0.013 A 
HETATM    9  C   UNK N   1      26.036  22.874  -7.286  0.00  0.00     0.024 A 
HETATM   10  C   UNK N   1      26.150  23.354  -8.603  0.00  0.00     0.058 A 
HETATM   11  C   UNK N   1      26.060  24.717  -8.848  0.00  0.00     0.024 A 
HETATM   12  C   UNK N   1      25.916  25.608  -7.805  0.00  0.00     0.013 A 
BRANCH  10  13
HETATM   13  S   UNK N   1      26.438  22.309 -10.030  0.00  0.00     0.171 S 
HETATM   14  O   UNK N   1      25.758  23.055 -11.189  0.00  0.00    -0.223 OA
HETATM   15  O   UNK N   1      25.344  21.249  -9.857  0.00  0.00    -0.223 OA
HETATM   16  C   UNK N   1      27.777  21.357 -10.800  0.00  0.00     0.167 C 
ENDBRANCH  10  13
ENDBRANCH   3   7
BRANCH   4  17
HETATM   17  C   UNK N   1      27.623  25.314  -3.781  0.00  0.00    -0.019 A 
HETATM   18  C   UNK N   1      28.978  25.468  -4.122  0.00  0.00     0.012 A 
HETATM   19  C   UNK N   1      29.946  24.568  -3.679  0.00  0.00     0.001 A 
HETATM   20  C   UNK N   1      29.570  23.477  -2.898  0.00  0.00     0.000 A 
HETATM   21  C   UNK N   1      28.224  23.285  -2.575  0.00  0.00     0.001 A 
HETATM   22  C   UNK N   1      27.255  24.193  -3.023  0.00  0.00     0.012 A 
ENDBRANCH   4  17
TORSDOF 3
ENDMDL
MODEL 6
REMARK VINA RESULT:      -6.4      7.778     10.503
REMARK  3 active torsions:
REMARK  status: ('A' for Active; 'I' for Inactive)
REMARK    1  A    between atoms: S_1  and  C_10 
REMARK    2  A    between atoms: C_6  and  C_7 
REMARK    3  A    between atoms: C_8  and  C_11 
ROOT
HETATM    1  O   UNK N   1      22.140  20.798   2.686  0.00  0.00    -0.313 OA
HETATM    2  O   UNK N   1      24.327  21.209   2.325  0.00  0.00    -0.259 OA
HETATM    3  C   UNK N   1      22.406  18.931   3.963  0.00  0.00    -0.007 A 
HETATM    4  C   UNK N   1      23.644  19.354   3.639  0.00  0.00     0.059 A 
HETATM    5  C   UNK N   1      21.370  19.877   3.383  0.00  0.00     0.219 A 
HETATM    6  C   UNK N   1      23.448  20.523   2.812  0.00  0.00     0.295 A 
ENDROOT
BRANCH   3   7
HETATM    7  C   UNK N   1      22.044  17.716   4.742  0.00  0.00    -0.027 A 
HETATM    8  C   UNK N   1      21.814  17.757   6.133  0.00  0.00     0.013 A 
HETATM    9  C   UNK N   1      21.553  16.561   6.838  0.00  0.00     0.024 A 
HETATM   10  C   UNK N   1      21.491  15.343   6.138  0.00  0.00     0.058 A 
HETATM   11  C   UNK N   1      21.639  15.334   4.759  0.00  0.00     0.024 A 
HETATM   12  C   UNK N   1      21.902  16.502   4.074  0.00  0.00     0.013 A 
BRANCH  10  13
HETATM   13  S   UNK N   1      21.254  13.749   6.920  0.00  0.00     0.171 S 
HETATM   14  O   UNK N   1      20.130  13.991   7.940  0.00  0.00    -0.223 OA
HETATM   15  O   UNK N   1      22.398  13.737   7.941  0.00  0.00    -0.223 OA
HETATM   16  C   UNK N   1      21.120  11.994   6.475  0.00  0.00     0.167 C 
ENDBRANCH  10  13
ENDBRANCH   3   7
BRANCH   4  17
HETATM   17  C   UNK N   1      24.990  18.830   4.062  0.00  0.00    -0.019 A 
HETATM   18  C   UNK N   1      25.517  17.645   3.521  0.00  0.00     0.012 A 
HETATM   19  C   UNK N   1      26.746  17.137   3.940  0.00  0.00     0.001 A 
HETATM   20  C   UNK N   1      27.465  17.799   4.933  0.00  0.00     0.000 A 
HETATM   21  C   UNK N   1      26.945  18.960   5.510  0.00  0.00     0.001 A 
HETATM   22  C   UNK N   1      25.710  19.467   5.084  0.00  0.00     0.012 A 
ENDBRANCH   4  17
TORSDOF 3
ENDMDL
MODEL 7
REMARK VINA RESULT:      -6.4      7.489     11.931
REMARK  3 active torsions:
REMARK  status: ('A' for Active; 'I' for Inactive)
REMARK    1  A    between atoms: S_1  and  C_10 
REMARK    2  A    between atoms: C_6  and  C_7 
REMARK    3  A    between atoms: C_8  and  C_11 
ROOT
HETATM    1  O   UNK N   1      35.038  13.403  19.607  0.00  0.00    -0.313 OA
HETATM    2  O   UNK N   1      35.400  11.367  20.504  0.00  0.00    -0.259 OA
HETATM    3  C   UNK N   1      35.280  12.802  17.423  0.00  0.00    -0.007 A 
HETATM    4  C   UNK N   1      35.456  11.682  18.152  0.00  0.00     0.059 A 
HETATM    5  C   UNK N   1      34.965  13.969  18.342  0.00  0.00     0.219 A 
HETATM    6  C   UNK N   1      35.321  12.092  19.531  0.00  0.00     0.295 A 
ENDROOT
BRANCH   3   7
HETATM    7  C   UNK N   1      35.392  12.944  15.947  0.00  0.00    -0.027 A 
HETATM    8  C   UNK N   1      34.550  12.244  15.059  0.00  0.00     0.013 A 
HETATM    9  C   UNK N   1      34.751  12.352  13.665  0.00  0.00     0.024 A 
HETATM   10  C   UNK N   1      35.773  13.186  13.175  0.00  0.00     0.058 A 
HETATM   11  C   UNK N   1      36.539  13.928  14.061  0.00  0.00     0.024 A 
HETATM   12  C   UNK N   1      36.345  13.814  15.422  0.00  0.00     0.013 A 
BRANCH  10  13
HETATM   13  S   UNK N   1      36.189  13.345  11.440  0.00  0.00     0.171 S 
HETATM   14  O   UNK N   1      35.012  12.685  10.705  0.00  0.00    -0.223 OA
HETATM   15  O   UNK N   1      37.169  12.180  11.253  0.00  0.00    -0.223 OA
HETATM   16  C   UNK N   1      36.839  14.581  10.280  0.00  0.00     0.167 C 
ENDBRANCH  10  13
ENDBRANCH   3   7
BRANCH   4  17
HETATM   17  C   UNK N   1      35.675  10.260  17.708  0.00  0.00    -0.019 A 
HETATM   18  C   UNK N   1      36.790   9.900  16.931  0.00  0.00     0.012 A 
HETATM   19  C   UNK N   1      36.973   8.591  16.486  0.00  0.00     0.001 A 
HETATM   20  C   UNK N   1      36.027   7.617  16.793  0.00  0.00     0.000 A 
HETATM   21  C   UNK N   1      34.893   7.959  17.535  0.00  0.00     0.001 A 
HETATM   22  C   UNK N   1      34.714   9.276  17.981  0.00  0.00     0.012 A 
ENDBRANCH   4  17
TORSDOF 3
ENDMDL
MODEL 8
REMARK VINA RESULT:      -6.3     13.679     16.355
REMARK  3 active torsions:
REMARK  status: ('A' for Active; 'I' for Inactive)
REMARK    1  A    between atoms: S_1  and  C_10 
REMARK    2  A    between atoms: C_6  and  C_7 
REMARK    3  A    between atoms: C_8  and  C_11 
ROOT
HETATM    1  O   UNK N   1      25.493  22.560  -9.269  0.00  0.00    -0.313 OA
HETATM    2  O   UNK N   1      24.652  24.632  -9.554  0.00  0.00    -0.259 OA
HETATM    3  C   UNK N   1      26.879  23.050  -7.529  0.00  0.00    -0.007 A 
HETATM    4  C   UNK N   1      26.252  24.198  -7.856  0.00  0.00     0.059 A 
HETATM    5  C   UNK N   1      26.384  21.922  -8.417  0.00  0.00     0.219 A 
HETATM    6  C   UNK N   1      25.398  23.867  -8.974  0.00  0.00     0.295 A 
ENDROOT
BRANCH   3   7
HETATM    7  C   UNK N   1      27.925  22.858  -6.489  0.00  0.00    -0.027 A 
HETATM    8  C   UNK N   1      27.933  23.597  -5.288  0.00  0.00     0.013 A 
HETATM    9  C   UNK N   1      28.994  23.435  -4.370  0.00  0.00     0.024 A 
HETATM   10  C   UNK N   1      30.017  22.510  -4.647  0.00  0.00     0.058 A 
HETATM   11  C   UNK N   1      29.948  21.734  -5.795  0.00  0.00     0.024 A 
HETATM   12  C   UNK N   1      28.915  21.901  -6.694  0.00  0.00     0.013 A 
BRANCH  10  13
HETATM   13  S   UNK N   1      31.459  22.270  -3.613  0.00  0.00     0.171 S 
HETATM   14  O   UNK N   1      30.968  22.604  -2.195  0.00  0.00    -0.223 OA
HETATM   15  O   UNK N   1      32.216  23.585  -3.835  0.00  0.00    -0.223 OA
HETATM   16  C   UNK N   1      32.812  21.083  -3.378  0.00  0.00     0.167 C 
ENDBRANCH  10  13
ENDBRANCH   3   7
BRANCH   4  17
HETATM   17  C   UNK N   1      26.312  25.554  -7.206  0.00  0.00    -0.019 A 
HETATM   18  C   UNK N   1      27.341  26.464  -7.505  0.00  0.00     0.012 A 
HETATM   19  C   UNK N   1      27.420  27.705  -6.875  0.00  0.00     0.001 A 
HETATM   20  C   UNK N   1      26.476  28.053  -5.911  0.00  0.00     0.000 A 
HETATM   21  C   UNK N   1      25.464  27.150  -5.573  0.00  0.00     0.001 A 
HETATM   22  C   UNK N   1      25.389  25.904  -6.209  0.00  0.00     0.012 A 
ENDBRANCH   4  17
TORSDOF 3
ENDMDL
MODEL 9
REMARK VINA RESULT:      -6.2     15.374     17.726
REMARK  3 active torsions:
REMARK  status: ('A' for Active; 'I' for Inactive)
REMARK    1  A    between atoms: S_1  and  C_10 
REMARK    2  A    between atoms: C_6  and  C_7 
REMARK    3  A    between atoms: C_8  and  C_11 
ROOT
HETATM    1  O   UNK N   1      26.393  29.184  -2.939  0.00  0.00    -0.313 OA
HETATM    2  O   UNK N   1      28.566  29.445  -2.399  0.00  0.00    -0.259 OA
HETATM    3  C   UNK N   1      26.660  27.427  -4.363  0.00  0.00    -0.007 A 
HETATM    4  C   UNK N   1      27.889  27.742  -3.907  0.00  0.00     0.059 A 
HETATM    5  C   UNK N   1      25.625  28.335  -3.723  0.00  0.00     0.219 A 
HETATM    6  C   UNK N   1      27.696  28.870  -3.025  0.00  0.00     0.295 A 
ENDROOT
BRANCH   3   7
HETATM    7  C   UNK N   1      26.310  26.382  -5.363  0.00  0.00    -0.027 A 
HETATM    8  C   UNK N   1      25.925  25.080  -4.984  0.00  0.00     0.013 A 
HETATM    9  C   UNK N   1      25.682  24.102  -5.974  0.00  0.00     0.024 A 
HETATM   10  C   UNK N   1      25.793  24.449  -7.333  0.00  0.00     0.058 A 
HETATM   11  C   UNK N   1      26.093  25.756  -7.686  0.00  0.00     0.024 A 
HETATM   12  C   UNK N   1      26.338  26.706  -6.717  0.00  0.00     0.013 A 
BRANCH  10  13
HETATM   13  S   UNK N   1      25.596  23.287  -8.682  0.00  0.00     0.171 S 
HETATM   14  O   UNK N   1      24.804  24.069  -9.743  0.00  0.00    -0.223 OA
HETATM   15  O   UNK N   1      24.413  22.444  -8.188  0.00  0.00    -0.223 OA
HETATM   16  C   UNK N   1      26.568  22.073  -9.617  0.00  0.00     0.167 C 
ENDBRANCH  10  13
ENDBRANCH   3   7
BRANCH   4  17
HETATM   17  C   UNK N   1      29.215  27.072  -4.151  0.00  0.00    -0.019 A 
HETATM   18  C   UNK N   1      30.201  27.672  -4.951  0.00  0.00     0.012 A 
HETATM   19  C   UNK N   1      31.414  27.035  -5.210  0.00  0.00     0.001 A 
HETATM   20  C   UNK N   1      31.655  25.767  -4.686  0.00  0.00     0.000 A 
HETATM   21  C   UNK N   1      30.675  25.136  -3.915  0.00  0.00     0.001 A 
HETATM   22  C   UNK N   1      29.458  25.781  -3.658  0.00  0.00     0.012 A 
ENDBRANCH   4  17
TORSDOF 3
ENDMDL
