MODEL 1
REMARK VINA RESULT:      -7.8      0.000      0.000
REMARK  4 active torsions:
REMARK  status: ('A' for Active; 'I' for Inactive)
REMARK    1  A    between atoms: O_3  and  C_24 
REMARK    2  A    between atoms: N_5  and  C_8 
REMARK    3  A    between atoms: N_6  and  C_15 
REMARK    4  A    between atoms: C_18  and  C_24 
ROOT
HETATM    1  F   UNK N   1      30.869  16.604   2.457  0.00  0.00    -0.204 F 
HETATM    2  O   UNK N   1      34.290  17.661   5.868  0.00  0.00    -0.286 OA
HETATM    3  N   UNK N   1      30.864  17.396   7.951  0.00  0.00    -0.350 N 
HETATM    4  C   UNK N   1      30.851  17.192   6.591  0.00  0.00     0.051 A 
HETATM    5  C   UNK N   1      32.034  17.684   8.591  0.00  0.00     0.114 A 
HETATM    6  C   UNK N   1      32.048  17.285   5.847  0.00  0.00     0.045 A 
HETATM    7  C   UNK N   1      29.659  16.889   5.918  0.00  0.00     0.063 A 
HETATM    8  C   UNK N   1      29.618  16.671   4.533  0.00  0.00     0.071 A 
HETATM    9  C   UNK N   1      33.249  17.776   7.900  0.00  0.00     0.104 A 
HETATM   10  C   UNK N   1      33.251  17.580   6.506  0.00  0.00     0.202 A 
HETATM   11  C   UNK N   1      32.019  17.089   4.461  0.00  0.00     0.062 A 
HETATM   12  C   UNK N   1      30.825  16.788   3.800  0.00  0.00     0.143 A 
ENDROOT
BRANCH   8  13
HETATM   13  N   UNK N   1      28.362  16.336   3.916  0.00  0.00    -0.375 N 
HETATM   14  C   UNK N   1      27.347  17.364   3.711  0.00  0.00     0.142 C 
HETATM   15  C   UNK N   1      26.010  16.825   3.212  0.00  0.00     0.133 C 
HETATM   16  N   UNK N   1      26.229  15.807   2.202  0.00  0.00    -0.418 N 
HETATM   17  C   UNK N   1      26.771  14.666   2.914  0.00  0.00     0.133 C 
HETATM   18  H   UNK N   1      26.042  15.879   1.202  0.00  0.00     0.153 HD
HETATM   19  C   UNK N   1      28.180  14.972   3.417  0.00  0.00     0.142 C 
ENDBRANCH   8  13
BRANCH   3  20
HETATM   20  C   UNK N   1      29.625  17.374   8.751  0.00  0.00     0.090 A 
HETATM   21  C   UNK N   1      28.808  18.637   8.509  0.00  0.00     0.028 A 
HETATM   22  C   UNK N   1      29.592  18.493   9.786  0.00  0.00     0.028 A 
ENDBRANCH   3  20
BRANCH   9  23
HETATM   23  C   UNK N   1      34.487  18.082   8.666  0.00  0.00     0.181 C 
HETATM   24  O   UNK N   1      34.845  17.367   9.589  0.00  0.00    -0.646 OA
BRANCH  23  25
HETATM   25  O   UNK N   1      35.226  19.162   8.347  0.00  0.00    -0.772 OA
HETATM   26  H   UNK N   1      36.139  19.067   8.156  0.00  0.00     0.167 HD
ENDBRANCH  23  25
ENDBRANCH   9  23
TORSDOF 4
ENDMDL
MODEL 2
REMARK VINA RESULT:      -7.4      5.741      8.798
REMARK  4 active torsions:
REMARK  status: ('A' for Active; 'I' for Inactive)
REMARK    1  A    between atoms: O_3  and  C_24 
REMARK    2  A    between atoms: N_5  and  C_8 
REMARK    3  A    between atoms: N_6  and  C_15 
REMARK    4  A    between atoms: C_18  and  C_24 
ROOT
HETATM    1  F   UNK N   1      28.227  20.239   4.194  0.00  0.00    -0.204 F 
HETATM    2  O   UNK N   1      23.597  21.265   2.790  0.00  0.00    -0.286 OA
HETATM    3  N   UNK N   1      23.355  17.586   4.388  0.00  0.00    -0.350 N 
HETATM    4  C   UNK N   1      24.567  18.234   4.351  0.00  0.00     0.051 A 
HETATM    5  C   UNK N   1      22.239  18.190   3.886  0.00  0.00     0.114 A 
HETATM    6  C   UNK N   1      24.667  19.526   3.789  0.00  0.00     0.045 A 
HETATM    7  C   UNK N   1      25.723  17.631   4.866  0.00  0.00     0.063 A 
HETATM    8  C   UNK N   1      26.971  18.270   4.848  0.00  0.00     0.071 A 
HETATM    9  C   UNK N   1      22.283  19.475   3.329  0.00  0.00     0.104 A 
HETATM   10  C   UNK N   1      23.519  20.147   3.276  0.00  0.00     0.202 A 
HETATM   11  C   UNK N   1      25.910  20.169   3.747  0.00  0.00     0.062 A 
HETATM   12  C   UNK N   1      27.056  19.558   4.263  0.00  0.00     0.143 A 
ENDROOT
BRANCH   8  13
HETATM   13  N   UNK N   1      28.108  17.600   5.422  0.00  0.00    -0.375 N 
HETATM   14  C   UNK N   1      28.834  16.595   4.652  0.00  0.00     0.142 C 
HETATM   15  C   UNK N   1      29.898  15.850   5.453  0.00  0.00     0.133 C 
HETATM   16  N   UNK N   1      30.620  16.776   6.305  0.00  0.00    -0.418 N 
HETATM   17  C   UNK N   1      29.679  17.166   7.337  0.00  0.00     0.133 C 
HETATM   18  H   UNK N   1      31.585  17.088   6.199  0.00  0.00     0.153 HD
HETATM   19  C   UNK N   1      28.565  18.026   6.746  0.00  0.00     0.142 C 
ENDBRANCH   8  13
BRANCH   3  20
HETATM   20  C   UNK N   1      23.224  16.211   4.904  0.00  0.00     0.090 A 
HETATM   21  C   UNK N   1      21.757  15.844   5.091  0.00  0.00     0.028 A 
HETATM   22  C   UNK N   1      22.598  16.177   6.293  0.00  0.00     0.028 A 
ENDBRANCH   3  20
BRANCH   9  23
HETATM   23  C   UNK N   1      21.023  20.074   2.813  0.00  0.00     0.181 C 
HETATM   24  O   UNK N   1      20.292  19.446   2.063  0.00  0.00    -0.646 OA
BRANCH  23  25
HETATM   25  O   UNK N   1      20.678  21.327   3.170  0.00  0.00    -0.772 OA
HETATM   26  H   UNK N   1      20.887  21.647   4.026  0.00  0.00     0.167 HD
ENDBRANCH  23  25
ENDBRANCH   9  23
TORSDOF 4
ENDMDL
MODEL 3
REMARK VINA RESULT:      -7.2      8.644     11.097
REMARK  4 active torsions:
REMARK  status: ('A' for Active; 'I' for Inactive)
REMARK    1  A    between atoms: O_3  and  C_24 
REMARK    2  A    between atoms: N_5  and  C_8 
REMARK    3  A    between atoms: N_6  and  C_15 
REMARK    4  A    between atoms: C_18  and  C_24 
ROOT
HETATM    1  F   UNK N   1      18.758  15.016   5.715  0.00  0.00    -0.204 F 
HETATM    2  O   UNK N   1      19.072  18.534   2.253  0.00  0.00    -0.286 OA
HETATM    3  N   UNK N   1      22.623  18.670   4.129  0.00  0.00    -0.350 N 
HETATM    4  C   UNK N   1      21.677  17.756   4.530  0.00  0.00     0.051 A 
HETATM    5  C   UNK N   1      22.360  19.526   3.100  0.00  0.00     0.114 A 
HETATM    6  C   UNK N   1      20.424  17.700   3.881  0.00  0.00     0.045 A 
HETATM    7  C   UNK N   1      21.933  16.867   5.582  0.00  0.00     0.063 A 
HETATM    8  C   UNK N   1      20.989  15.920   6.007  0.00  0.00     0.071 A 
HETATM    9  C   UNK N   1      21.136  19.501   2.416  0.00  0.00     0.104 A 
HETATM   10  C   UNK N   1      20.154  18.578   2.820  0.00  0.00     0.202 A 
HETATM   11  C   UNK N   1      19.464  16.773   4.307  0.00  0.00     0.062 A 
HETATM   12  C   UNK N   1      19.730  15.892   5.358  0.00  0.00     0.143 A 
ENDROOT
BRANCH   8  13
HETATM   13  N   UNK N   1      21.334  15.021   7.076  0.00  0.00    -0.375 N 
HETATM   14  C   UNK N   1      22.117  13.820   6.802  0.00  0.00     0.142 C 
HETATM   15  C   UNK N   1      22.251  12.880   7.996  0.00  0.00     0.133 C 
HETATM   16  N   UNK N   1      22.488  13.643   9.207  0.00  0.00    -0.418 N 
HETATM   17  C   UNK N   1      21.236  14.320   9.489  0.00  0.00     0.133 C 
HETATM   18  H   UNK N   1      23.352  13.694   9.745  0.00  0.00     0.153 HD
HETATM   19  C   UNK N   1      20.964  15.396   8.442  0.00  0.00     0.142 C 
ENDBRANCH   8  13
BRANCH   3  20
HETATM   20  C   UNK N   1      23.916  18.805   4.826  0.00  0.00     0.090 A 
HETATM   21  C   UNK N   1      24.908  19.585   3.972  0.00  0.00     0.028 A 
HETATM   22  C   UNK N   1      25.042  18.090   4.088  0.00  0.00     0.028 A 
ENDBRANCH   3  20
BRANCH   9  23
HETATM   23  C   UNK N   1      20.925  20.456   1.295  0.00  0.00     0.181 C 
HETATM   24  O   UNK N   1      20.957  21.662   1.485  0.00  0.00    -0.646 OA
BRANCH  23  25
HETATM   25  O   UNK N   1      20.691  19.993   0.052  0.00  0.00    -0.772 OA
HETATM   26  H   UNK N   1      20.113  20.456  -0.522  0.00  0.00     0.167 HD
ENDBRANCH  23  25
ENDBRANCH   9  23
TORSDOF 4
ENDMDL
MODEL 4
REMARK VINA RESULT:      -6.9      9.984     11.856
REMARK  4 active torsions:
REMARK  status: ('A' for Active; 'I' for Inactive)
REMARK    1  A    between atoms: O_3  and  C_24 
REMARK    2  A    between atoms: N_5  and  C_8 
REMARK    3  A    between atoms: N_6  and  C_15 
REMARK    4  A    between atoms: C_18  and  C_24 
ROOT
HETATM    1  F   UNK N   1      19.444  13.035   0.405  0.00  0.00    -0.204 F 
HETATM    2  O   UNK N   1      20.328  17.857  -0.250  0.00  0.00    -0.286 OA
HETATM    3  N   UNK N   1      20.577  17.335   3.727  0.00  0.00    -0.350 N 
HETATM    4  C   UNK N   1      20.301  16.260   2.916  0.00  0.00     0.051 A 
HETATM    5  C   UNK N   1      20.767  18.573   3.186  0.00  0.00     0.114 A 
HETATM    6  C   UNK N   1      20.207  16.430   1.517  0.00  0.00     0.045 A 
HETATM    7  C   UNK N   1      20.107  14.980   3.454  0.00  0.00     0.063 A 
HETATM    8  C   UNK N   1      19.830  13.865   2.650  0.00  0.00     0.071 A 
HETATM    9  C   UNK N   1      20.697  18.792   1.803  0.00  0.00     0.104 A 
HETATM   10  C   UNK N   1      20.406  17.702   0.960  0.00  0.00     0.202 A 
HETATM   11  C   UNK N   1      19.912  15.329   0.703  0.00  0.00     0.062 A 
HETATM   12  C   UNK N   1      19.721  14.058   1.251  0.00  0.00     0.143 A 
ENDROOT
BRANCH   8  13
HETATM   13  N   UNK N   1      19.672  12.577   3.273  0.00  0.00    -0.375 N 
HETATM   14  C   UNK N   1      20.822  11.901   3.864  0.00  0.00     0.142 C 
HETATM   15  C   UNK N   1      20.534  10.475   4.324  0.00  0.00     0.133 C 
HETATM   16  N   UNK N   1      19.239  10.414   4.975  0.00  0.00    -0.418 N 
HETATM   17  C   UNK N   1      18.265  10.595   3.916  0.00  0.00     0.133 C 
HETATM   18  H   UNK N   1      19.054  10.273   5.968  0.00  0.00     0.153 HD
HETATM   19  C   UNK N   1      18.321  12.023   3.379  0.00  0.00     0.142 C 
ENDBRANCH   8  13
BRANCH   3  20
HETATM   20  C   UNK N   1      20.615  17.210   5.196  0.00  0.00     0.090 A 
HETATM   21  C   UNK N   1      21.390  18.367   5.814  0.00  0.00     0.028 A 
HETATM   22  C   UNK N   1      22.033  17.010   5.717  0.00  0.00     0.028 A 
ENDBRANCH   3  20
BRANCH   9  23
HETATM   23  C   UNK N   1      20.928  20.166   1.284  0.00  0.00     0.181 C 
HETATM   24  O   UNK N   1      21.446  21.022   1.985  0.00  0.00    -0.646 OA
BRANCH  23  25
HETATM   25  O   UNK N   1      20.562  20.481   0.026  0.00  0.00    -0.772 OA
HETATM   26  H   UNK N   1      20.626  21.366  -0.275  0.00  0.00     0.167 HD
ENDBRANCH  23  25
ENDBRANCH   9  23
TORSDOF 4
ENDMDL
MODEL 5
REMARK VINA RESULT:      -6.9      7.904      9.975
REMARK  4 active torsions:
REMARK  status: ('A' for Active; 'I' for Inactive)
REMARK    1  A    between atoms: O_3  and  C_24 
REMARK    2  A    between atoms: N_5  and  C_8 
REMARK    3  A    between atoms: N_6  and  C_15 
REMARK    4  A    between atoms: C_18  and  C_24 
ROOT
HETATM    1  F   UNK N   1      18.816  16.816   7.300  0.00  0.00    -0.204 F 
HETATM    2  O   UNK N   1      21.021  13.581  10.323  0.00  0.00    -0.286 OA
HETATM    3  N   UNK N   1      23.647  14.082   7.322  0.00  0.00    -0.350 N 
HETATM    4  C   UNK N   1      22.456  14.770   7.306  0.00  0.00     0.051 A 
HETATM    5  C   UNK N   1      23.937  13.235   8.352  0.00  0.00     0.114 A 
HETATM    6  C   UNK N   1      21.523  14.600   8.353  0.00  0.00     0.045 A 
HETATM    7  C   UNK N   1      22.143  15.648   6.259  0.00  0.00     0.063 A 
HETATM    8  C   UNK N   1      20.940  16.366   6.220  0.00  0.00     0.071 A 
HETATM    9  C   UNK N   1      23.050  13.042   9.420  0.00  0.00     0.104 A 
HETATM   10  C   UNK N   1      21.823  13.732   9.413  0.00  0.00     0.202 A 
HETATM   11  C   UNK N   1      20.308  15.297   8.318  0.00  0.00     0.062 A 
HETATM   12  C   UNK N   1      20.007  16.169   7.269  0.00  0.00     0.143 A 
ENDROOT
BRANCH   8  13
HETATM   13  N   UNK N   1      20.701  17.271   5.127  0.00  0.00    -0.375 N 
HETATM   14  C   UNK N   1      21.411  18.545   5.059  0.00  0.00     0.142 C 
HETATM   15  C   UNK N   1      20.925  19.467   3.946  0.00  0.00     0.133 C 
HETATM   16  N   UNK N   1      20.683  18.704   2.736  0.00  0.00    -0.418 N 
HETATM   17  C   UNK N   1      19.501  17.908   3.011  0.00  0.00     0.133 C 
HETATM   18  H   UNK N   1      21.228  18.723   1.875  0.00  0.00     0.153 HD
HETATM   19  C   UNK N   1      19.812  16.833   4.050  0.00  0.00     0.142 C 
ENDBRANCH   8  13
BRANCH   3  20
HETATM   20  C   UNK N   1      24.615  14.180   6.214  0.00  0.00     0.090 A 
HETATM   21  C   UNK N   1      25.920  13.484   6.578  0.00  0.00     0.028 A 
HETATM   22  C   UNK N   1      25.849  14.987   6.603  0.00  0.00     0.028 A 
ENDBRANCH   3  20
BRANCH   9  23
HETATM   23  C   UNK N   1      23.439  12.112  10.514  0.00  0.00     0.181 C 
HETATM   24  O   UNK N   1      24.549  12.172  11.021  0.00  0.00    -0.646 OA
BRANCH  23  25
HETATM   25  O   UNK N   1      22.564  11.188  10.955  0.00  0.00    -0.772 OA
HETATM   26  H   UNK N   1      22.519  10.982  11.868  0.00  0.00     0.167 HD
ENDBRANCH  23  25
ENDBRANCH   9  23
TORSDOF 4
ENDMDL
MODEL 6
REMARK VINA RESULT:      -6.8     11.925     13.829
REMARK  4 active torsions:
REMARK  status: ('A' for Active; 'I' for Inactive)
REMARK    1  A    between atoms: O_3  and  C_24 
REMARK    2  A    between atoms: N_5  and  C_8 
REMARK    3  A    between atoms: N_6  and  C_15 
REMARK    4  A    between atoms: C_18  and  C_24 
ROOT
HETATM    1  F   UNK N   1      29.689  18.943  -8.890  0.00  0.00    -0.204 F 
HETATM    2  O   UNK N   1      31.326  20.182  -4.390  0.00  0.00    -0.286 OA
HETATM    3  N   UNK N   1      28.857  23.185  -5.408  0.00  0.00    -0.350 N 
HETATM    4  C   UNK N   1      29.050  22.138  -6.278  0.00  0.00     0.051 A 
HETATM    5  C   UNK N   1      29.499  23.204  -4.204  0.00  0.00     0.114 A 
HETATM    6  C   UNK N   1      29.918  21.077  -5.934  0.00  0.00     0.045 A 
HETATM    7  C   UNK N   1      28.395  22.098  -7.517  0.00  0.00     0.063 A 
HETATM    8  C   UNK N   1      28.568  21.041  -8.421  0.00  0.00     0.071 A 
HETATM    9  C   UNK N   1      30.361  22.171  -3.811  0.00  0.00     0.104 A 
HETATM   10  C   UNK N   1      30.575  21.097  -4.695  0.00  0.00     0.202 A 
HETATM   11  C   UNK N   1      30.115  20.024  -6.835  0.00  0.00     0.062 A 
HETATM   12  C   UNK N   1      29.457  19.995  -8.068  0.00  0.00     0.143 A 
ENDROOT
BRANCH   8  13
HETATM   13  N   UNK N   1      27.839  21.055  -9.662  0.00  0.00    -0.375 N 
HETATM   14  C   UNK N   1      26.382  21.147  -9.657  0.00  0.00     0.142 C 
HETATM   15  C   UNK N   1      25.745  20.974 -11.033  0.00  0.00     0.133 C 
HETATM   16  N   UNK N   1      26.517  21.688 -12.033  0.00  0.00    -0.418 N 
HETATM   17  C   UNK N   1      27.753  20.942 -12.172  0.00  0.00     0.133 C 
HETATM   18  H   UNK N   1      26.247  22.535 -12.531  0.00  0.00     0.153 HD
HETATM   19  C   UNK N   1      28.602  21.076 -10.911  0.00  0.00     0.142 C 
ENDBRANCH   8  13
BRANCH   3  20
HETATM   20  C   UNK N   1      28.013  24.341  -5.760  0.00  0.00     0.090 A 
HETATM   21  C   UNK N   1      27.558  25.076  -4.505  0.00  0.00     0.028 A 
HETATM   22  C   UNK N   1      26.588  24.190  -5.239  0.00  0.00     0.028 A 
ENDBRANCH   3  20
BRANCH   9  23
HETATM   23  C   UNK N   1      31.016  22.254  -2.479  0.00  0.00     0.181 C 
HETATM   24  O   UNK N   1      30.559  22.968  -1.599  0.00  0.00    -0.646 OA
BRANCH  23  25
HETATM   25  O   UNK N   1      32.130  21.538  -2.231  0.00  0.00    -0.772 OA
HETATM   26  H   UNK N   1      32.843  21.552  -2.838  0.00  0.00     0.167 HD
ENDBRANCH  23  25
ENDBRANCH   9  23
TORSDOF 4
ENDMDL
MODEL 7
REMARK VINA RESULT:      -6.8      7.772      9.846
REMARK  4 active torsions:
REMARK  status: ('A' for Active; 'I' for Inactive)
REMARK    1  A    between atoms: O_3  and  C_24 
REMARK    2  A    between atoms: N_5  and  C_8 
REMARK    3  A    between atoms: N_6  and  C_15 
REMARK    4  A    between atoms: C_18  and  C_24 
ROOT
HETATM    1  F   UNK N   1      24.203  16.753   3.870  0.00  0.00    -0.204 F 
HETATM    2  O   UNK N   1      20.851  18.729   6.923  0.00  0.00    -0.286 OA
HETATM    3  N   UNK N   1      21.241  14.940   8.200  0.00  0.00    -0.350 N 
HETATM    4  C   UNK N   1      21.985  15.377   7.130  0.00  0.00     0.051 A 
HETATM    5  C   UNK N   1      20.376  15.788   8.828  0.00  0.00     0.114 A 
HETATM    6  C   UNK N   1      21.855  16.705   6.668  0.00  0.00     0.045 A 
HETATM    7  C   UNK N   1      22.883  14.520   6.476  0.00  0.00     0.063 A 
HETATM    8  C   UNK N   1      23.658  14.941   5.386  0.00  0.00     0.071 A 
HETATM    9  C   UNK N   1      20.220  17.119   8.416  0.00  0.00     0.104 A 
HETATM   10  C   UNK N   1      20.967  17.578   7.315  0.00  0.00     0.202 A 
HETATM   11  C   UNK N   1      22.609  17.134   5.569  0.00  0.00     0.062 A 
HETATM   12  C   UNK N   1      23.500  16.272   4.925  0.00  0.00     0.143 A 
ENDROOT
BRANCH   8  13
HETATM   13  N   UNK N   1      24.579  14.013   4.785  0.00  0.00    -0.375 N 
HETATM   14  C   UNK N   1      24.107  13.039   3.807  0.00  0.00     0.142 C 
HETATM   15  C   UNK N   1      25.159  12.014   3.394  0.00  0.00     0.133 C 
HETATM   16  N   UNK N   1      26.443  12.665   3.212  0.00  0.00    -0.418 N 
HETATM   17  C   UNK N   1      26.882  13.033   4.544  0.00  0.00     0.133 C 
HETATM   18  H   UNK N   1      26.933  12.828   2.332  0.00  0.00     0.153 HD
HETATM   19  C   UNK N   1      26.001  14.145   5.107  0.00  0.00     0.142 C 
ENDBRANCH   8  13
BRANCH   3  20
HETATM   20  C   UNK N   1      21.299  13.542   8.667  0.00  0.00     0.090 A 
HETATM   21  C   UNK N   1      20.695  13.415  10.060  0.00  0.00     0.028 A 
HETATM   22  C   UNK N   1      22.191  13.384   9.894  0.00  0.00     0.028 A 
ENDBRANCH   3  20
BRANCH   9  23
HETATM   23  C   UNK N   1      19.267  17.988   9.156  0.00  0.00     0.181 C 
HETATM   24  O   UNK N   1      18.116  17.629   9.355  0.00  0.00    -0.646 OA
BRANCH  23  25
HETATM   25  O   UNK N   1      19.669  19.190   9.613  0.00  0.00    -0.772 OA
HETATM   26  H   UNK N   1      20.474  19.563   9.313  0.00  0.00     0.167 HD
ENDBRANCH  23  25
ENDBRANCH   9  23
TORSDOF 4
ENDMDL
MODEL 8
REMARK VINA RESULT:      -6.8      2.705      4.252
REMARK  4 active torsions:
REMARK  status: ('A' for Active; 'I' for Inactive)
REMARK    1  A    between atoms: O_3  and  C_24 
REMARK    2  A    between atoms: N_5  and  C_8 
REMARK    3  A    between atoms: N_6  and  C_15 
REMARK    4  A    between atoms: C_18  and  C_24 
ROOT
HETATM    1  F   UNK N   1      28.553  18.529   8.757  0.00  0.00    -0.204 F 
HETATM    2  O   UNK N   1      33.099  16.601   9.022  0.00  0.00    -0.286 OA
HETATM    3  N   UNK N   1      32.069  16.179   5.161  0.00  0.00    -0.350 N 
HETATM    4  C   UNK N   1      31.189  16.768   6.040  0.00  0.00     0.051 A 
HETATM    5  C   UNK N   1      33.285  15.742   5.597  0.00  0.00     0.114 A 
HETATM    6  C   UNK N   1      31.538  16.919   7.400  0.00  0.00     0.045 A 
HETATM    7  C   UNK N   1      29.937  17.228   5.609  0.00  0.00     0.063 A 
HETATM    8  C   UNK N   1      29.024  17.837   6.481  0.00  0.00     0.071 A 
HETATM    9  C   UNK N   1      33.683  15.880   6.934  0.00  0.00     0.104 A 
HETATM   10  C   UNK N   1      32.790  16.472   7.847  0.00  0.00     0.202 A 
HETATM   11  C   UNK N   1      30.629  17.509   8.287  0.00  0.00     0.062 A 
HETATM   12  C   UNK N   1      29.383  17.963   7.846  0.00  0.00     0.143 A 
ENDROOT
BRANCH   8  13
HETATM   13  N   UNK N   1      27.769  18.311   5.960  0.00  0.00    -0.375 N 
HETATM   14  C   UNK N   1      26.755  17.361   5.510  0.00  0.00     0.142 C 
HETATM   15  C   UNK N   1      25.558  18.011   4.823  0.00  0.00     0.133 C 
HETATM   16  N   UNK N   1      25.166  19.212   5.536  0.00  0.00    -0.418 N 
HETATM   17  C   UNK N   1      26.222  20.175   5.284  0.00  0.00     0.133 C 
HETATM   18  H   UNK N   1      24.326  19.350   6.096  0.00  0.00     0.153 HD
HETATM   19  C   UNK N   1      27.508  19.751   5.989  0.00  0.00     0.142 C 
ENDBRANCH   8  13
BRANCH   3  20
HETATM   20  C   UNK N   1      31.713  15.942   3.750  0.00  0.00     0.090 A 
HETATM   21  C   UNK N   1      32.963  15.682   2.918  0.00  0.00     0.028 A 
HETATM   22  C   UNK N   1      32.277  17.019   2.829  0.00  0.00     0.028 A 
ENDBRANCH   3  20
BRANCH   9  23
HETATM   23  C   UNK N   1      35.029  15.390   7.333  0.00  0.00     0.181 C 
HETATM   24  O   UNK N   1      35.929  15.292   6.513  0.00  0.00    -0.646 OA
BRANCH  23  25
HETATM   25  O   UNK N   1      35.268  15.046   8.614  0.00  0.00    -0.772 OA
HETATM   26  H   UNK N   1      35.047  15.636   9.308  0.00  0.00     0.167 HD
ENDBRANCH  23  25
ENDBRANCH   9  23
TORSDOF 4
ENDMDL
MODEL 9
REMARK VINA RESULT:      -6.8      3.870      7.234
REMARK  4 active torsions:
REMARK  status: ('A' for Active; 'I' for Inactive)
REMARK    1  A    between atoms: O_3  and  C_24 
REMARK    2  A    between atoms: N_5  and  C_8 
REMARK    3  A    between atoms: N_6  and  C_15 
REMARK    4  A    between atoms: C_18  and  C_24 
ROOT
HETATM    1  F   UNK N   1      30.238  18.734   9.804  0.00  0.00    -0.204 F 
HETATM    2  O   UNK N   1      26.737  19.705   6.448  0.00  0.00    -0.286 OA
HETATM    3  N   UNK N   1      29.223  17.161   4.578  0.00  0.00    -0.350 N 
HETATM    4  C   UNK N   1      29.484  17.538   5.874  0.00  0.00     0.051 A 
HETATM    5  C   UNK N   1      28.125  17.646   3.930  0.00  0.00     0.114 A 
HETATM    6  C   UNK N   1      28.620  18.434   6.542  0.00  0.00     0.045 A 
HETATM    7  C   UNK N   1      30.605  17.046   6.557  0.00  0.00     0.063 A 
HETATM    8  C   UNK N   1      30.892  17.408   7.881  0.00  0.00     0.071 A 
HETATM    9  C   UNK N   1      27.230  18.528   4.552  0.00  0.00     0.104 A 
HETATM   10  C   UNK N   1      27.490  18.930   5.876  0.00  0.00     0.202 A 
HETATM   11  C   UNK N   1      28.904  18.820   7.858  0.00  0.00     0.062 A 
HETATM   12  C   UNK N   1      30.025  18.324   8.529  0.00  0.00     0.143 A 
ENDROOT
BRANCH   8  13
HETATM   13  N   UNK N   1      32.045  16.839   8.527  0.00  0.00    -0.375 N 
HETATM   14  C   UNK N   1      33.283  17.606   8.630  0.00  0.00     0.142 C 
HETATM   15  C   UNK N   1      34.463  16.809   9.178  0.00  0.00     0.133 C 
HETATM   16  N   UNK N   1      34.030  15.974  10.282  0.00  0.00    -0.418 N 
HETATM   17  C   UNK N   1      33.212  14.936   9.685  0.00  0.00     0.133 C 
HETATM   18  H   UNK N   1      34.253  16.093  11.270  0.00  0.00     0.153 HD
HETATM   19  C   UNK N   1      31.906  15.525   9.156  0.00  0.00     0.142 C 
ENDBRANCH   8  13
BRANCH   3  20
HETATM   20  C   UNK N   1      30.138  16.283   3.825  0.00  0.00     0.090 A 
HETATM   21  C   UNK N   1      29.437  15.696   2.607  0.00  0.00     0.028 A 
HETATM   22  C   UNK N   1      29.664  14.834   3.819  0.00  0.00     0.028 A 
ENDBRANCH   3  20
BRANCH   9  23
HETATM   23  C   UNK N   1      26.048  19.006   3.787  0.00  0.00     0.181 C 
HETATM   24  O   UNK N   1      25.208  18.219   3.377  0.00  0.00    -0.646 OA
BRANCH  23  25
HETATM   25  O   UNK N   1      25.894  20.320   3.537  0.00  0.00    -0.772 OA
HETATM   26  H   UNK N   1      25.346  20.844   4.088  0.00  0.00     0.167 HD
ENDBRANCH  23  25
ENDBRANCH   9  23
TORSDOF 4
ENDMDL
