MODEL 1
REMARK VINA RESULT:      -6.2      0.000      0.000
REMARK  9 active torsions:
REMARK  status: ('A' for Active; 'I' for Inactive)
REMARK    1  A    between atoms: O_2  and  C_13 
REMARK    2  A    between atoms: O_2  and  C_21 
REMARK    3  A    between atoms: N_3  and  C_20 
REMARK    4  A    between atoms: C_4  and  C_6 
REMARK    5  A    between atoms: C_4  and  C_8 
REMARK    6  A    between atoms: C_5  and  C_7 
REMARK    7  A    between atoms: C_5  and  C_9 
REMARK    8  A    between atoms: C_7  and  C_12 
REMARK    9  A    between atoms: C_20  and  C_21 
ROOT
HETATM    1  C   UNK N   1      27.265  25.737  -5.496  0.00  0.00    -0.009 C 
HETATM    2  C   UNK N   1      26.573  25.213  -6.597  0.00  0.00    -0.035 C 
ENDROOT
BRANCH   1   3
HETATM    3  C   UNK N   1      28.294  24.926  -4.710  0.00  0.00    -0.024 A 
HETATM    4  C   UNK N   1      29.664  24.998  -5.035  0.00  0.00     0.015 A 
HETATM    5  C   UNK N   1      30.625  24.287  -4.310  0.00  0.00     0.037 A 
HETATM    6  C   UNK N   1      30.245  23.502  -3.222  0.00  0.00     0.068 A 
HETATM    7  C   UNK N   1      28.885  23.385  -2.913  0.00  0.00     0.037 A 
HETATM    8  C   UNK N   1      27.928  24.065  -3.666  0.00  0.00     0.015 A 
BRANCH   6   9
HETATM    9  O   UNK N   1      31.204  22.884  -2.486  0.00  0.00    -0.349 OA
BRANCH   9  10
HETATM   10  C   UNK N   1      31.976  21.817  -2.919  0.00  0.00     0.206 C 
BRANCH  10  11
HETATM   11  C   UNK N   1      31.192  20.735  -3.649  0.00  0.00     0.297 C 
BRANCH  11  12
HETATM   12  N   UNK N   1      31.789  20.519  -4.959  0.00  0.00     0.082 N 
HETATM   13  C   UNK N   1      30.826  20.944  -5.958  0.00  0.00     0.309 C 
HETATM   14  C   UNK N   1      32.944  21.395  -5.078  0.00  0.00     0.309 C 
ENDBRANCH  11  12
ENDBRANCH  10  11
ENDBRANCH   9  10
ENDBRANCH   6   9
ENDBRANCH   1   3
BRANCH   1  15
HETATM   15  C   UNK N   1      27.044  27.190  -5.054  0.00  0.00    -0.025 A 
HETATM   16  C   UNK N   1      27.749  28.267  -5.629  0.00  0.00     0.012 A 
HETATM   17  C   UNK N   1      27.529  29.585  -5.222  0.00  0.00     0.001 A 
HETATM   18  C   UNK N   1      26.595  29.858  -4.224  0.00  0.00     0.000 A 
HETATM   19  C   UNK N   1      25.882  28.815  -3.637  0.00  0.00     0.001 A 
HETATM   20  C   UNK N   1      26.104  27.498  -4.050  0.00  0.00     0.012 A 
ENDBRANCH   1  15
BRANCH   2  21
HETATM   21  C   UNK N   1      25.674  26.110  -7.421  0.00  0.00     0.055 C 
BRANCH  21  22
HETATM   22  C   UNK N   1      26.109  26.204  -8.870  0.00  0.00     0.119 C 
HETATM   23 Cl   UNK N   1      27.767  26.842  -8.930  0.00  0.00    -0.130 Cl
ENDBRANCH  21  22
ENDBRANCH   2  21
BRANCH   2  24
HETATM   24  C   UNK N   1      26.591  23.772  -7.059  0.00  0.00    -0.029 A 
HETATM   25  C   UNK N   1      25.440  22.965  -7.043  0.00  0.00     0.012 A 
HETATM   26  C   UNK N   1      25.472  21.653  -7.524  0.00  0.00     0.001 A 
HETATM   27  C   UNK N   1      26.651  21.134  -8.061  0.00  0.00     0.000 A 
HETATM   28  C   UNK N   1      27.790  21.935  -8.135  0.00  0.00     0.001 A 
HETATM   29  C   UNK N   1      27.754  23.246  -7.653  0.00  0.00     0.012 A 
ENDBRANCH   2  24
TORSDOF 9
ENDMDL
MODEL 2
REMARK VINA RESULT:      -6.2     12.035     14.729
REMARK  9 active torsions:
REMARK  status: ('A' for Active; 'I' for Inactive)
REMARK    1  A    between atoms: O_2  and  C_13 
REMARK    2  A    between atoms: O_2  and  C_21 
REMARK    3  A    between atoms: N_3  and  C_20 
REMARK    4  A    between atoms: C_4  and  C_6 
REMARK    5  A    between atoms: C_4  and  C_8 
REMARK    6  A    between atoms: C_5  and  C_7 
REMARK    7  A    between atoms: C_5  and  C_9 
REMARK    8  A    between atoms: C_7  and  C_12 
REMARK    9  A    between atoms: C_20  and  C_21 
ROOT
HETATM    1  C   UNK N   1      28.946  16.262   4.423  0.00  0.00    -0.009 C 
HETATM    2  C   UNK N   1      27.801  17.051   4.599  0.00  0.00    -0.035 C 
ENDROOT
BRANCH   1   3
HETATM    3  C   UNK N   1      30.309  16.654   4.990  0.00  0.00    -0.024 A 
HETATM    4  C   UNK N   1      31.333  17.119   4.140  0.00  0.00     0.015 A 
HETATM    5  C   UNK N   1      32.578  17.512   4.642  0.00  0.00     0.037 A 
HETATM    6  C   UNK N   1      32.825  17.473   6.014  0.00  0.00     0.068 A 
HETATM    7  C   UNK N   1      31.835  16.972   6.868  0.00  0.00     0.037 A 
HETATM    8  C   UNK N   1      30.610  16.545   6.356  0.00  0.00     0.015 A 
BRANCH   6   9
HETATM    9  O   UNK N   1      34.013  17.933   6.484  0.00  0.00    -0.349 OA
BRANCH   9  10
HETATM   10  C   UNK N   1      34.367  18.004   7.823  0.00  0.00     0.206 C 
BRANCH  10  11
HETATM   11  C   UNK N   1      34.869  16.691   8.406  0.00  0.00     0.297 C 
BRANCH  11  12
HETATM   12  N   UNK N   1      34.312  16.521   9.741  0.00  0.00     0.082 N 
HETATM   13  C   UNK N   1      33.738  15.190   9.812  0.00  0.00     0.309 C 
HETATM   14  C   UNK N   1      35.409  16.565  10.695  0.00  0.00     0.309 C 
ENDBRANCH  11  12
ENDBRANCH  10  11
ENDBRANCH   9  10
ENDBRANCH   6   9
ENDBRANCH   1   3
BRANCH   1  15
HETATM   15  C   UNK N   1      28.865  14.924   3.677  0.00  0.00    -0.025 A 
HETATM   16  C   UNK N   1      28.730  13.693   4.351  0.00  0.00     0.012 A 
HETATM   17  C   UNK N   1      28.648  12.484   3.657  0.00  0.00     0.001 A 
HETATM   18  C   UNK N   1      28.700  12.477   2.264  0.00  0.00     0.000 A 
HETATM   19  C   UNK N   1      28.833  13.677   1.569  0.00  0.00     0.001 A 
HETATM   20  C   UNK N   1      28.912  14.884   2.269  0.00  0.00     0.012 A 
ENDBRANCH   1  15
BRANCH   2  21
HETATM   21  C   UNK N   1      26.452  16.540   4.139  0.00  0.00     0.055 C 
BRANCH  21  22
HETATM   22  C   UNK N   1      25.474  16.352   5.282  0.00  0.00     0.119 C 
HETATM   23 Cl   UNK N   1      26.248  15.360   6.538  0.00  0.00    -0.130 Cl
ENDBRANCH  21  22
ENDBRANCH   2  21
BRANCH   2  24
HETATM   24  C   UNK N   1      27.758  18.443   5.191  0.00  0.00    -0.029 A 
HETATM   25  C   UNK N   1      27.483  19.581   4.413  0.00  0.00     0.012 A 
HETATM   26  C   UNK N   1      27.398  20.850   4.994  0.00  0.00     0.001 A 
HETATM   27  C   UNK N   1      27.556  20.998   6.373  0.00  0.00     0.000 A 
HETATM   28  C   UNK N   1      27.777  19.876   7.171  0.00  0.00     0.001 A 
HETATM   29  C   UNK N   1      27.860  18.611   6.585  0.00  0.00     0.012 A 
ENDBRANCH   2  24
TORSDOF 9
ENDMDL
MODEL 3
REMARK VINA RESULT:      -6.1     10.787     13.597
REMARK  9 active torsions:
REMARK  status: ('A' for Active; 'I' for Inactive)
REMARK    1  A    between atoms: O_2  and  C_13 
REMARK    2  A    between atoms: O_2  and  C_21 
REMARK    3  A    between atoms: N_3  and  C_20 
REMARK    4  A    between atoms: C_4  and  C_6 
REMARK    5  A    between atoms: C_4  and  C_8 
REMARK    6  A    between atoms: C_5  and  C_7 
REMARK    7  A    between atoms: C_5  and  C_9 
REMARK    8  A    between atoms: C_7  and  C_12 
REMARK    9  A    between atoms: C_20  and  C_21 
ROOT
HETATM    1  C   UNK N   1      28.023  17.598   4.715  0.00  0.00    -0.009 C 
HETATM    2  C   UNK N   1      27.403  18.855   4.695  0.00  0.00    -0.035 C 
ENDROOT
BRANCH   1   3
HETATM    3  C   UNK N   1      27.436  16.381   4.001  0.00  0.00    -0.024 A 
HETATM    4  C   UNK N   1      26.580  15.494   4.683  0.00  0.00     0.015 A 
HETATM    5  C   UNK N   1      26.008  14.391   4.041  0.00  0.00     0.037 A 
HETATM    6  C   UNK N   1      26.259  14.159   2.689  0.00  0.00     0.068 A 
HETATM    7  C   UNK N   1      27.143  15.005   2.008  0.00  0.00     0.037 A 
HETATM    8  C   UNK N   1      27.741  16.079   2.666  0.00  0.00     0.015 A 
BRANCH   6   9
HETATM    9  O   UNK N   1      25.631  13.127   2.068  0.00  0.00    -0.349 OA
BRANCH   9  10
HETATM   10  C   UNK N   1      24.273  13.069   1.796  0.00  0.00     0.206 C 
BRANCH  10  11
HETATM   11  C   UNK N   1      23.824  13.985   0.666  0.00  0.00     0.297 C 
BRANCH  11  12
HETATM   12  N   UNK N   1      22.544  14.582   1.020  0.00  0.00     0.082 N 
HETATM   13  C   UNK N   1      21.513  13.591   0.772  0.00  0.00     0.309 C 
HETATM   14  C   UNK N   1      22.550  14.845   2.449  0.00  0.00     0.309 C 
ENDBRANCH  11  12
ENDBRANCH  10  11
ENDBRANCH   9  10
ENDBRANCH   6   9
ENDBRANCH   1   3
BRANCH   1  15
HETATM   15  C   UNK N   1      29.366  17.401   5.430  0.00  0.00    -0.025 A 
HETATM   16  C   UNK N   1      29.453  17.154   6.815  0.00  0.00     0.012 A 
HETATM   17  C   UNK N   1      30.683  16.967   7.449  0.00  0.00     0.001 A 
HETATM   18  C   UNK N   1      31.863  17.024   6.709  0.00  0.00     0.000 A 
HETATM   19  C   UNK N   1      31.810  17.267   5.338  0.00  0.00     0.001 A 
HETATM   20  C   UNK N   1      30.576  17.451   4.708  0.00  0.00     0.012 A 
ENDBRANCH   1  15
BRANCH   2  21
HETATM   21  C   UNK N   1      28.104  20.053   5.298  0.00  0.00     0.055 C 
BRANCH  21  22
HETATM   22  C   UNK N   1      27.553  20.432   6.659  0.00  0.00     0.119 C 
HETATM   23 Cl   UNK N   1      26.444  21.808   6.464  0.00  0.00    -0.130 Cl
ENDBRANCH  21  22
ENDBRANCH   2  21
BRANCH   2  24
HETATM   24  C   UNK N   1      26.025  19.163   4.149  0.00  0.00    -0.029 A 
HETATM   25  C   UNK N   1      24.861  18.582   4.680  0.00  0.00     0.012 A 
HETATM   26  C   UNK N   1      23.596  18.923   4.191  0.00  0.00     0.001 A 
HETATM   27  C   UNK N   1      23.473  19.878   3.180  0.00  0.00     0.000 A 
HETATM   28  C   UNK N   1      24.612  20.506   2.676  0.00  0.00     0.001 A 
HETATM   29  C   UNK N   1      25.873  20.162   3.168  0.00  0.00     0.012 A 
ENDBRANCH   2  24
TORSDOF 9
ENDMDL
MODEL 4
REMARK VINA RESULT:      -6.1     11.796     14.799
REMARK  9 active torsions:
REMARK  status: ('A' for Active; 'I' for Inactive)
REMARK    1  A    between atoms: O_2  and  C_13 
REMARK    2  A    between atoms: O_2  and  C_21 
REMARK    3  A    between atoms: N_3  and  C_20 
REMARK    4  A    between atoms: C_4  and  C_6 
REMARK    5  A    between atoms: C_4  and  C_8 
REMARK    6  A    between atoms: C_5  and  C_7 
REMARK    7  A    between atoms: C_5  and  C_9 
REMARK    8  A    between atoms: C_7  and  C_12 
REMARK    9  A    between atoms: C_20  and  C_21 
ROOT
HETATM    1  C   UNK N   1      29.834  17.541   5.736  0.00  0.00    -0.009 C 
HETATM    2  C   UNK N   1      30.086  17.631   7.112  0.00  0.00    -0.035 C 
ENDROOT
BRANCH   1   3
HETATM    3  C   UNK N   1      30.776  16.816   4.775  0.00  0.00    -0.024 A 
HETATM    4  C   UNK N   1      31.818  17.513   4.131  0.00  0.00     0.015 A 
HETATM    5  C   UNK N   1      32.709  16.863   3.271  0.00  0.00     0.037 A 
HETATM    6  C   UNK N   1      32.596  15.491   3.049  0.00  0.00     0.068 A 
HETATM    7  C   UNK N   1      31.539  14.793   3.645  0.00  0.00     0.037 A 
HETATM    8  C   UNK N   1      30.630  15.455   4.470  0.00  0.00     0.015 A 
BRANCH   6   9
HETATM    9  O   UNK N   1      33.519  14.870   2.272  0.00  0.00    -0.349 OA
BRANCH   9  10
HETATM   10  C   UNK N   1      34.043  13.609   2.510  0.00  0.00     0.206 C 
BRANCH  10  11
HETATM   11  C   UNK N   1      35.256  13.601   3.431  0.00  0.00     0.297 C 
BRANCH  11  12
HETATM   12  N   UNK N   1      34.961  12.778   4.596  0.00  0.00     0.082 N 
HETATM   13  C   UNK N   1      34.505  13.660   5.654  0.00  0.00     0.309 C 
HETATM   14  C   UNK N   1      33.850  11.903   4.259  0.00  0.00     0.309 C 
ENDBRANCH  11  12
ENDBRANCH  10  11
ENDBRANCH   9  10
ENDBRANCH   6   9
ENDBRANCH   1   3
BRANCH   1  15
HETATM   15  C   UNK N   1      28.555  18.138   5.136  0.00  0.00    -0.025 A 
HETATM   16  C   UNK N   1      28.467  19.488   4.743  0.00  0.00     0.012 A 
HETATM   17  C   UNK N   1      27.298  20.014   4.189  0.00  0.00     0.001 A 
HETATM   18  C   UNK N   1      26.183  19.197   4.013  0.00  0.00     0.000 A 
HETATM   19  C   UNK N   1      26.239  17.858   4.391  0.00  0.00     0.001 A 
HETATM   20  C   UNK N   1      27.412  17.336   4.943  0.00  0.00     0.012 A 
ENDBRANCH   1  15
BRANCH   2  21
HETATM   21  C   UNK N   1      29.047  18.235   8.033  0.00  0.00     0.055 C 
BRANCH  21  22
HETATM   22  C   UNK N   1      28.201  17.188   8.729  0.00  0.00     0.119 C 
HETATM   23 Cl   UNK N   1      28.871  16.898  10.351  0.00  0.00    -0.130 Cl
ENDBRANCH  21  22
ENDBRANCH   2  21
BRANCH   2  24
HETATM   24  C   UNK N   1      31.358  17.210   7.817  0.00  0.00    -0.029 A 
HETATM   25  C   UNK N   1      31.605  15.876   8.186  0.00  0.00     0.012 A 
HETATM   26  C   UNK N   1      32.810  15.506   8.790  0.00  0.00     0.001 A 
HETATM   27  C   UNK N   1      33.804  16.461   9.008  0.00  0.00     0.000 A 
HETATM   28  C   UNK N   1      33.601  17.779   8.602  0.00  0.00     0.001 A 
HETATM   29  C   UNK N   1      32.395  18.145   7.998  0.00  0.00     0.012 A 
ENDBRANCH   2  24
TORSDOF 9
ENDMDL
MODEL 5
REMARK VINA RESULT:      -6.1     11.784     13.898
REMARK  9 active torsions:
REMARK  status: ('A' for Active; 'I' for Inactive)
REMARK    1  A    between atoms: O_2  and  C_13 
REMARK    2  A    between atoms: O_2  and  C_21 
REMARK    3  A    between atoms: N_3  and  C_20 
REMARK    4  A    between atoms: C_4  and  C_6 
REMARK    5  A    between atoms: C_4  and  C_8 
REMARK    6  A    between atoms: C_5  and  C_7 
REMARK    7  A    between atoms: C_5  and  C_9 
REMARK    8  A    between atoms: C_7  and  C_12 
REMARK    9  A    between atoms: C_20  and  C_21 
ROOT
HETATM    1  C   UNK N   1      28.800  17.503   4.784  0.00  0.00    -0.009 C 
HETATM    2  C   UNK N   1      28.131  16.534   4.024  0.00  0.00    -0.035 C 
ENDROOT
BRANCH   1   3
HETATM    3  C   UNK N   1      30.255  17.344   5.223  0.00  0.00    -0.024 A 
HETATM    4  C   UNK N   1      31.309  17.654   4.340  0.00  0.00     0.015 A 
HETATM    5  C   UNK N   1      32.647  17.544   4.732  0.00  0.00     0.037 A 
HETATM    6  C   UNK N   1      32.967  17.142   6.028  0.00  0.00     0.068 A 
HETATM    7  C   UNK N   1      31.934  16.787   6.903  0.00  0.00     0.037 A 
HETATM    8  C   UNK N   1      30.603  16.861   6.493  0.00  0.00     0.015 A 
BRANCH   6   9
HETATM    9  O   UNK N   1      34.271  17.117   6.408  0.00  0.00    -0.349 OA
BRANCH   9  10
HETATM   10  C   UNK N   1      34.768  16.431   7.505  0.00  0.00     0.206 C 
BRANCH  10  11
HETATM   11  C   UNK N   1      34.756  17.231   8.800  0.00  0.00     0.297 C 
BRANCH  11  12
HETATM   12  N   UNK N   1      34.480  16.331   9.911  0.00  0.00     0.082 N 
HETATM   13  C   UNK N   1      34.607  14.972   9.419  0.00  0.00     0.309 C 
HETATM   14  C   UNK N   1      35.516  16.522  10.913  0.00  0.00     0.309 C 
ENDBRANCH  11  12
ENDBRANCH  10  11
ENDBRANCH   9  10
ENDBRANCH   6   9
ENDBRANCH   1   3
BRANCH   1  15
HETATM   15  C   UNK N   1      28.098  18.810   5.175  0.00  0.00    -0.025 A 
HETATM   16  C   UNK N   1      27.643  19.736   4.215  0.00  0.00     0.012 A 
HETATM   17  C   UNK N   1      26.997  20.917   4.587  0.00  0.00     0.001 A 
HETATM   18  C   UNK N   1      26.790  21.202   5.935  0.00  0.00     0.000 A 
HETATM   19  C   UNK N   1      27.228  20.306   6.908  0.00  0.00     0.001 A 
HETATM   20  C   UNK N   1      27.872  19.125   6.530  0.00  0.00     0.012 A 
ENDBRANCH   1  15
BRANCH   2  21
HETATM   21  C   UNK N   1      26.739  16.813   3.499  0.00  0.00     0.055 C 
BRANCH  21  22
HETATM   22  C   UNK N   1      25.684  15.931   4.137  0.00  0.00     0.119 C 
HETATM   23 Cl   UNK N   1      25.809  16.077   5.905  0.00  0.00    -0.130 Cl
ENDBRANCH  21  22
ENDBRANCH   2  21
BRANCH   2  24
HETATM   24  C   UNK N   1      28.648  15.153   3.683  0.00  0.00    -0.029 A 
HETATM   25  C   UNK N   1      28.789  14.144   4.651  0.00  0.00     0.012 A 
HETATM   26  C   UNK N   1      29.221  12.861   4.300  0.00  0.00     0.001 A 
HETATM   27  C   UNK N   1      29.489  12.556   2.965  0.00  0.00     0.000 A 
HETATM   28  C   UNK N   1      29.305  13.527   1.981  0.00  0.00     0.001 A 
HETATM   29  C   UNK N   1      28.874  14.807   2.337  0.00  0.00     0.012 A 
ENDBRANCH   2  24
TORSDOF 9
ENDMDL
MODEL 6
REMARK VINA RESULT:      -6.0     11.759     14.593
REMARK  9 active torsions:
REMARK  status: ('A' for Active; 'I' for Inactive)
REMARK    1  A    between atoms: O_2  and  C_13 
REMARK    2  A    between atoms: O_2  and  C_21 
REMARK    3  A    between atoms: N_3  and  C_20 
REMARK    4  A    between atoms: C_4  and  C_6 
REMARK    5  A    between atoms: C_4  and  C_8 
REMARK    6  A    between atoms: C_5  and  C_7 
REMARK    7  A    between atoms: C_5  and  C_9 
REMARK    8  A    between atoms: C_7  and  C_12 
REMARK    9  A    between atoms: C_20  and  C_21 
ROOT
HETATM    1  C   UNK N   1      29.922  17.528   5.822  0.00  0.00    -0.009 C 
HETATM    2  C   UNK N   1      30.186  17.620   7.196  0.00  0.00    -0.035 C 
ENDROOT
BRANCH   1   3
HETATM    3  C   UNK N   1      30.873  16.835   4.848  0.00  0.00    -0.024 A 
HETATM    4  C   UNK N   1      31.844  17.575   4.143  0.00  0.00     0.015 A 
HETATM    5  C   UNK N   1      32.743  16.956   3.270  0.00  0.00     0.037 A 
HETATM    6  C   UNK N   1      32.713  15.573   3.096  0.00  0.00     0.068 A 
HETATM    7  C   UNK N   1      31.727  14.828   3.754  0.00  0.00     0.037 A 
HETATM    8  C   UNK N   1      30.807  15.458   4.592  0.00  0.00     0.015 A 
BRANCH   6   9
HETATM    9  O   UNK N   1      33.646  14.986   2.303  0.00  0.00    -0.349 OA
BRANCH   9  10
HETATM   10  C   UNK N   1      33.827  13.619   2.161  0.00  0.00     0.206 C 
BRANCH  10  11
HETATM   11  C   UNK N   1      34.677  13.223   0.962  0.00  0.00     0.297 C 
BRANCH  11  12
HETATM   12  N   UNK N   1      35.828  14.111   0.882  0.00  0.00     0.082 N 
HETATM   13  C   UNK N   1      36.954  13.426   1.489  0.00  0.00     0.309 C 
HETATM   14  C   UNK N   1      36.151  14.304  -0.522  0.00  0.00     0.309 C 
ENDBRANCH  11  12
ENDBRANCH  10  11
ENDBRANCH   9  10
ENDBRANCH   6   9
ENDBRANCH   1   3
BRANCH   1  15
HETATM   15  C   UNK N   1      28.621  18.092   5.237  0.00  0.00    -0.025 A 
HETATM   16  C   UNK N   1      27.453  17.313   5.111  0.00  0.00     0.012 A 
HETATM   17  C   UNK N   1      26.273  17.845   4.585  0.00  0.00     0.001 A 
HETATM   18  C   UNK N   1      26.233  19.174   4.170  0.00  0.00     0.000 A 
HETATM   19  C   UNK N   1      27.372  19.970   4.282  0.00  0.00     0.001 A 
HETATM   20  C   UNK N   1      28.549  19.433   4.811  0.00  0.00     0.012 A 
ENDBRANCH   1  15
BRANCH   2  21
HETATM   21  C   UNK N   1      29.140  18.191   8.130  0.00  0.00     0.055 C 
BRANCH  21  22
HETATM   22  C   UNK N   1      28.341  17.118   8.843  0.00  0.00     0.119 C 
HETATM   23 Cl   UNK N   1      29.011  16.897  10.475  0.00  0.00    -0.130 Cl
ENDBRANCH  21  22
ENDBRANCH   2  21
BRANCH   2  24
HETATM   24  C   UNK N   1      31.475  17.232   7.886  0.00  0.00    -0.029 A 
HETATM   25  C   UNK N   1      31.714  15.927   8.352  0.00  0.00     0.012 A 
HETATM   26  C   UNK N   1      32.935  15.583   8.940  0.00  0.00     0.001 A 
HETATM   27  C   UNK N   1      33.952  16.532   9.044  0.00  0.00     0.000 A 
HETATM   28  C   UNK N   1      33.756  17.818   8.541  0.00  0.00     0.001 A 
HETATM   29  C   UNK N   1      32.535  18.157   7.954  0.00  0.00     0.012 A 
ENDBRANCH   2  24
TORSDOF 9
ENDMDL
MODEL 7
REMARK VINA RESULT:      -6.0     18.078     22.598
REMARK  9 active torsions:
REMARK  status: ('A' for Active; 'I' for Inactive)
REMARK    1  A    between atoms: O_2  and  C_13 
REMARK    2  A    between atoms: O_2  and  C_21 
REMARK    3  A    between atoms: N_3  and  C_20 
REMARK    4  A    between atoms: C_4  and  C_6 
REMARK    5  A    between atoms: C_4  and  C_8 
REMARK    6  A    between atoms: C_5  and  C_7 
REMARK    7  A    between atoms: C_5  and  C_9 
REMARK    8  A    between atoms: C_7  and  C_12 
REMARK    9  A    between atoms: C_20  and  C_21 
ROOT
HETATM    1  C   UNK N   1      36.372  13.295  13.000  0.00  0.00    -0.009 C 
HETATM    2  C   UNK N   1      37.262  12.297  12.583  0.00  0.00    -0.035 C 
ENDROOT
BRANCH   1   3
HETATM    3  C   UNK N   1      35.663  14.227  12.017  0.00  0.00    -0.024 A 
HETATM    4  C   UNK N   1      36.045  15.579  11.907  0.00  0.00     0.015 A 
HETATM    5  C   UNK N   1      35.430  16.440  10.993  0.00  0.00     0.037 A 
HETATM    6  C   UNK N   1      34.430  15.965  10.145  0.00  0.00     0.068 A 
HETATM    7  C   UNK N   1      34.008  14.637  10.273  0.00  0.00     0.037 A 
HETATM    8  C   UNK N   1      34.598  13.794  11.214  0.00  0.00     0.015 A 
BRANCH   6   9
HETATM    9  O   UNK N   1      33.903  16.800   9.214  0.00  0.00    -0.349 OA
BRANCH   9  10
HETATM   10  C   UNK N   1      32.759  16.547   8.472  0.00  0.00     0.206 C 
BRANCH  10  11
HETATM   11  C   UNK N   1      31.889  17.773   8.230  0.00  0.00     0.297 C 
BRANCH  11  12
HETATM   12  N   UNK N   1      30.530  17.483   8.665  0.00  0.00     0.082 N 
HETATM   13  C   UNK N   1      30.035  18.650   9.372  0.00  0.00     0.309 C 
HETATM   14  C   UNK N   1      29.703  17.319   7.479  0.00  0.00     0.309 C 
ENDBRANCH  11  12
ENDBRANCH  10  11
ENDBRANCH   9  10
ENDBRANCH   6   9
ENDBRANCH   1   3
BRANCH   1  15
HETATM   15  C   UNK N   1      36.031  13.468  14.486  0.00  0.00    -0.025 A 
HETATM   16  C   UNK N   1      34.896  12.874  15.072  0.00  0.00     0.012 A 
HETATM   17  C   UNK N   1      34.605  13.033  16.429  0.00  0.00     0.001 A 
HETATM   18  C   UNK N   1      35.448  13.795  17.237  0.00  0.00     0.000 A 
HETATM   19  C   UNK N   1      36.579  14.395  16.686  0.00  0.00     0.001 A 
HETATM   20  C   UNK N   1      36.866  14.230  15.328  0.00  0.00     0.012 A 
ENDBRANCH   1  15
BRANCH   2  21
HETATM   21  C   UNK N   1      37.821  11.314  13.590  0.00  0.00     0.055 C 
BRANCH  21  22
HETATM   22  C   UNK N   1      36.891  10.144  13.847  0.00  0.00     0.119 C 
HETATM   23 Cl   UNK N   1      36.778   9.878  15.601  0.00  0.00    -0.130 Cl
ENDBRANCH  21  22
ENDBRANCH   2  21
BRANCH   2  24
HETATM   24  C   UNK N   1      37.789  12.099  11.178  0.00  0.00    -0.029 A 
HETATM   25  C   UNK N   1      38.705  12.987  10.588  0.00  0.00     0.012 A 
HETATM   26  C   UNK N   1      39.215  12.753   9.308  0.00  0.00     0.001 A 
HETATM   27  C   UNK N   1      38.841  11.606   8.606  0.00  0.00     0.000 A 
HETATM   28  C   UNK N   1      37.974  10.685   9.194  0.00  0.00     0.001 A 
HETATM   29  C   UNK N   1      37.468  10.923  10.474  0.00  0.00     0.012 A 
ENDBRANCH   2  24
TORSDOF 9
ENDMDL
MODEL 8
REMARK VINA RESULT:      -6.0     11.851     13.676
REMARK  9 active torsions:
REMARK  status: ('A' for Active; 'I' for Inactive)
REMARK    1  A    between atoms: O_2  and  C_13 
REMARK    2  A    between atoms: O_2  and  C_21 
REMARK    3  A    between atoms: N_3  and  C_20 
REMARK    4  A    between atoms: C_4  and  C_6 
REMARK    5  A    between atoms: C_4  and  C_8 
REMARK    6  A    between atoms: C_5  and  C_7 
REMARK    7  A    between atoms: C_5  and  C_9 
REMARK    8  A    between atoms: C_7  and  C_12 
REMARK    9  A    between atoms: C_20  and  C_21 
ROOT
HETATM    1  C   UNK N   1      28.942  17.490   4.881  0.00  0.00    -0.009 C 
HETATM    2  C   UNK N   1      28.232  16.511   4.172  0.00  0.00    -0.035 C 
ENDROOT
BRANCH   1   3
HETATM    3  C   UNK N   1      30.437  17.372   5.171  0.00  0.00    -0.024 A 
HETATM    4  C   UNK N   1      30.891  16.927   6.429  0.00  0.00     0.015 A 
HETATM    5  C   UNK N   1      32.255  16.783   6.705  0.00  0.00     0.037 A 
HETATM    6  C   UNK N   1      33.203  17.060   5.721  0.00  0.00     0.068 A 
HETATM    7  C   UNK N   1      32.771  17.546   4.481  0.00  0.00     0.037 A 
HETATM    8  C   UNK N   1      31.412  17.724   4.226  0.00  0.00     0.015 A 
BRANCH   6   9
HETATM    9  O   UNK N   1      34.516  16.839   5.988  0.00  0.00    -0.349 OA
BRANCH   9  10
HETATM   10  C   UNK N   1      35.038  15.659   6.495  0.00  0.00     0.206 C 
BRANCH  10  11
HETATM   11  C   UNK N   1      35.126  14.528   5.480  0.00  0.00     0.297 C 
BRANCH  11  12
HETATM   12  N   UNK N   1      34.392  13.377   5.987  0.00  0.00     0.082 N 
HETATM   13  C   UNK N   1      34.169  13.587   7.405  0.00  0.00     0.309 C 
HETATM   14  C   UNK N   1      33.087  13.359   5.347  0.00  0.00     0.309 C 
ENDBRANCH  11  12
ENDBRANCH  10  11
ENDBRANCH   9  10
ENDBRANCH   6   9
ENDBRANCH   1   3
BRANCH   1  15
HETATM   15  C   UNK N   1      28.240  18.765   5.366  0.00  0.00    -0.025 A 
HETATM   16  C   UNK N   1      27.980  19.009   6.730  0.00  0.00     0.012 A 
HETATM   17  C   UNK N   1      27.348  20.180   7.155  0.00  0.00     0.001 A 
HETATM   18  C   UNK N   1      26.959  21.140   6.223  0.00  0.00     0.000 A 
HETATM   19  C   UNK N   1      27.203  20.927   4.867  0.00  0.00     0.001 A 
HETATM   20  C   UNK N   1      27.838  19.755   4.447  0.00  0.00     0.012 A 
ENDBRANCH   1  15
BRANCH   2  21
HETATM   21  C   UNK N   1      26.787  16.751   3.792  0.00  0.00     0.055 C 
BRANCH  21  22
HETATM   22  C   UNK N   1      25.832  15.800   4.487  0.00  0.00     0.119 C 
HETATM   23 Cl   UNK N   1      26.112  15.889   6.240  0.00  0.00    -0.130 Cl
ENDBRANCH  21  22
ENDBRANCH   2  21
BRANCH   2  24
HETATM   24  C   UNK N   1      28.758  15.155   3.753  0.00  0.00    -0.029 A 
HETATM   25  C   UNK N   1      29.060  14.146   4.684  0.00  0.00     0.012 A 
HETATM   26  C   UNK N   1      29.495  12.885   4.267  0.00  0.00     0.001 A 
HETATM   27  C   UNK N   1      29.605  12.599   2.906  0.00  0.00     0.000 A 
HETATM   28  C   UNK N   1      29.260  13.568   1.964  0.00  0.00     0.001 A 
HETATM   29  C   UNK N   1      28.825  14.826   2.385  0.00  0.00     0.012 A 
ENDBRANCH   2  24
TORSDOF 9
ENDMDL
MODEL 9
REMARK VINA RESULT:      -5.9     12.155     14.856
REMARK  9 active torsions:
REMARK  status: ('A' for Active; 'I' for Inactive)
REMARK    1  A    between atoms: O_2  and  C_13 
REMARK    2  A    between atoms: O_2  and  C_21 
REMARK    3  A    between atoms: N_3  and  C_20 
REMARK    4  A    between atoms: C_4  and  C_6 
REMARK    5  A    between atoms: C_4  and  C_8 
REMARK    6  A    between atoms: C_5  and  C_7 
REMARK    7  A    between atoms: C_5  and  C_9 
REMARK    8  A    between atoms: C_7  and  C_12 
REMARK    9  A    between atoms: C_20  and  C_21 
ROOT
HETATM    1  C   UNK N   1      30.321  16.870   5.953  0.00  0.00    -0.009 C 
HETATM    2  C   UNK N   1      30.600  17.021   7.318  0.00  0.00    -0.035 C 
ENDROOT
BRANCH   1   3
HETATM    3  C   UNK N   1      31.379  16.433   4.941  0.00  0.00    -0.024 A 
HETATM    4  C   UNK N   1      31.756  15.079   4.837  0.00  0.00     0.015 A 
HETATM    5  C   UNK N   1      32.701  14.653   3.898  0.00  0.00     0.037 A 
HETATM    6  C   UNK N   1      33.277  15.569   3.018  0.00  0.00     0.068 A 
HETATM    7  C   UNK N   1      32.947  16.924   3.137  0.00  0.00     0.037 A 
HETATM    8  C   UNK N   1      32.034  17.347   4.103  0.00  0.00     0.015 A 
BRANCH   6   9
HETATM    9  O   UNK N   1      34.132  15.119   2.064  0.00  0.00    -0.349 OA
BRANCH   9  10
HETATM   10  C   UNK N   1      34.774  13.891   2.085  0.00  0.00     0.206 C 
BRANCH  10  11
HETATM   11  C   UNK N   1      34.537  13.042   0.843  0.00  0.00     0.297 C 
BRANCH  11  12
HETATM   12  N   UNK N   1      33.175  12.527   0.874  0.00  0.00     0.082 N 
HETATM   13  C   UNK N   1      32.916  11.892  -0.405  0.00  0.00     0.309 C 
HETATM   14  C   UNK N   1      33.109  11.489   1.889  0.00  0.00     0.309 C 
ENDBRANCH  11  12
ENDBRANCH  10  11
ENDBRANCH   9  10
ENDBRANCH   6   9
ENDBRANCH   1   3
BRANCH   1  15
HETATM   15  C   UNK N   1      28.902  17.098   5.416  0.00  0.00    -0.025 A 
HETATM   16  C   UNK N   1      28.517  18.303   4.794  0.00  0.00     0.012 A 
HETATM   17  C   UNK N   1      27.223  18.491   4.302  0.00  0.00     0.001 A 
HETATM   18  C   UNK N   1      26.278  17.474   4.422  0.00  0.00     0.000 A 
HETATM   19  C   UNK N   1      26.628  16.271   5.032  0.00  0.00     0.001 A 
HETATM   20  C   UNK N   1      27.925  16.087   5.520  0.00  0.00     0.012 A 
ENDBRANCH   1  15
BRANCH   2  21
HETATM   21  C   UNK N   1      29.479  17.316   8.291  0.00  0.00     0.055 C 
BRANCH  21  22
HETATM   22  C   UNK N   1      29.382  18.787   8.647  0.00  0.00     0.119 C 
HETATM   23 Cl   UNK N   1      27.839  19.423   8.035  0.00  0.00    -0.130 Cl
ENDBRANCH  21  22
ENDBRANCH   2  21
BRANCH   2  24
HETATM   24  C   UNK N   1      31.969  16.960   7.962  0.00  0.00    -0.029 A 
HETATM   25  C   UNK N   1      32.430  15.817   8.637  0.00  0.00     0.012 A 
HETATM   26  C   UNK N   1      33.718  15.769   9.178  0.00  0.00     0.001 A 
HETATM   27  C   UNK N   1      34.581  16.855   9.025  0.00  0.00     0.000 A 
HETATM   28  C   UNK N   1      34.162  17.979   8.314  0.00  0.00     0.001 A 
HETATM   29  C   UNK N   1      32.874  18.022   7.774  0.00  0.00     0.012 A 
ENDBRANCH   2  24
TORSDOF 9
ENDMDL
