REMARK  9 active torsions:
REMARK  status: ('A' for Active; 'I' for Inactive)
REMARK    1  A    between atoms: O_2  and  C_13 
REMARK    2  A    between atoms: O_2  and  C_21 
REMARK    3  A    between atoms: N_3  and  C_20 
REMARK    4  A    between atoms: C_4  and  C_6 
REMARK    5  A    between atoms: C_4  and  C_8 
REMARK    6  A    between atoms: C_5  and  C_7 
REMARK    7  A    between atoms: C_5  and  C_9 
REMARK    8  A    between atoms: C_7  and  C_12 
REMARK    9  A    between atoms: C_20  and  C_21 
ROOT
HETATM    1  C   UNK N   1       4.730   1.993   0.181  0.00  0.00    -0.009 C 
HETATM    2  C   UNK N   1       3.460   2.585   0.220  0.00  0.00    -0.035 C 
ENDROOT
BRANCH   1   3
HETATM    3  C   UNK N   1       4.929   0.481   0.082  0.00  0.00    -0.024 A 
HETATM    4  C   UNK N   1       6.145  -0.110   0.480  0.00  0.00     0.015 A 
HETATM    5  C   UNK N   1       6.337  -1.494   0.426  0.00  0.00     0.037 A 
HETATM    6  C   UNK N   1       5.307  -2.329  -0.006  0.00  0.00     0.068 A 
HETATM    7  C   UNK N   1       4.109  -1.755  -0.447  0.00  0.00     0.037 A 
HETATM    8  C   UNK N   1       3.939  -0.371  -0.428  0.00  0.00     0.015 A 
BRANCH   6   9
HETATM    9  O   UNK N   1       5.491  -3.674   0.024  0.00  0.00    -0.349 OA
BRANCH   9  10
HETATM   10  C   UNK N   1       4.497  -4.609   0.268  0.00  0.00     0.206 C 
BRANCH  10  11
HETATM   11  C   UNK N   1       3.338  -4.559  -0.718  0.00  0.00     0.297 C 
BRANCH  11  12
HETATM   12  N   UNK N   1       2.110  -4.267   0.008  0.00  0.00     0.082 N 
HETATM   13  C   UNK N   1       1.195  -3.623  -0.916  0.00  0.00     0.309 C 
HETATM   14  C   UNK N   1       1.506  -5.531   0.397  0.00  0.00     0.309 C 
ENDBRANCH  11  12
ENDBRANCH  10  11
ENDBRANCH   9  10
ENDBRANCH   6   9
ENDBRANCH   1   3
BRANCH   1  15
HETATM   15  C   UNK N   1       5.996   2.859   0.191  0.00  0.00    -0.025 A 
HETATM   16  C   UNK N   1       6.000   4.181   0.680  0.00  0.00     0.012 A 
HETATM   17  C   UNK N   1       7.164   4.953   0.691  0.00  0.00     0.001 A 
HETATM   18  C   UNK N   1       8.358   4.419   0.210  0.00  0.00     0.000 A 
HETATM   19  C   UNK N   1       8.386   3.115  -0.280  0.00  0.00     0.001 A 
HETATM   20  C   UNK N   1       7.219   2.346  -0.286  0.00  0.00     0.012 A 
ENDBRANCH   1  15
BRANCH   2  21
HETATM   21  C   UNK N   1       3.327   4.092   0.173  0.00  0.00     0.055 C 
BRANCH  21  22
HETATM   22  C   UNK N   1       2.783   4.592  -1.151  0.00  0.00     0.119 C 
HETATM   23 Cl   UNK N   1       2.059   6.197  -0.902  0.00  0.00    -0.130 Cl
ENDBRANCH  21  22
ENDBRANCH   2  21
BRANCH   2  24
HETATM   24  C   UNK N   1       2.139   1.858   0.350  0.00  0.00    -0.029 A 
HETATM   25  C   UNK N   1       1.999   0.687   1.115  0.00  0.00     0.012 A 
HETATM   26  C   UNK N   1       0.756   0.064   1.260  0.00  0.00     0.001 A 
HETATM   27  C   UNK N   1      -0.378   0.621   0.667  0.00  0.00     0.000 A 
HETATM   28  C   UNK N   1      -0.271   1.811  -0.052  0.00  0.00     0.001 A 
HETATM   29  C   UNK N   1       0.973   2.430  -0.194  0.00  0.00     0.012 A 
ENDBRANCH   2  24
TORSDOF 9
