MODEL 1
REMARK VINA RESULT:      -7.2      0.000      0.000
REMARK  13 active torsions:
REMARK  status: ('A' for Active; 'I' for Inactive)
REMARK    1  A    between atoms: C_21  and  O_1 
REMARK    2  A    between atoms: O_1  and  C_37 
REMARK    3  A    between atoms: C_19  and  O_2 
REMARK    4  A    between atoms: O_3  and  C_29 
REMARK    5  A    between atoms: O_6  and  C_35 
REMARK    6  A    between atoms: O_8  and  C_41 
REMARK    7  A    between atoms: C_47  and  O_10 
REMARK    8  A    between atoms: N_12  and  C_33 
REMARK    9  A    between atoms: C_17  and  C_24 
REMARK   10  A    between atoms: C_19  and  C_29 
REMARK   11  A    between atoms: C_34  and  C_36 
REMARK   12  A    between atoms: C_36  and  C_41 
REMARK   13  A    between atoms: C_47  and  C_54 
ROOT
HETATM    1  N   UNK N   1      26.640  12.725   1.868  0.00  0.00     0.098 N 
HETATM    2  N   UNK N   1      26.683  16.848   4.291  0.00  0.00    -0.315 N 
HETATM    3  C   UNK N   1      26.725  14.737   3.166  0.00  0.00     0.047 C 
HETATM    4  C   UNK N   1      27.469  13.918   2.124  0.00  0.00     0.253 C 
HETATM    5  C   UNK N   1      28.908  13.531   2.688  0.00  0.00     0.039 C 
HETATM    6  C   UNK N   1      27.588  15.950   3.612  0.00  0.00     0.155 C 
HETATM    7  C   UNK N   1      29.101  16.038   3.799  0.00  0.00     0.195 C 
HETATM    8  C   UNK N   1      26.293  13.619   4.113  0.00  0.00     0.049 C 
HETATM    9  C   UNK N   1      29.695  14.844   2.999  0.00  0.00     0.193 C 
HETATM   10  C   UNK N   1      25.442  15.533   2.920  0.00  0.00    -0.017 C 
HETATM   11  C   UNK N   1      25.951  12.459   3.139  0.00  0.00     0.274 C 
HETATM   12  C   UNK N   1      29.530  12.739   1.573  0.00  0.00    -0.015 C 
HETATM   13  C   UNK N   1      25.510  16.740   3.593  0.00  0.00     0.047 C 
HETATM   14  C   UNK N   1      27.382  11.509   1.450  0.00  0.00     0.300 C 
HETATM   15  C   UNK N   1      28.806  11.771   0.992  0.00  0.00    -0.000 C 
HETATM   16  C   UNK N   1      24.245  14.941   2.677  0.00  0.00     0.022 C 
HETATM   17  C   UNK N   1      24.407  17.422   4.004  0.00  0.00     0.067 C 
HETATM   18  C   UNK N   1      23.120  15.486   3.294  0.00  0.00     0.000 C 
HETATM   19  C   UNK N   1      23.209  16.780   3.952  0.00  0.00     0.078 C 
ENDROOT
BRANCH  18  20
HETATM   20  C   UNK N   1      22.159  14.433   3.767  0.00  0.00     0.121 C 
HETATM   21  C   UNK N   1      22.294  13.255   2.862  0.00  0.00     0.038 C 
HETATM   22  C   UNK N   1      21.124  12.671   2.087  0.00  0.00     0.018 C 
HETATM   23  C   UNK N   1      21.623  12.333   0.699  0.00  0.00     0.046 C 
HETATM   24  C   UNK N   1      20.728  11.371   2.737  0.00  0.00     0.277 C 
HETATM   25  C   UNK N   1      22.823  11.366   0.713  0.00  0.00     0.084 C 
HETATM   26  C   UNK N   1      23.081  10.697   2.109  0.00  0.00     0.310 C 
HETATM   27  N   UNK N   1      21.884  10.498   2.980  0.00  0.00     0.092 N 
HETATM   28  C   UNK N   1      22.159  10.508   4.438  0.00  0.00     0.277 C 
HETATM   29  C   UNK N   1      23.168  11.562   4.950  0.00  0.00     0.072 C 
HETATM   30  C   UNK N   1      22.655  12.769   5.733  0.00  0.00    -0.020 A 
HETATM   31  C   UNK N   1      22.344  14.032   5.214  0.00  0.00     0.040 A 
HETATM   32  C   UNK N   1      22.420  12.884   7.097  0.00  0.00    -0.001 A 
HETATM   33  N   UNK N   1      22.023  14.894   6.211  0.00  0.00    -0.357 N 
HETATM   34  C   UNK N   1      22.051  14.186   7.337  0.00  0.00     0.043 A 
HETATM   35  H   UNK N   1      21.811  15.852   6.121  0.00  0.00     0.166 HD
HETATM   36  C   UNK N   1      21.693  14.652   8.597  0.00  0.00     0.030 A 
HETATM   37  C   UNK N   1      21.706  13.733   9.654  0.00  0.00     0.002 A 
HETATM   38  C   UNK N   1      22.088  12.391   9.424  0.00  0.00     0.001 A 
HETATM   39  C   UNK N   1      22.464  11.956   8.134  0.00  0.00     0.014 A 
BRANCH  25  40
HETATM   40  O   UNK N   1      23.974  12.083   0.377  0.00  0.00    -0.388 OA
HETATM   41  H   UNK N   1      24.677  12.697   0.640  0.00  0.00     0.210 HD
ENDBRANCH  25  40
BRANCH  25  42
HETATM   42  C   UNK N   1      22.617  10.344  -0.394  0.00  0.00     0.035 C 
HETATM   43  C   UNK N   1      23.884   9.579  -0.729  0.00  0.00     0.008 C 
ENDBRANCH  25  42
BRANCH  20  44
HETATM   44  C   UNK N   1      20.757  15.089   3.638  0.00  0.00     0.278 C 
HETATM   45  O   UNK N   1      20.465  15.764   2.656  0.00  0.00    -0.264 OA
BRANCH  44  46
HETATM   46  O   UNK N   1      19.814  14.856   4.587  0.00  0.00    -0.325 OA
HETATM   47  C   UNK N   1      18.875  15.803   4.931  0.00  0.00     0.213 C 
ENDBRANCH  44  46
ENDBRANCH  20  44
ENDBRANCH  18  20
BRANCH  19  48
HETATM   48  O   UNK N   1      22.231  17.292   4.737  0.00  0.00    -0.355 OA
HETATM   49  C   UNK N   1      21.714  18.566   4.555  0.00  0.00     0.210 C 
ENDBRANCH  19  48
BRANCH   2  50
HETATM   50  C   UNK N   1      26.544  16.984   5.649  0.00  0.00     0.356 C 
HETATM   51  O   UNK N   1      26.300  16.060   6.405  0.00  0.00    -0.283 OA
ENDBRANCH   2  50
BRANCH   5  52
HETATM   52  C   UNK N   1      28.853  12.639   3.955  0.00  0.00     0.014 C 
HETATM   53  C   UNK N   1      30.021  11.689   4.129  0.00  0.00     0.006 C 
ENDBRANCH   5  52
BRANCH   7  54
HETATM   54  O   UNK N   1      29.563  17.176   3.115  0.00  0.00    -0.375 OA
HETATM   55  H   UNK N   1      30.165  17.617   2.496  0.00  0.00     0.211 HD
ENDBRANCH   7  54
BRANCH   7  56
HETATM   56  C   UNK N   1      29.530  16.227   5.246  0.00  0.00     0.298 C 
HETATM   57  O   UNK N   1      29.524  15.276   6.008  0.00  0.00    -0.262 OA
BRANCH  56  58
HETATM   58  O   UNK N   1      29.862  17.465   5.742  0.00  0.00    -0.324 OA
HETATM   59  C   UNK N   1      29.887  17.820   7.080  0.00  0.00     0.213 C 
ENDBRANCH  56  58
ENDBRANCH   7  56
BRANCH   9  60
HETATM   60  O   UNK N   1      31.034  14.903   2.679  0.00  0.00    -0.311 OA
BRANCH  60  61
HETATM   61  C   UNK N   1      31.996  14.975   3.621  0.00  0.00     0.255 C 
HETATM   62  O   UNK N   1      32.148  14.055   4.410  0.00  0.00    -0.266 OA
HETATM   63  C   UNK N   1      32.887  16.160   3.682  0.00  0.00     0.126 C 
ENDBRANCH  60  61
ENDBRANCH   9  60
TORSDOF 13
ENDMDL
MODEL 2
REMARK VINA RESULT:      -6.7      2.633      7.978
REMARK  13 active torsions:
REMARK  status: ('A' for Active; 'I' for Inactive)
REMARK    1  A    between atoms: C_21  and  O_1 
REMARK    2  A    between atoms: O_1  and  C_37 
REMARK    3  A    between atoms: C_19  and  O_2 
REMARK    4  A    between atoms: O_3  and  C_29 
REMARK    5  A    between atoms: O_6  and  C_35 
REMARK    6  A    between atoms: O_8  and  C_41 
REMARK    7  A    between atoms: C_47  and  O_10 
REMARK    8  A    between atoms: N_12  and  C_33 
REMARK    9  A    between atoms: C_17  and  C_24 
REMARK   10  A    between atoms: C_19  and  C_29 
REMARK   11  A    between atoms: C_34  and  C_36 
REMARK   12  A    between atoms: C_36  and  C_41 
REMARK   13  A    between atoms: C_47  and  C_54 
ROOT
HETATM    1  N   UNK N   1      20.290  13.731   1.834  0.00  0.00     0.098 N 
HETATM    2  N   UNK N   1      24.017  10.798   2.460  0.00  0.00    -0.315 N 
HETATM    3  C   UNK N   1      22.084  12.184   2.197  0.00  0.00     0.047 C 
HETATM    4  C   UNK N   1      20.977  12.572   1.231  0.00  0.00     0.253 C 
HETATM    5  C   UNK N   1      19.992  11.336   1.034  0.00  0.00     0.039 C 
HETATM    6  C   UNK N   1      22.779  10.879   1.720  0.00  0.00     0.155 C 
HETATM    7  C   UNK N   1      22.168   9.655   1.040  0.00  0.00     0.195 C 
HETATM    8  C   UNK N   1      21.325  12.298   3.518  0.00  0.00     0.049 C 
HETATM    9  C   UNK N   1      20.806  10.133   0.460  0.00  0.00     0.193 C 
HETATM   10  C   UNK N   1      23.372  12.974   2.437  0.00  0.00    -0.017 C 
HETATM   11  C   UNK N   1      20.419  13.537   3.286  0.00  0.00     0.274 C 
HETATM   12  C   UNK N   1      18.963  11.847   0.067  0.00  0.00    -0.015 C 
HETATM   13  C   UNK N   1      24.436  12.099   2.563  0.00  0.00     0.047 C 
HETATM   14  C   UNK N   1      18.856  13.876   1.485  0.00  0.00     0.300 C 
HETATM   15  C   UNK N   1      18.416  13.051   0.288  0.00  0.00    -0.000 C 
HETATM   16  C   UNK N   1      23.389  14.180   3.061  0.00  0.00     0.022 C 
HETATM   17  C   UNK N   1      25.563  12.399   3.262  0.00  0.00     0.067 C 
HETATM   18  C   UNK N   1      24.412  14.417   3.976  0.00  0.00     0.000 C 
HETATM   19  C   UNK N   1      25.543  13.505   4.052  0.00  0.00     0.078 C 
ENDROOT
BRANCH  18  20
HETATM   20  C   UNK N   1      23.938  15.175   5.183  0.00  0.00     0.121 C 
HETATM   21  C   UNK N   1      22.817  16.060   4.752  0.00  0.00     0.038 C 
HETATM   22  C   UNK N   1      22.831  17.567   4.948  0.00  0.00     0.018 C 
HETATM   23  C   UNK N   1      22.274  18.193   3.688  0.00  0.00     0.046 C 
HETATM   24  C   UNK N   1      21.878  17.908   6.063  0.00  0.00     0.277 C 
HETATM   25  C   UNK N   1      20.860  17.687   3.343  0.00  0.00     0.084 C 
HETATM   26  C   UNK N   1      20.173  16.885   4.504  0.00  0.00     0.310 C 
HETATM   27  N   UNK N   1      20.571  17.259   5.894  0.00  0.00     0.092 N 
HETATM   28  C   UNK N   1      20.479  16.163   6.891  0.00  0.00     0.277 C 
HETATM   29  C   UNK N   1      20.950  14.763   6.433  0.00  0.00     0.072 C 
HETATM   30  C   UNK N   1      22.271  14.209   6.963  0.00  0.00    -0.020 A 
HETATM   31  C   UNK N   1      23.524  14.297   6.343  0.00  0.00     0.040 A 
HETATM   32  C   UNK N   1      22.507  13.492   8.129  0.00  0.00    -0.001 A 
HETATM   33  N   UNK N   1      24.454  13.599   7.042  0.00  0.00    -0.357 N 
HETATM   34  C   UNK N   1      23.835  13.139   8.126  0.00  0.00     0.043 A 
HETATM   35  H   UNK N   1      25.398  13.461   6.797  0.00  0.00     0.166 HD
HETATM   36  C   UNK N   1      24.438  12.447   9.170  0.00  0.00     0.030 A 
HETATM   37  C   UNK N   1      23.639  12.114  10.271  0.00  0.00     0.002 A 
HETATM   38  C   UNK N   1      22.270  12.467  10.288  0.00  0.00     0.001 A 
HETATM   39  C   UNK N   1      21.686  13.154   9.200  0.00  0.00     0.014 A 
BRANCH  25  40
HETATM   40  O   UNK N   1      20.950  16.832   2.243  0.00  0.00    -0.388 OA
HETATM   41  H   UNK N   1      20.511  16.365   1.515  0.00  0.00     0.210 HD
ENDBRANCH  25  40
BRANCH  25  42
HETATM   42  C   UNK N   1      20.031  18.880   2.890  0.00  0.00     0.035 C 
HETATM   43  C   UNK N   1      20.687  20.208   3.216  0.00  0.00     0.008 C 
ENDBRANCH  25  42
BRANCH  20  44
HETATM   44  C   UNK N   1      25.169  16.004   5.640  0.00  0.00     0.278 C 
HETATM   45  O   UNK N   1      25.533  15.998   6.813  0.00  0.00    -0.264 OA
BRANCH  44  46
HETATM   46  O   UNK N   1      25.900  16.689   4.723  0.00  0.00    -0.325 OA
HETATM   47  C   UNK N   1      26.657  17.787   5.064  0.00  0.00     0.213 C 
ENDBRANCH  44  46
ENDBRANCH  20  44
ENDBRANCH  18  20
BRANCH  19  48
HETATM   48  O   UNK N   1      26.476  13.546   5.034  0.00  0.00    -0.355 OA
HETATM   49  C   UNK N   1      27.834  13.660   4.772  0.00  0.00     0.210 C 
ENDBRANCH  19  48
BRANCH   2  50
HETATM   50  C   UNK N   1      24.252  10.021   3.566  0.00  0.00     0.356 C 
HETATM   51  O   UNK N   1      23.619  10.105   4.604  0.00  0.00    -0.283 OA
ENDBRANCH   2  50
BRANCH   5  52
HETATM   52  C   UNK N   1      19.272  10.908   2.339  0.00  0.00     0.014 C 
HETATM   53  C   UNK N   1      17.871  10.362   2.157  0.00  0.00     0.006 C 
ENDBRANCH   5  52
BRANCH   7  54
HETATM   54  O   UNK N   1      22.939   9.351  -0.095  0.00  0.00    -0.375 OA
HETATM   55  H   UNK N   1      23.049   8.959  -0.975  0.00  0.00     0.211 HD
ENDBRANCH   7  54
BRANCH   7  56
HETATM   56  C   UNK N   1      22.190   8.400   1.899  0.00  0.00     0.298 C 
HETATM   57  O   UNK N   1      22.936   7.482   1.610  0.00  0.00    -0.262 OA
BRANCH  56  58
HETATM   58  O   UNK N   1      21.334   8.242   2.963  0.00  0.00    -0.324 OA
HETATM   59  C   UNK N   1      21.482   7.327   3.991  0.00  0.00     0.213 C 
ENDBRANCH  56  58
ENDBRANCH   7  56
BRANCH   9  60
HETATM   60  O   UNK N   1      20.230   9.353  -0.520  0.00  0.00    -0.311 OA
BRANCH  60  61
HETATM   61  C   UNK N   1      20.012   8.033  -0.353  0.00  0.00     0.255 C 
HETATM   62  O   UNK N   1      20.741   7.219  -0.899  0.00  0.00    -0.266 OA
HETATM   63  C   UNK N   1      18.902   7.570   0.516  0.00  0.00     0.126 C 
ENDBRANCH  60  61
ENDBRANCH   9  60
TORSDOF 13
ENDMDL
MODEL 3
REMARK VINA RESULT:      -6.6      9.414     14.525
REMARK  13 active torsions:
REMARK  status: ('A' for Active; 'I' for Inactive)
REMARK    1  A    between atoms: C_21  and  O_1 
REMARK    2  A    between atoms: O_1  and  C_37 
REMARK    3  A    between atoms: C_19  and  O_2 
REMARK    4  A    between atoms: O_3  and  C_29 
REMARK    5  A    between atoms: O_6  and  C_35 
REMARK    6  A    between atoms: O_8  and  C_41 
REMARK    7  A    between atoms: C_47  and  O_10 
REMARK    8  A    between atoms: N_12  and  C_33 
REMARK    9  A    between atoms: C_17  and  C_24 
REMARK   10  A    between atoms: C_19  and  C_29 
REMARK   11  A    between atoms: C_34  and  C_36 
REMARK   12  A    between atoms: C_36  and  C_41 
REMARK   13  A    between atoms: C_47  and  C_54 
ROOT
HETATM    1  N   UNK N   1      35.408  14.265  10.354  0.00  0.00     0.098 N 
HETATM    2  N   UNK N   1      37.326  11.643   6.844  0.00  0.00    -0.315 N 
HETATM    3  C   UNK N   1      36.262  12.943   8.547  0.00  0.00     0.047 C 
HETATM    4  C   UNK N   1      35.930  14.362   8.978  0.00  0.00     0.253 C 
HETATM    5  C   UNK N   1      34.854  14.979   7.977  0.00  0.00     0.039 C 
HETATM    6  C   UNK N   1      36.688  12.921   7.053  0.00  0.00     0.155 C 
HETATM    7  C   UNK N   1      36.158  13.756   5.888  0.00  0.00     0.195 C 
HETATM    8  C   UNK N   1      35.029  12.217   9.081  0.00  0.00     0.049 C 
HETATM    9  C   UNK N   1      35.455  14.983   6.536  0.00  0.00     0.193 C 
HETATM   10  C   UNK N   1      37.437  12.110   9.061  0.00  0.00    -0.017 C 
HETATM   11  C   UNK N   1      34.754  12.950  10.421  0.00  0.00     0.274 C 
HETATM   12  C   UNK N   1      34.623  16.365   8.508  0.00  0.00    -0.015 C 
HETATM   13  C   UNK N   1      38.000  11.405   8.012  0.00  0.00     0.047 C 
HETATM   14  C   UNK N   1      34.437  15.316  10.745  0.00  0.00     0.300 C 
HETATM   15  C   UNK N   1      34.415  16.523   9.823  0.00  0.00    -0.000 C 
HETATM   16  C   UNK N   1      37.499  11.632  10.330  0.00  0.00     0.022 C 
HETATM   17  C   UNK N   1      38.678  10.238   8.184  0.00  0.00     0.067 C 
HETATM   18  C   UNK N   1      37.968  10.331  10.506  0.00  0.00     0.000 C 
HETATM   19  C   UNK N   1      38.599   9.632   9.398  0.00  0.00     0.078 C 
ENDROOT
BRANCH  18  20
HETATM   20  C   UNK N   1      37.212   9.588  11.570  0.00  0.00     0.121 C 
HETATM   21  C   UNK N   1      36.809  10.574  12.614  0.00  0.00     0.038 C 
HETATM   22  C   UNK N   1      37.193  10.432  14.078  0.00  0.00     0.018 C 
HETATM   23  C   UNK N   1      37.582  11.804  14.580  0.00  0.00     0.046 C 
HETATM   24  C   UNK N   1      35.969  10.016  14.850  0.00  0.00     0.277 C 
HETATM   25  C   UNK N   1      36.464  12.850  14.394  0.00  0.00     0.084 C 
HETATM   26  C   UNK N   1      35.072  12.228  14.021  0.00  0.00     0.310 C 
HETATM   27  N   UNK N   1      34.803  10.852  14.533  0.00  0.00     0.092 N 
HETATM   28  C   UNK N   1      33.879  10.041  13.701  0.00  0.00     0.277 C 
HETATM   29  C   UNK N   1      34.050  10.144  12.168  0.00  0.00     0.072 C 
HETATM   30  C   UNK N   1      34.668   8.973  11.405  0.00  0.00    -0.020 A 
HETATM   31  C   UNK N   1      36.015   8.819  11.056  0.00  0.00     0.040 A 
HETATM   32  C   UNK N   1      34.040   7.850  10.881  0.00  0.00    -0.001 A 
HETATM   33  N   UNK N   1      36.188   7.714  10.288  0.00  0.00    -0.357 N 
HETATM   34  C   UNK N   1      34.996   7.127  10.208  0.00  0.00     0.043 A 
HETATM   35  H   UNK N   1      37.027   7.407   9.872  0.00  0.00     0.166 HD
HETATM   36  C   UNK N   1      34.732   5.910   9.592  0.00  0.00     0.030 A 
HETATM   37  C   UNK N   1      33.427   5.409   9.682  0.00  0.00     0.002 A 
HETATM   38  C   UNK N   1      32.431   6.142  10.367  0.00  0.00     0.001 A 
HETATM   39  C   UNK N   1      32.731   7.386  10.966  0.00  0.00     0.014 A 
BRANCH  25  40
HETATM   40  O   UNK N   1      36.828  13.709  13.355  0.00  0.00    -0.388 OA
HETATM   41  H   UNK N   1      36.925  14.614  13.021  0.00  0.00     0.210 HD
ENDBRANCH  25  40
BRANCH  25  42
HETATM   42  C   UNK N   1      36.404  13.703  15.652  0.00  0.00     0.035 C 
HETATM   43  C   UNK N   1      37.240  14.964  15.547  0.00  0.00     0.008 C 
ENDBRANCH  25  42
BRANCH  20  44
HETATM   44  C   UNK N   1      38.227   8.554  12.130  0.00  0.00     0.278 C 
HETATM   45  O   UNK N   1      39.406   8.855  12.296  0.00  0.00    -0.264 OA
BRANCH  44  46
HETATM   46  O   UNK N   1      37.797   7.324  12.510  0.00  0.00    -0.325 OA
HETATM   47  C   UNK N   1      38.170   6.758  13.709  0.00  0.00     0.213 C 
ENDBRANCH  44  46
ENDBRANCH  20  44
ENDBRANCH  18  20
BRANCH  19  48
HETATM   48  O   UNK N   1      38.905   8.312   9.419  0.00  0.00    -0.355 OA
HETATM   49  C   UNK N   1      39.230   7.600   8.274  0.00  0.00     0.210 C 
ENDBRANCH  19  48
BRANCH   2  50
HETATM   50  C   UNK N   1      36.758  10.537   6.263  0.00  0.00     0.356 C 
HETATM   51  O   UNK N   1      35.780   9.961   6.707  0.00  0.00    -0.283 OA
ENDBRANCH   2  50
BRANCH   5  52
HETATM   52  C   UNK N   1      33.503  14.217   7.982  0.00  0.00     0.014 C 
HETATM   53  C   UNK N   1      32.272  15.082   7.804  0.00  0.00     0.006 C 
ENDBRANCH   5  52
BRANCH   7  54
HETATM   54  O   UNK N   1      37.256  14.307   5.206  0.00  0.00    -0.375 OA
HETATM   55  H   UNK N   1      37.689  14.633   4.402  0.00  0.00     0.211 HD
ENDBRANCH   7  54
BRANCH   7  56
HETATM   56  C   UNK N   1      35.395  12.947   4.850  0.00  0.00     0.298 C 
HETATM   57  O   UNK N   1      35.845  12.828   3.725  0.00  0.00    -0.262 OA
BRANCH  56  58
HETATM   58  O   UNK N   1      34.165  12.399   5.128  0.00  0.00    -0.324 OA
HETATM   59  C   UNK N   1      33.519  11.436   4.371  0.00  0.00     0.213 C 
ENDBRANCH  56  58
ENDBRANCH   7  56
BRANCH   9  60
HETATM   60  O   UNK N   1      35.229  16.078   5.729  0.00  0.00    -0.311 OA
BRANCH  60  61
HETATM   61  C   UNK N   1      34.035  16.306   5.144  0.00  0.00     0.255 C 
HETATM   62  O   UNK N   1      33.520  15.443   4.450  0.00  0.00    -0.266 OA
HETATM   63  C   UNK N   1      33.336  17.595   5.366  0.00  0.00     0.126 C 
ENDBRANCH  60  61
ENDBRANCH   9  60
TORSDOF 13
ENDMDL
MODEL 4
REMARK VINA RESULT:      -6.5     13.016     16.659
REMARK  13 active torsions:
REMARK  status: ('A' for Active; 'I' for Inactive)
REMARK    1  A    between atoms: C_21  and  O_1 
REMARK    2  A    between atoms: O_1  and  C_37 
REMARK    3  A    between atoms: C_19  and  O_2 
REMARK    4  A    between atoms: O_3  and  C_29 
REMARK    5  A    between atoms: O_6  and  C_35 
REMARK    6  A    between atoms: O_8  and  C_41 
REMARK    7  A    between atoms: C_47  and  O_10 
REMARK    8  A    between atoms: N_12  and  C_33 
REMARK    9  A    between atoms: C_17  and  C_24 
REMARK   10  A    between atoms: C_19  and  C_29 
REMARK   11  A    between atoms: C_34  and  C_36 
REMARK   12  A    between atoms: C_36  and  C_41 
REMARK   13  A    between atoms: C_47  and  C_54 
ROOT
HETATM    1  N   UNK N   1      28.656  21.535  -8.820  0.00  0.00     0.098 N 
HETATM    2  N   UNK N   1      29.716  22.998  -4.392  0.00  0.00    -0.315 N 
HETATM    3  C   UNK N   1      29.196  22.377  -6.643  0.00  0.00     0.047 C 
HETATM    4  C   UNK N   1      28.052  22.129  -7.612  0.00  0.00     0.253 C 
HETATM    5  C   UNK N   1      27.322  23.508  -7.931  0.00  0.00     0.039 C 
HETATM    6  C   UNK N   1      28.681  23.137  -5.389  0.00  0.00     0.155 C 
HETATM    7  C   UNK N   1      27.612  24.224  -5.293  0.00  0.00     0.195 C 
HETATM    8  C   UNK N   1      30.231  22.952  -7.608  0.00  0.00     0.049 C 
HETATM    9  C   UNK N   1      26.773  24.105  -6.597  0.00  0.00     0.193 C 
HETATM   10  C   UNK N   1      29.960  21.298  -5.875  0.00  0.00    -0.017 C 
HETATM   11  C   UNK N   1      30.008  22.108  -8.891  0.00  0.00     0.274 C 
HETATM   12  C   UNK N   1      26.226  23.123  -8.883  0.00  0.00    -0.015 C 
HETATM   13  C   UNK N   1      30.206  21.733  -4.585  0.00  0.00     0.047 C 
HETATM   14  C   UNK N   1      27.942  21.806 -10.092  0.00  0.00     0.300 C 
HETATM   15  C   UNK N   1      26.524  22.321  -9.916  0.00  0.00    -0.000 C 
HETATM   16  C   UNK N   1      30.799  20.420  -6.481  0.00  0.00     0.022 C 
HETATM   17  C   UNK N   1      31.250  21.285  -3.838  0.00  0.00     0.067 C 
HETATM   18  C   UNK N   1      32.002  20.131  -5.840  0.00  0.00     0.000 C 
HETATM   19  C   UNK N   1      32.213  20.559  -4.465  0.00  0.00     0.078 C 
ENDROOT
BRANCH  18  20
HETATM   20  C   UNK N   1      33.148  20.001  -6.802  0.00  0.00     0.121 C 
HETATM   21  C   UNK N   1      32.617  19.414  -8.066  0.00  0.00     0.038 C 
HETATM   22  C   UNK N   1      33.159  18.131  -8.674  0.00  0.00     0.018 C 
HETATM   23  C   UNK N   1      31.976  17.326  -9.164  0.00  0.00     0.046 C 
HETATM   24  C   UNK N   1      33.975  18.490  -9.888  0.00  0.00     0.277 C 
HETATM   25  C   UNK N   1      31.103  18.098 -10.173  0.00  0.00     0.084 C 
HETATM   26  C   UNK N   1      31.772  19.410 -10.715  0.00  0.00     0.310 C 
HETATM   27  N   UNK N   1      33.263  19.415 -10.780  0.00  0.00     0.092 N 
HETATM   28  C   UNK N   1      33.895  20.752 -10.641  0.00  0.00     0.277 C 
HETATM   29  C   UNK N   1      33.285  21.703  -9.585  0.00  0.00     0.072 C 
HETATM   30  C   UNK N   1      34.048  21.966  -8.288  0.00  0.00    -0.020 A 
HETATM   31  C   UNK N   1      33.882  21.296  -7.069  0.00  0.00     0.040 A 
HETATM   32  C   UNK N   1      35.025  22.920  -8.033  0.00  0.00    -0.001 A 
HETATM   33  N   UNK N   1      34.647  21.864  -6.102  0.00  0.00    -0.357 N 
HETATM   34  C   UNK N   1      35.347  22.825  -6.700  0.00  0.00     0.043 A 
HETATM   35  H   UNK N   1      34.678  21.615  -5.150  0.00  0.00     0.166 HD
HETATM   36  C   UNK N   1      36.330  23.603  -6.100  0.00  0.00     0.030 A 
HETATM   37  C   UNK N   1      37.021  24.512  -6.913  0.00  0.00     0.002 A 
HETATM   38  C   UNK N   1      36.699  24.624  -8.285  0.00  0.00     0.001 A 
HETATM   39  C   UNK N   1      35.680  23.830  -8.857  0.00  0.00     0.014 A 
BRANCH  25  40
HETATM   40  O   UNK N   1      29.914  18.468  -9.541  0.00  0.00    -0.388 OA
HETATM   41  H   UNK N   1      29.052  18.212  -9.178  0.00  0.00     0.210 HD
ENDBRANCH  25  40
BRANCH  25  42
HETATM   42  C   UNK N   1      30.713  17.139 -11.288  0.00  0.00     0.035 C 
HETATM   43  C   UNK N   1      29.621  17.694 -12.183  0.00  0.00     0.008 C 
ENDBRANCH  25  42
BRANCH  20  44
HETATM   44  C   UNK N   1      34.145  19.034  -6.105  0.00  0.00     0.278 C 
HETATM   45  O   UNK N   1      33.741  18.080  -5.446  0.00  0.00    -0.264 OA
BRANCH  44  46
HETATM   46  O   UNK N   1      35.481  19.200  -6.281  0.00  0.00    -0.325 OA
HETATM   47  C   UNK N   1      36.298  18.167  -6.685  0.00  0.00     0.213 C 
ENDBRANCH  44  46
ENDBRANCH  20  44
ENDBRANCH  18  20
BRANCH  19  48
HETATM   48  O   UNK N   1      33.409  20.495  -3.834  0.00  0.00    -0.355 OA
HETATM   49  C   UNK N   1      33.656  21.137  -2.630  0.00  0.00     0.210 C 
ENDBRANCH  19  48
BRANCH   2  50
HETATM   50  C   UNK N   1      30.654  23.942  -4.059  0.00  0.00     0.356 C 
HETATM   51  O   UNK N   1      30.720  24.483  -2.970  0.00  0.00    -0.283 OA
ENDBRANCH   2  50
BRANCH   5  52
HETATM   52  C   UNK N   1      28.241  24.543  -8.631  0.00  0.00     0.014 C 
HETATM   53  C   UNK N   1      27.572  25.388  -9.696  0.00  0.00     0.006 C 
ENDBRANCH   5  52
BRANCH   7  54
HETATM   54  O   UNK N   1      26.714  23.869  -4.272  0.00  0.00    -0.375 OA
HETATM   55  H   UNK N   1      26.492  23.725  -3.339  0.00  0.00     0.211 HD
ENDBRANCH   7  54
BRANCH   7  56
HETATM   56  C   UNK N   1      28.158  25.589  -4.903  0.00  0.00     0.298 C 
HETATM   57  O   UNK N   1      27.855  26.078  -3.829  0.00  0.00    -0.262 OA
BRANCH  56  58
HETATM   58  O   UNK N   1      28.934  26.325  -5.766  0.00  0.00    -0.324 OA
HETATM   59  C   UNK N   1      28.703  27.638  -6.142  0.00  0.00     0.213 C 
ENDBRANCH  56  58
ENDBRANCH   7  56
BRANCH   9  60
HETATM   60  O   UNK N   1      25.527  24.695  -6.601  0.00  0.00    -0.311 OA
BRANCH  60  61
HETATM   61  C   UNK N   1      25.365  26.033  -6.658  0.00  0.00     0.255 C 
HETATM   62  O   UNK N   1      25.664  26.641  -7.674  0.00  0.00    -0.266 OA
HETATM   63  C   UNK N   1      24.796  26.761  -5.497  0.00  0.00     0.126 C 
ENDBRANCH  60  61
ENDBRANCH   9  60
TORSDOF 13
ENDMDL
MODEL 5
REMARK VINA RESULT:      -6.4      2.467      4.472
REMARK  13 active torsions:
REMARK  status: ('A' for Active; 'I' for Inactive)
REMARK    1  A    between atoms: C_21  and  O_1 
REMARK    2  A    between atoms: O_1  and  C_37 
REMARK    3  A    between atoms: C_19  and  O_2 
REMARK    4  A    between atoms: O_3  and  C_29 
REMARK    5  A    between atoms: O_6  and  C_35 
REMARK    6  A    between atoms: O_8  and  C_41 
REMARK    7  A    between atoms: C_47  and  O_10 
REMARK    8  A    between atoms: N_12  and  C_33 
REMARK    9  A    between atoms: C_17  and  C_24 
REMARK   10  A    between atoms: C_19  and  C_29 
REMARK   11  A    between atoms: C_34  and  C_36 
REMARK   12  A    between atoms: C_36  and  C_41 
REMARK   13  A    between atoms: C_47  and  C_54 
ROOT
HETATM    1  N   UNK N   1      24.759  10.825   1.129  0.00  0.00     0.098 N 
HETATM    2  N   UNK N   1      28.530  12.878   3.235  0.00  0.00    -0.315 N 
HETATM    3  C   UNK N   1      26.668  11.752   2.240  0.00  0.00     0.047 C 
HETATM    4  C   UNK N   1      26.224  10.958   1.023  0.00  0.00     0.253 C 
HETATM    5  C   UNK N   1      26.950   9.540   1.026  0.00  0.00     0.039 C 
HETATM    6  C   UNK N   1      28.220  11.825   2.297  0.00  0.00     0.155 C 
HETATM    7  C   UNK N   1      29.248  10.764   1.909  0.00  0.00     0.195 C 
HETATM    8  C   UNK N   1      25.818  11.076   3.314  0.00  0.00     0.049 C 
HETATM    9  C   UNK N   1      28.494   9.767   0.983  0.00  0.00     0.193 C 
HETATM   10  C   UNK N   1      26.429  13.247   2.462  0.00  0.00    -0.017 C 
HETATM   11  C   UNK N   1      24.481  10.808   2.572  0.00  0.00     0.274 C 
HETATM   12  C   UNK N   1      26.433   8.869  -0.215  0.00  0.00    -0.015 C 
HETATM   13  C   UNK N   1      27.556  13.818   3.025  0.00  0.00     0.047 C 
HETATM   14  C   UNK N   1      24.180   9.610   0.504  0.00  0.00     0.300 C 
HETATM   15  C   UNK N   1      25.114   8.895  -0.457  0.00  0.00    -0.000 C 
HETATM   16  C   UNK N   1      25.197  13.767   2.698  0.00  0.00     0.022 C 
HETATM   17  C   UNK N   1      27.513  14.940   3.793  0.00  0.00     0.067 C 
HETATM   18  C   UNK N   1      25.093  14.760   3.670  0.00  0.00     0.000 C 
HETATM   19  C   UNK N   1      26.295  15.377   4.208  0.00  0.00     0.078 C 
ENDROOT
BRANCH  18  20
HETATM   20  C   UNK N   1      23.847  14.623   4.497  0.00  0.00     0.121 C 
HETATM   21  C   UNK N   1      22.777  14.068   3.619  0.00  0.00     0.038 C 
HETATM   22  C   UNK N   1      21.447  14.769   3.392  0.00  0.00     0.018 C 
HETATM   23  C   UNK N   1      21.112  14.640   1.923  0.00  0.00     0.046 C 
HETATM   24  C   UNK N   1      20.383  14.021   4.150  0.00  0.00     0.277 C 
HETATM   25  C   UNK N   1      21.060  13.175   1.447  0.00  0.00     0.084 C 
HETATM   26  C   UNK N   1      21.054  12.128   2.617  0.00  0.00     0.310 C 
HETATM   27  N   UNK N   1      20.437  12.574   3.901  0.00  0.00     0.092 N 
HETATM   28  C   UNK N   1      20.983  11.927   5.120  0.00  0.00     0.277 C 
HETATM   29  C   UNK N   1      22.515  11.719   5.171  0.00  0.00     0.072 C 
HETATM   30  C   UNK N   1      23.358  12.600   6.092  0.00  0.00    -0.020 A 
HETATM   31  C   UNK N   1      24.020  13.783   5.743  0.00  0.00     0.040 A 
HETATM   32  C   UNK N   1      23.667  12.409   7.433  0.00  0.00    -0.001 A 
HETATM   33  N   UNK N   1      24.762  14.242   6.783  0.00  0.00    -0.357 N 
HETATM   34  C   UNK N   1      24.524  13.418   7.800  0.00  0.00     0.043 A 
HETATM   35  H   UNK N   1      25.358  15.026   6.784  0.00  0.00     0.166 HD
HETATM   36  C   UNK N   1      25.006  13.569   9.095  0.00  0.00     0.030 A 
HETATM   37  C   UNK N   1      24.578  12.645  10.057  0.00  0.00     0.002 A 
HETATM   38  C   UNK N   1      23.700  11.598   9.694  0.00  0.00     0.001 A 
HETATM   39  C   UNK N   1      23.244  11.464   8.364  0.00  0.00     0.014 A 
BRANCH  25  40
HETATM   40  O   UNK N   1      22.190  12.921   0.667  0.00  0.00    -0.388 OA
HETATM   41  H   UNK N   1      22.776  13.187  -0.058  0.00  0.00     0.210 HD
ENDBRANCH  25  40
BRANCH  25  42
HETATM   42  C   UNK N   1      19.861  13.022   0.524  0.00  0.00     0.035 C 
HETATM   43  C   UNK N   1      18.936  14.225   0.558  0.00  0.00     0.008 C 
ENDBRANCH  25  42
BRANCH  20  44
HETATM   44  C   UNK N   1      23.512  16.070   4.952  0.00  0.00     0.278 C 
HETATM   45  O   UNK N   1      23.605  17.014   4.172  0.00  0.00    -0.264 OA
BRANCH  44  46
HETATM   46  O   UNK N   1      23.041  16.292   6.206  0.00  0.00    -0.325 OA
HETATM   47  C   UNK N   1      21.800  16.842   6.434  0.00  0.00     0.213 C 
ENDBRANCH  44  46
ENDBRANCH  20  44
ENDBRANCH  18  20
BRANCH  19  48
HETATM   48  O   UNK N   1      26.299  16.201   5.283  0.00  0.00    -0.355 OA
HETATM   49  C   UNK N   1      27.453  16.505   5.990  0.00  0.00     0.210 C 
ENDBRANCH  19  48
BRANCH   2  50
HETATM   50  C   UNK N   1      28.909  12.714   4.543  0.00  0.00     0.356 C 
HETATM   51  O   UNK N   1      30.020  12.976   4.969  0.00  0.00    -0.283 OA
ENDBRANCH   2  50
BRANCH   5  52
HETATM   52  C   UNK N   1      26.582   8.662   2.250  0.00  0.00     0.014 C 
HETATM   53  C   UNK N   1      27.163   7.263   2.243  0.00  0.00     0.006 C 
ENDBRANCH   5  52
BRANCH   7  54
HETATM   54  O   UNK N   1      30.201  11.363   1.068  0.00  0.00    -0.375 OA
HETATM   55  H   UNK N   1      30.770  11.364   0.282  0.00  0.00     0.211 HD
ENDBRANCH   7  54
BRANCH   7  56
HETATM   56  C   UNK N   1      30.032  10.209   3.087  0.00  0.00     0.298 C 
HETATM   57  O   UNK N   1      31.233  10.400   3.159  0.00  0.00    -0.262 OA
BRANCH  56  58
HETATM   58  O   UNK N   1      29.432   9.429   4.047  0.00  0.00    -0.324 OA
HETATM   59  C   UNK N   1      29.975   9.100   5.277  0.00  0.00     0.213 C 
ENDBRANCH  56  58
ENDBRANCH   7  56
BRANCH   9  60
HETATM   60  O   UNK N   1      29.261   8.942   0.188  0.00  0.00    -0.311 OA
BRANCH  60  61
HETATM   61  C   UNK N   1      29.480   9.201  -1.117  0.00  0.00     0.255 C 
HETATM   62  O   UNK N   1      29.683  10.347  -1.487  0.00  0.00    -0.266 OA
HETATM   63  C   UNK N   1      29.502   8.089  -2.099  0.00  0.00     0.126 C 
ENDBRANCH  60  61
ENDBRANCH   9  60
TORSDOF 13
ENDMDL
MODEL 6
REMARK VINA RESULT:      -6.4     11.457     15.835
REMARK  13 active torsions:
REMARK  status: ('A' for Active; 'I' for Inactive)
REMARK    1  A    between atoms: C_21  and  O_1 
REMARK    2  A    between atoms: O_1  and  C_37 
REMARK    3  A    between atoms: C_19  and  O_2 
REMARK    4  A    between atoms: O_3  and  C_29 
REMARK    5  A    between atoms: O_6  and  C_35 
REMARK    6  A    between atoms: O_8  and  C_41 
REMARK    7  A    between atoms: C_47  and  O_10 
REMARK    8  A    between atoms: N_12  and  C_33 
REMARK    9  A    between atoms: C_17  and  C_24 
REMARK   10  A    between atoms: C_19  and  C_29 
REMARK   11  A    between atoms: C_34  and  C_36 
REMARK   12  A    between atoms: C_36  and  C_41 
REMARK   13  A    between atoms: C_47  and  C_54 
ROOT
HETATM    1  N   UNK N   1      34.417   9.212   9.984  0.00  0.00     0.098 N 
HETATM    2  N   UNK N   1      35.550  12.387  13.376  0.00  0.00    -0.315 N 
HETATM    3  C   UNK N   1      35.069  10.843  11.613  0.00  0.00     0.047 C 
HETATM    4  C   UNK N   1      34.198  10.613  10.389  0.00  0.00     0.253 C 
HETATM    5  C   UNK N   1      34.618  11.636   9.242  0.00  0.00     0.039 C 
HETATM    6  C   UNK N   1      35.019  12.338  12.035  0.00  0.00     0.155 C 
HETATM    7  C   UNK N   1      34.939  13.584  11.155  0.00  0.00     0.195 C 
HETATM    8  C   UNK N   1      36.346  10.142  11.155  0.00  0.00     0.049 C 
HETATM    9  C   UNK N   1      34.424  13.092   9.772  0.00  0.00     0.193 C 
HETATM   10  C   UNK N   1      34.810  10.273  13.008  0.00  0.00    -0.017 C 
HETATM   11  C   UNK N   1      35.802   8.914  10.377  0.00  0.00     0.274 C 
HETATM   12  C   UNK N   1      33.689  11.308   8.109  0.00  0.00    -0.015 C 
HETATM   13  C   UNK N   1      35.099  11.233  13.962  0.00  0.00     0.047 C 
HETATM   14  C   UNK N   1      34.248   8.932   8.536  0.00  0.00     0.300 C 
HETATM   15  C   UNK N   1      33.521  10.021   7.768  0.00  0.00    -0.000 C 
HETATM   16  C   UNK N   1      34.930   8.952  13.296  0.00  0.00     0.022 C 
HETATM   17  C   UNK N   1      35.467  10.926  15.235  0.00  0.00     0.067 C 
HETATM   18  C   UNK N   1      35.535   8.609  14.504  0.00  0.00     0.000 C 
HETATM   19  C   UNK N   1      35.782   9.632  15.508  0.00  0.00     0.078 C 
ENDROOT
BRANCH  18  20
HETATM   20  C   UNK N   1      36.426   7.406  14.377  0.00  0.00     0.121 C 
HETATM   21  C   UNK N   1      35.847   6.520  13.328  0.00  0.00     0.038 C 
HETATM   22  C   UNK N   1      35.469   5.070  13.587  0.00  0.00     0.018 C 
HETATM   23  C   UNK N   1      34.150   4.814  12.891  0.00  0.00     0.046 C 
HETATM   24  C   UNK N   1      36.492   4.189  12.920  0.00  0.00     0.277 C 
HETATM   25  C   UNK N   1      34.200   5.118  11.381  0.00  0.00     0.084 C 
HETATM   26  C   UNK N   1      35.654   5.325  10.824  0.00  0.00     0.310 C 
HETATM   27  N   UNK N   1      36.743   4.585  11.528  0.00  0.00     0.092 N 
HETATM   28  C   UNK N   1      38.078   5.234  11.478  0.00  0.00     0.277 C 
HETATM   29  C   UNK N   1      38.113   6.770  11.655  0.00  0.00     0.072 C 
HETATM   30  C   UNK N   1      38.635   7.359  12.964  0.00  0.00    -0.020 A 
HETATM   31  C   UNK N   1      37.871   7.736  14.076  0.00  0.00     0.040 A 
HETATM   32  C   UNK N   1      39.943   7.667  13.318  0.00  0.00    -0.001 A 
HETATM   33  N   UNK N   1      38.653   8.323  15.017  0.00  0.00    -0.357 N 
HETATM   34  C   UNK N   1      39.900   8.254  14.559  0.00  0.00     0.043 A 
HETATM   35  H   UNK N   1      38.357   8.719  15.869  0.00  0.00     0.166 HD
HETATM   36  C   UNK N   1      41.039   8.653  15.248  0.00  0.00     0.030 A 
HETATM   37  C   UNK N   1      42.278   8.426  14.636  0.00  0.00     0.002 A 
HETATM   38  C   UNK N   1      42.339   7.826  13.357  0.00  0.00     0.001 A 
HETATM   39  C   UNK N   1      41.159   7.450  12.677  0.00  0.00     0.014 A 
BRANCH  25  40
HETATM   40  O   UNK N   1      33.492   6.298  11.141  0.00  0.00    -0.388 OA
HETATM   41  H   UNK N   1      32.795   6.917  11.408  0.00  0.00     0.210 HD
ENDBRANCH  25  40
BRANCH  25  42
HETATM   42  C   UNK N   1      33.450   4.014  10.653  0.00  0.00     0.035 C 
HETATM   43  C   UNK N   1      33.300   2.757  11.489  0.00  0.00     0.008 C 
ENDBRANCH  25  42
BRANCH  20  44
HETATM   44  C   UNK N   1      36.383   6.731  15.776  0.00  0.00     0.278 C 
HETATM   45  O   UNK N   1      35.326   6.623  16.391  0.00  0.00    -0.264 OA
BRANCH  44  46
HETATM   46  O   UNK N   1      37.513   6.189  16.298  0.00  0.00    -0.325 OA
HETATM   47  C   UNK N   1      37.605   4.850  16.607  0.00  0.00     0.213 C 
ENDBRANCH  44  46
ENDBRANCH  20  44
ENDBRANCH  18  20
BRANCH  19  48
HETATM   48  O   UNK N   1      36.533   9.430  16.618  0.00  0.00    -0.355 OA
HETATM   49  C   UNK N   1      36.207   9.972  17.852  0.00  0.00     0.210 C 
ENDBRANCH  19  48
BRANCH   2  50
HETATM   50  C   UNK N   1      36.820  12.764  13.733  0.00  0.00     0.356 C 
HETATM   51  O   UNK N   1      37.071  13.718  14.448  0.00  0.00    -0.283 OA
ENDBRANCH   2  50
BRANCH   5  52
HETATM   52  C   UNK N   1      36.078  11.445   8.754  0.00  0.00     0.014 C 
HETATM   53  C   UNK N   1      36.312  11.733   7.285  0.00  0.00     0.006 C 
ENDBRANCH   5  52
BRANCH   7  54
HETATM   54  O   UNK N   1      33.901  14.399  11.639  0.00  0.00    -0.375 OA
HETATM   55  H   UNK N   1      32.985  14.718  11.626  0.00  0.00     0.211 HD
ENDBRANCH   7  54
BRANCH   7  56
HETATM   56  C   UNK N   1      36.191  14.447  11.198  0.00  0.00     0.298 C 
HETATM   57  O   UNK N   1      36.109  15.616  11.530  0.00  0.00    -0.262 OA
BRANCH  56  58
HETATM   58  O   UNK N   1      37.413  13.960  10.800  0.00  0.00    -0.324 OA
HETATM   59  C   UNK N   1      38.153  14.414   9.722  0.00  0.00     0.213 C 
ENDBRANCH  56  58
ENDBRANCH   7  56
BRANCH   9  60
HETATM   60  O   UNK N   1      33.898  14.040   8.921  0.00  0.00    -0.311 OA
BRANCH  60  61
HETATM   61  C   UNK N   1      34.652  15.020   8.383  0.00  0.00     0.255 C 
HETATM   62  O   UNK N   1      35.565  14.740   7.621  0.00  0.00    -0.266 OA
HETATM   63  C   UNK N   1      34.354  16.440   8.694  0.00  0.00     0.126 C 
ENDBRANCH  60  61
ENDBRANCH   9  60
TORSDOF 13
ENDMDL
MODEL 7
REMARK VINA RESULT:      -6.3      1.829      2.718
REMARK  13 active torsions:
REMARK  status: ('A' for Active; 'I' for Inactive)
REMARK    1  A    between atoms: C_21  and  O_1 
REMARK    2  A    between atoms: O_1  and  C_37 
REMARK    3  A    between atoms: C_19  and  O_2 
REMARK    4  A    between atoms: O_3  and  C_29 
REMARK    5  A    between atoms: O_6  and  C_35 
REMARK    6  A    between atoms: O_8  and  C_41 
REMARK    7  A    between atoms: C_47  and  O_10 
REMARK    8  A    between atoms: N_12  and  C_33 
REMARK    9  A    between atoms: C_17  and  C_24 
REMARK   10  A    between atoms: C_19  and  C_29 
REMARK   11  A    between atoms: C_34  and  C_36 
REMARK   12  A    between atoms: C_36  and  C_41 
REMARK   13  A    between atoms: C_47  and  C_54 
ROOT
HETATM    1  N   UNK N   1      28.663  13.156   2.821  0.00  0.00     0.098 N 
HETATM    2  N   UNK N   1      26.009  16.943   4.042  0.00  0.00    -0.315 N 
HETATM    3  C   UNK N   1      27.383  15.050   3.539  0.00  0.00     0.047 C 
HETATM    4  C   UNK N   1      28.713  14.626   2.939  0.00  0.00     0.253 C 
HETATM    5  C   UNK N   1      29.898  15.105   3.891  0.00  0.00     0.039 C 
HETATM    6  C   UNK N   1      27.390  16.575   3.838  0.00  0.00     0.155 C 
HETATM    7  C   UNK N   1      28.539  17.454   4.330  0.00  0.00     0.195 C 
HETATM    8  C   UNK N   1      27.237  13.982   4.622  0.00  0.00     0.049 C 
HETATM    9  C   UNK N   1      29.840  16.660   4.020  0.00  0.00     0.193 C 
HETATM   10  C   UNK N   1      26.036  15.034   2.816  0.00  0.00    -0.017 C 
HETATM   11  C   UNK N   1      27.805  12.714   3.930  0.00  0.00     0.274 C 
HETATM   12  C   UNK N   1      31.138  14.632   3.187  0.00  0.00    -0.015 C 
HETATM   13  C   UNK N   1      25.316  16.167   3.152  0.00  0.00     0.047 C 
HETATM   14  C   UNK N   1      29.972  12.463   2.909  0.00  0.00     0.300 C 
HETATM   15  C   UNK N   1      31.176  13.372   2.729  0.00  0.00    -0.000 C 
HETATM   16  C   UNK N   1      25.399  13.885   2.472  0.00  0.00     0.022 C 
HETATM   17  C   UNK N   1      23.957  16.219   3.114  0.00  0.00     0.067 C 
HETATM   18  C   UNK N   1      24.020  13.833   2.659  0.00  0.00     0.000 C 
HETATM   19  C   UNK N   1      23.282  15.049   2.963  0.00  0.00     0.078 C 
ENDROOT
BRANCH  18  20
HETATM   20  C   UNK N   1      23.560  12.494   3.161  0.00  0.00     0.121 C 
HETATM   21  C   UNK N   1      24.461  11.457   2.580  0.00  0.00     0.038 C 
HETATM   22  C   UNK N   1      23.951  10.293   1.744  0.00  0.00     0.018 C 
HETATM   23  C   UNK N   1      24.908  10.114   0.587  0.00  0.00     0.046 C 
HETATM   24  C   UNK N   1      24.034   9.041   2.577  0.00  0.00     0.277 C 
HETATM   25  C   UNK N   1      26.363   9.881   1.043  0.00  0.00     0.084 C 
HETATM   26  C   UNK N   1      26.505   9.571   2.575  0.00  0.00     0.310 C 
HETATM   27  N   UNK N   1      25.345   8.890   3.223  0.00  0.00     0.092 N 
HETATM   28  C   UNK N   1      25.172   9.180   4.668  0.00  0.00     0.277 C 
HETATM   29  C   UNK N   1      25.403  10.642   5.118  0.00  0.00     0.072 C 
HETATM   30  C   UNK N   1      24.202  11.503   5.503  0.00  0.00    -0.020 A 
HETATM   31  C   UNK N   1      23.502  12.384   4.668  0.00  0.00     0.040 A 
HETATM   32  C   UNK N   1      23.576  11.620   6.738  0.00  0.00    -0.001 A 
HETATM   33  N   UNK N   1      22.562  13.065   5.371  0.00  0.00    -0.357 N 
HETATM   34  C   UNK N   1      22.602  12.581   6.610  0.00  0.00     0.043 A 
HETATM   35  H   UNK N   1      21.970  13.776   5.033  0.00  0.00     0.166 HD
HETATM   36  C   UNK N   1      21.741  12.928   7.643  0.00  0.00     0.030 A 
HETATM   37  C   UNK N   1      21.882  12.248   8.860  0.00  0.00     0.002 A 
HETATM   38  C   UNK N   1      22.883  11.261   9.009  0.00  0.00     0.001 A 
HETATM   39  C   UNK N   1      23.754  10.945   7.942  0.00  0.00     0.014 A 
BRANCH  25  40
HETATM   40  O   UNK N   1      27.100  11.038   0.782  0.00  0.00    -0.388 OA
HETATM   41  H   UNK N   1      27.175  11.890   0.324  0.00  0.00     0.210 HD
ENDBRANCH  25  40
BRANCH  25  42
HETATM   42  C   UNK N   1      26.960   8.788   0.170  0.00  0.00     0.035 C 
HETATM   43  C   UNK N   1      25.907   7.999  -0.586  0.00  0.00     0.008 C 
ENDBRANCH  25  42
BRANCH  20  44
HETATM   44  C   UNK N   1      22.109  12.347   2.626  0.00  0.00     0.278 C 
HETATM   45  O   UNK N   1      21.215  11.905   3.342  0.00  0.00    -0.264 OA
BRANCH  44  46
HETATM   46  O   UNK N   1      21.804  12.778   1.374  0.00  0.00    -0.325 OA
HETATM   47  C   UNK N   1      20.547  12.621   0.834  0.00  0.00     0.213 C 
ENDBRANCH  44  46
ENDBRANCH  20  44
ENDBRANCH  18  20
BRANCH  19  48
HETATM   48  O   UNK N   1      21.984  15.064   3.350  0.00  0.00    -0.355 OA
HETATM   49  C   UNK N   1      21.057  15.955   2.830  0.00  0.00     0.210 C 
ENDBRANCH  19  48
BRANCH   2  50
HETATM   50  C   UNK N   1      25.391  17.135   5.252  0.00  0.00     0.356 C 
HETATM   51  O   UNK N   1      24.844  18.174   5.580  0.00  0.00    -0.283 OA
ENDBRANCH   2  50
BRANCH   5  52
HETATM   52  C   UNK N   1      29.854  14.458   5.300  0.00  0.00     0.014 C 
HETATM   53  C   UNK N   1      31.205  14.149   5.912  0.00  0.00     0.006 C 
ENDBRANCH   5  52
BRANCH   7  54
HETATM   54  O   UNK N   1      28.617  18.583   3.498  0.00  0.00    -0.375 OA
HETATM   55  H   UNK N   1      28.837  19.014   2.657  0.00  0.00     0.211 HD
ENDBRANCH   7  54
BRANCH   7  56
HETATM   56  C   UNK N   1      28.338  17.995   5.738  0.00  0.00     0.298 C 
HETATM   57  O   UNK N   1      28.192  19.192   5.911  0.00  0.00    -0.262 OA
BRANCH  56  58
HETATM   58  O   UNK N   1      28.387  17.172   6.838  0.00  0.00    -0.324 OA
HETATM   59  C   UNK N   1      28.086  17.542   8.138  0.00  0.00     0.213 C 
ENDBRANCH  56  58
ENDBRANCH   7  56
BRANCH   9  60
HETATM   60  O   UNK N   1      31.022  17.369   4.004  0.00  0.00    -0.311 OA
BRANCH  60  61
HETATM   61  C   UNK N   1      31.888  17.345   5.037  0.00  0.00     0.255 C 
HETATM   62  O   UNK N   1      31.479  17.474   6.181  0.00  0.00    -0.266 OA
HETATM   63  C   UNK N   1      33.336  17.136   4.786  0.00  0.00     0.126 C 
ENDBRANCH  60  61
ENDBRANCH   9  60
TORSDOF 13
ENDMDL
MODEL 8
REMARK VINA RESULT:      -6.3      5.877     11.606
REMARK  13 active torsions:
REMARK  status: ('A' for Active; 'I' for Inactive)
REMARK    1  A    between atoms: C_21  and  O_1 
REMARK    2  A    between atoms: O_1  and  C_37 
REMARK    3  A    between atoms: C_19  and  O_2 
REMARK    4  A    between atoms: O_3  and  C_29 
REMARK    5  A    between atoms: O_6  and  C_35 
REMARK    6  A    between atoms: O_8  and  C_41 
REMARK    7  A    between atoms: C_47  and  O_10 
REMARK    8  A    between atoms: N_12  and  C_33 
REMARK    9  A    between atoms: C_17  and  C_24 
REMARK   10  A    between atoms: C_19  and  C_29 
REMARK   11  A    between atoms: C_34  and  C_36 
REMARK   12  A    between atoms: C_36  and  C_41 
REMARK   13  A    between atoms: C_47  and  C_54 
ROOT
HETATM    1  N   UNK N   1      31.567  11.501   5.717  0.00  0.00     0.098 N 
HETATM    2  N   UNK N   1      32.900  16.055   6.316  0.00  0.00    -0.315 N 
HETATM    3  C   UNK N   1      32.283  13.780   5.910  0.00  0.00     0.047 C 
HETATM    4  C   UNK N   1      31.163  12.885   5.404  0.00  0.00     0.253 C 
HETATM    5  C   UNK N   1      30.977  13.109   3.838  0.00  0.00     0.039 C 
HETATM    6  C   UNK N   1      32.019  15.255   5.499  0.00  0.00     0.155 C 
HETATM    7  C   UNK N   1      31.397  15.800   4.214  0.00  0.00     0.195 C 
HETATM    8  C   UNK N   1      33.490  12.976   5.431  0.00  0.00     0.049 C 
HETATM    9  C   UNK N   1      30.621  14.608   3.584  0.00  0.00     0.193 C 
HETATM   10  C   UNK N   1      32.590  14.074   7.379  0.00  0.00    -0.017 C 
HETATM   11  C   UNK N   1      33.035  11.509   5.654  0.00  0.00     0.274 C 
HETATM   12  C   UNK N   1      29.853  12.182   3.473  0.00  0.00    -0.015 C 
HETATM   13  C   UNK N   1      32.922  15.410   7.524  0.00  0.00     0.047 C 
HETATM   14  C   UNK N   1      31.043  10.460   4.800  0.00  0.00     0.300 C 
HETATM   15  C   UNK N   1      29.890  10.919   3.924  0.00  0.00    -0.000 C 
HETATM   16  C   UNK N   1      33.090  13.140   8.227  0.00  0.00     0.022 C 
HETATM   17  C   UNK N   1      33.712  15.871   8.530  0.00  0.00     0.067 C 
HETATM   18  C   UNK N   1      34.088  13.542   9.112  0.00  0.00     0.000 C 
HETATM   19  C   UNK N   1      34.382  14.957   9.280  0.00  0.00     0.078 C 
ENDROOT
BRANCH  18  20
HETATM   20  C   UNK N   1      35.152  12.496   9.289  0.00  0.00     0.121 C 
HETATM   21  C   UNK N   1      34.500  11.160   9.175  0.00  0.00     0.038 C 
HETATM   22  C   UNK N   1      34.574  10.108  10.270  0.00  0.00     0.018 C 
HETATM   23  C   UNK N   1      33.204   9.479  10.388  0.00  0.00     0.046 C 
HETATM   24  C   UNK N   1      35.515   9.022   9.818  0.00  0.00     0.277 C 
HETATM   25  C   UNK N   1      32.706   8.872   9.061  0.00  0.00     0.084 C 
HETATM   26  C   UNK N   1      33.820   8.751   7.963  0.00  0.00     0.310 C 
HETATM   27  N   UNK N   1      35.217   8.562   8.454  0.00  0.00     0.092 N 
HETATM   28  C   UNK N   1      36.277   9.091   7.559  0.00  0.00     0.277 C 
HETATM   29  C   UNK N   1      36.003  10.456   6.886  0.00  0.00     0.072 C 
HETATM   30  C   UNK N   1      36.754  11.693   7.374  0.00  0.00    -0.020 A 
HETATM   31  C   UNK N   1      36.310  12.621   8.323  0.00  0.00     0.040 A 
HETATM   32  C   UNK N   1      37.996  12.170   6.972  0.00  0.00    -0.001 A 
HETATM   33  N   UNK N   1      37.186  13.653   8.431  0.00  0.00    -0.357 N 
HETATM   34  C   UNK N   1      38.206  13.358   7.630  0.00  0.00     0.043 A 
HETATM   35  H   UNK N   1      37.086  14.458   8.990  0.00  0.00     0.166 HD
HETATM   36  C   UNK N   1      39.376  14.097   7.503  0.00  0.00     0.030 A 
HETATM   37  C   UNK N   1      40.378  13.585   6.669  0.00  0.00     0.002 A 
HETATM   38  C   UNK N   1      40.175  12.366   5.982  0.00  0.00     0.001 A 
HETATM   39  C   UNK N   1      38.965  11.649   6.120  0.00  0.00     0.014 A 
BRANCH  25  40
HETATM   40  O   UNK N   1      31.701   9.694   8.546  0.00  0.00    -0.388 OA
HETATM   41  H   UNK N   1      31.396  10.584   8.308  0.00  0.00     0.210 HD
ENDBRANCH  25  40
BRANCH  25  42
HETATM   42  C   UNK N   1      32.047   7.537   9.372  0.00  0.00     0.035 C 
HETATM   43  C   UNK N   1      32.740   6.789  10.497  0.00  0.00     0.008 C 
ENDBRANCH  25  42
BRANCH  20  44
HETATM   44  C   UNK N   1      35.709  12.734  10.719  0.00  0.00     0.278 C 
HETATM   45  O   UNK N   1      36.918  12.745  10.932  0.00  0.00    -0.264 OA
BRANCH  44  46
HETATM   46  O   UNK N   1      34.854  13.006  11.739  0.00  0.00    -0.325 OA
HETATM   47  C   UNK N   1      35.300  13.416  12.976  0.00  0.00     0.213 C 
ENDBRANCH  44  46
ENDBRANCH  20  44
ENDBRANCH  18  20
BRANCH  19  48
HETATM   48  O   UNK N   1      35.455  15.425   9.962  0.00  0.00    -0.355 OA
HETATM   49  C   UNK N   1      35.377  16.500  10.835  0.00  0.00     0.210 C 
ENDBRANCH  19  48
BRANCH   2  50
HETATM   50  C   UNK N   1      34.097  16.601   5.925  0.00  0.00     0.356 C 
HETATM   51  O   UNK N   1      34.357  17.789   5.990  0.00  0.00    -0.283 OA
ENDBRANCH   2  50
BRANCH   5  52
HETATM   52  C   UNK N   1      32.227  12.718   3.008  0.00  0.00     0.014 C 
HETATM   53  C   UNK N   1      31.984  12.520   1.525  0.00  0.00     0.006 C 
ENDBRANCH   5  52
BRANCH   7  54
HETATM   54  O   UNK N   1      30.393  16.718   4.567  0.00  0.00    -0.375 OA
HETATM   55  H   UNK N   1      29.946  17.294   5.205  0.00  0.00     0.211 HD
ENDBRANCH   7  54
BRANCH   7  56
HETATM   56  C   UNK N   1      32.372  16.573   3.340  0.00  0.00     0.298 C 
HETATM   57  O   UNK N   1      32.436  17.786   3.432  0.00  0.00    -0.262 OA
BRANCH  56  58
HETATM   58  O   UNK N   1      33.141  15.944   2.390  0.00  0.00    -0.324 OA
HETATM   59  C   UNK N   1      34.295  15.219   2.635  0.00  0.00     0.213 C 
ENDBRANCH  56  58
ENDBRANCH   7  56
BRANCH   9  60
HETATM   60  O   UNK N   1      29.663  14.909   2.640  0.00  0.00    -0.311 OA
BRANCH  60  61
HETATM   61  C   UNK N   1      28.354  15.006   2.949  0.00  0.00     0.255 C 
HETATM   62  O   UNK N   1      28.010  15.150   4.112  0.00  0.00    -0.266 OA
HETATM   63  C   UNK N   1      27.333  14.966   1.873  0.00  0.00     0.126 C 
ENDBRANCH  60  61
ENDBRANCH   9  60
TORSDOF 13
ENDMDL
MODEL 9
REMARK VINA RESULT:      -6.2      2.365      5.990
REMARK  13 active torsions:
REMARK  status: ('A' for Active; 'I' for Inactive)
REMARK    1  A    between atoms: C_21  and  O_1 
REMARK    2  A    between atoms: O_1  and  C_37 
REMARK    3  A    between atoms: C_19  and  O_2 
REMARK    4  A    between atoms: O_3  and  C_29 
REMARK    5  A    between atoms: O_6  and  C_35 
REMARK    6  A    between atoms: O_8  and  C_41 
REMARK    7  A    between atoms: C_47  and  O_10 
REMARK    8  A    between atoms: N_12  and  C_33 
REMARK    9  A    between atoms: C_17  and  C_24 
REMARK   10  A    between atoms: C_19  and  C_29 
REMARK   11  A    between atoms: C_34  and  C_36 
REMARK   12  A    between atoms: C_36  and  C_41 
REMARK   13  A    between atoms: C_47  and  C_54 
ROOT
HETATM    1  N   UNK N   1      27.543  14.826   3.505  0.00  0.00     0.098 N 
HETATM    2  N   UNK N   1      22.825  15.421   2.992  0.00  0.00    -0.315 N 
HETATM    3  C   UNK N   1      25.170  15.125   3.365  0.00  0.00     0.047 C 
HETATM    4  C   UNK N   1      26.493  15.862   3.489  0.00  0.00     0.253 C 
HETATM    5  C   UNK N   1      26.492  16.726   4.828  0.00  0.00     0.039 C 
HETATM    6  C   UNK N   1      23.986  16.125   3.483  0.00  0.00     0.155 C 
HETATM    7  C   UNK N   1      23.860  17.369   4.361  0.00  0.00     0.195 C 
HETATM    8  C   UNK N   1      25.414  13.989   4.356  0.00  0.00     0.049 C 
HETATM    9  C   UNK N   1      25.314  17.749   4.764  0.00  0.00     0.193 C 
HETATM   10  C   UNK N   1      24.660  14.420   2.107  0.00  0.00    -0.017 C 
HETATM   11  C   UNK N   1      26.912  13.654   4.131  0.00  0.00     0.274 C 
HETATM   12  C   UNK N   1      27.836  17.396   4.824  0.00  0.00    -0.015 C 
HETATM   13  C   UNK N   1      23.304  14.655   1.962  0.00  0.00     0.047 C 
HETATM   14  C   UNK N   1      28.776  15.176   4.252  0.00  0.00     0.300 C 
HETATM   15  C   UNK N   1      28.923  16.656   4.559  0.00  0.00    -0.000 C 
HETATM   16  C   UNK N   1      25.222  13.283   1.623  0.00  0.00     0.022 C 
HETATM   17  C   UNK N   1      22.472  13.807   1.298  0.00  0.00     0.067 C 
HETATM   18  C   UNK N   1      24.365  12.289   1.157  0.00  0.00     0.000 C 
HETATM   19  C   UNK N   1      22.952  12.579   0.967  0.00  0.00     0.078 C 
ENDROOT
BRANCH  18  20
HETATM   20  C   UNK N   1      24.838  10.909   1.518  0.00  0.00     0.121 C 
HETATM   21  C   UNK N   1      26.328  10.936   1.559  0.00  0.00     0.038 C 
HETATM   22  C   UNK N   1      27.195  10.017   0.713  0.00  0.00     0.018 C 
HETATM   23  C   UNK N   1      28.349  10.840   0.186  0.00  0.00     0.046 C 
HETATM   24  C   UNK N   1      27.785   8.964   1.614  0.00  0.00     0.277 C 
HETATM   25  C   UNK N   1      29.170  11.508   1.308  0.00  0.00     0.084 C 
HETATM   26  C   UNK N   1      28.844  10.962   2.743  0.00  0.00     0.310 C 
HETATM   27  N   UNK N   1      28.388   9.542   2.823  0.00  0.00     0.092 N 
HETATM   28  C   UNK N   1      27.493   9.233   3.965  0.00  0.00     0.277 C 
HETATM   29  C   UNK N   1      26.412  10.284   4.309  0.00  0.00     0.072 C 
HETATM   30  C   UNK N   1      24.952   9.991   3.972  0.00  0.00    -0.020 A 
HETATM   31  C   UNK N   1      24.266  10.378   2.813  0.00  0.00     0.040 A 
HETATM   32  C   UNK N   1      24.002   9.320   4.733  0.00  0.00    -0.001 A 
HETATM   33  N   UNK N   1      22.954  10.043   2.899  0.00  0.00    -0.357 N 
HETATM   34  C   UNK N   1      22.812   9.387   4.048  0.00  0.00     0.043 A 
HETATM   35  H   UNK N   1      22.247  10.244   2.243  0.00  0.00     0.166 HD
HETATM   36  C   UNK N   1      21.646   8.779   4.495  0.00  0.00     0.030 A 
HETATM   37  C   UNK N   1      21.710   8.060   5.696  0.00  0.00     0.002 A 
HETATM   38  C   UNK N   1      22.926   7.985   6.414  0.00  0.00     0.001 A 
HETATM   39  C   UNK N   1      24.089   8.632   5.939  0.00  0.00     0.014 A 
BRANCH  25  40
HETATM   40  O   UNK N   1      28.887  12.876   1.310  0.00  0.00    -0.388 OA
HETATM   41  H   UNK N   1      28.506  13.645   1.761  0.00  0.00     0.210 HD
ENDBRANCH  25  40
BRANCH  25  42
HETATM   42  C   UNK N   1      30.643  11.377   0.954  0.00  0.00     0.035 C 
HETATM   43  C   UNK N   1      30.910  11.563  -0.527  0.00  0.00     0.008 C 
ENDBRANCH  25  42
BRANCH  20  44
HETATM   44  C   UNK N   1      24.319   9.999   0.370  0.00  0.00     0.278 C 
HETATM   45  O   UNK N   1      24.305  10.396  -0.791  0.00  0.00    -0.264 OA
BRANCH  44  46
HETATM   46  O   UNK N   1      23.943   8.723   0.639  0.00  0.00    -0.325 OA
HETATM   47  C   UNK N   1      24.416   7.653  -0.087  0.00  0.00     0.213 C 
ENDBRANCH  44  46
ENDBRANCH  20  44
ENDBRANCH  18  20
BRANCH  19  48
HETATM   48  O   UNK N   1      22.018  11.631   0.709  0.00  0.00    -0.355 OA
HETATM   49  C   UNK N   1      20.658  11.865   0.839  0.00  0.00     0.210 C 
ENDBRANCH  19  48
BRANCH   2  50
HETATM   50  C   UNK N   1      21.852  14.827   3.755  0.00  0.00     0.356 C 
HETATM   51  O   UNK N   1      20.697  15.211   3.804  0.00  0.00    -0.283 OA
ENDBRANCH   2  50
BRANCH   5  52
HETATM   52  C   UNK N   1      26.373  15.867   6.114  0.00  0.00     0.014 C 
HETATM   53  C   UNK N   1      27.061  16.436   7.338  0.00  0.00     0.006 C 
ENDBRANCH   5  52
BRANCH   7  54
HETATM   54  O   UNK N   1      23.436  18.437   3.553  0.00  0.00    -0.375 OA
HETATM   55  H   UNK N   1      23.376  19.382   3.345  0.00  0.00     0.211 HD
ENDBRANCH   7  54
BRANCH   7  56
HETATM   56  C   UNK N   1      22.813  17.243   5.458  0.00  0.00     0.298 C 
HETATM   57  O   UNK N   1      21.898  18.044   5.515  0.00  0.00    -0.262 OA
BRANCH  56  58
HETATM   58  O   UNK N   1      22.910  16.284   6.437  0.00  0.00    -0.324 OA
HETATM   59  C   UNK N   1      21.859  15.785   7.188  0.00  0.00     0.213 C 
ENDBRANCH  56  58
ENDBRANCH   7  56
BRANCH   9  60
HETATM   60  O   UNK N   1      25.526  19.030   5.225  0.00  0.00    -0.311 OA
BRANCH  60  61
HETATM   61  C   UNK N   1      26.144  19.969   4.481  0.00  0.00     0.255 C 
HETATM   62  O   UNK N   1      25.932  20.035   3.280  0.00  0.00    -0.266 OA
HETATM   63  C   UNK N   1      27.062  20.940   5.127  0.00  0.00     0.126 C 
ENDBRANCH  60  61
ENDBRANCH   9  60
TORSDOF 13
ENDMDL
