REMARK  11 active torsions:
REMARK  status: ('A' for Active; 'I' for Inactive)
REMARK    1  A    between atoms: O_2  and  C_18 
REMARK    2  A    between atoms: O_2  and  C_27 
REMARK    3  A    between atoms: O_4  and  C_24 
REMARK    4  A    between atoms: C_8  and  N_6 
REMARK    5  A    between atoms: C_11  and  N_6 
REMARK    6  A    between atoms: N_7  and  C_17 
REMARK    7  A    between atoms: C_11  and  C_15 
REMARK    8  A    between atoms: C_11  and  C_18 
REMARK    9  A    between atoms: C_15  and  C_16 
REMARK   10  A    between atoms: C_16  and  C_21 
REMARK   11  A    between atoms: C_17  and  C_24 
ROOT
HETATM    1  O   UNK N   1       7.747  -1.166   1.049  0.00  0.00    -0.271 OA
HETATM    2  N   UNK N   1       6.431  -2.877   0.406  0.00  0.00    -0.306 N 
HETATM    3  C   UNK N   1       5.623  -0.441   0.436  0.00  0.00     0.171 C 
HETATM    4  C   UNK N   1       4.303  -0.833   0.995  0.00  0.00     0.039 C 
HETATM    5  C   UNK N   1       3.671  -1.451  -0.197  0.00  0.00     0.043 C 
HETATM    6  C   UNK N   1       6.646  -1.524   0.642  0.00  0.00     0.247 C 
HETATM    7  C   UNK N   1       3.912  -2.903  -0.217  0.00  0.00    -0.031 A 
HETATM    8  C   UNK N   1       5.176  -3.537   0.031  0.00  0.00     0.044 A 
HETATM    9  C   UNK N   1       2.781  -3.675  -0.511  0.00  0.00     0.009 A 
HETATM   10  C   UNK N   1       5.194  -4.951  -0.052  0.00  0.00     0.030 A 
HETATM   11  C   UNK N   1       2.848  -5.060  -0.576  0.00  0.00     0.001 A 
HETATM   12  C   UNK N   1       4.057  -5.699  -0.351  0.00  0.00     0.002 A 
ENDROOT
BRANCH   3  13
HETATM   13  N   UNK N   1       6.045   0.842   1.004  0.00  0.00    -0.396 N 
HETATM   14  H   UNK N   1       6.533   0.973   1.890  0.00  0.00     0.154 HD
BRANCH  13  15
HETATM   15  C   UNK N   1       5.642   1.901   0.079  0.00  0.00     0.178 C 
BRANCH  15  16
HETATM   16  C   UNK N   1       4.509   2.756   0.668  0.00  0.00     0.039 C 
BRANCH  16  17
HETATM   17  C   UNK N   1       3.364   1.955   1.272  0.00  0.00     0.041 C 
BRANCH  17  18
HETATM   18  C   UNK N   1       2.101   2.042   0.480  0.00  0.00    -0.058 A 
HETATM   19  C   UNK N   1       1.537   0.877  -0.052  0.00  0.00     0.007 A 
HETATM   20  C   UNK N   1       0.328   0.935  -0.750  0.00  0.00     0.001 A 
HETATM   21  C   UNK N   1      -0.327   2.159  -0.910  0.00  0.00     0.000 A 
HETATM   22  C   UNK N   1       0.230   3.325  -0.375  0.00  0.00     0.001 A 
HETATM   23  C   UNK N   1       1.441   3.266   0.323  0.00  0.00     0.007 A 
ENDBRANCH  17  18
ENDBRANCH  16  17
ENDBRANCH  15  16
BRANCH  15  24
HETATM   24  C   UNK N   1       6.885   2.669  -0.375  0.00  0.00     0.281 C 
HETATM   25  O   UNK N   1       7.788   2.024  -0.882  0.00  0.00    -0.263 OA
BRANCH  24  26
HETATM   26  O   UNK N   1       7.056   4.020  -0.265  0.00  0.00    -0.320 OA
BRANCH  26  27
HETATM   27  C   UNK N   1       6.183   4.918   0.303  0.00  0.00     0.174 C 
HETATM   28  C   UNK N   1       5.619   5.826  -0.771  0.00  0.00     0.034 C 
ENDBRANCH  26  27
ENDBRANCH  24  26
ENDBRANCH  15  24
ENDBRANCH  13  15
ENDBRANCH   3  13
BRANCH   2  29
HETATM   29  C   UNK N   1       7.566  -3.763   0.654  0.00  0.00     0.242 C 
BRANCH  29  30
HETATM   30  C   UNK N   1       8.634  -3.664  -0.402  0.00  0.00     0.158 C 
HETATM   31  O   UNK N   1       8.499  -2.925  -1.365  0.00  0.00    -0.649 OA
BRANCH  30  32
HETATM   32  O   UNK N   1       9.748  -4.409  -0.284  0.00  0.00    -0.775 OA
HETATM   33  H   UNK N   1       9.687  -5.340  -0.202  0.00  0.00     0.167 HD
ENDBRANCH  30  32
ENDBRANCH  29  30
ENDBRANCH   2  29
TORSDOF 11
