MODEL 1
REMARK VINA RESULT:      -7.5      0.000      0.000
REMARK  11 active torsions:
REMARK  status: ('A' for Active; 'I' for Inactive)
REMARK    1  A    between atoms: O_2  and  C_18 
REMARK    2  A    between atoms: O_2  and  C_27 
REMARK    3  A    between atoms: O_4  and  C_24 
REMARK    4  A    between atoms: C_8  and  N_6 
REMARK    5  A    between atoms: C_11  and  N_6 
REMARK    6  A    between atoms: N_7  and  C_17 
REMARK    7  A    between atoms: C_11  and  C_15 
REMARK    8  A    between atoms: C_11  and  C_18 
REMARK    9  A    between atoms: C_15  and  C_16 
REMARK   10  A    between atoms: C_16  and  C_21 
REMARK   11  A    between atoms: C_17  and  C_24 
ROOT
HETATM    1  O   UNK N   1      19.902  18.850   3.842  0.00  0.00    -0.271 OA
HETATM    2  N   UNK N   1      21.986  19.526   3.319  0.00  0.00    -0.306 N 
HETATM    3  C   UNK N   1      21.520  17.472   4.787  0.00  0.00     0.171 C 
HETATM    4  C   UNK N   1      22.622  17.826   5.719  0.00  0.00     0.039 C 
HETATM    5  C   UNK N   1      23.805  17.471   4.896  0.00  0.00     0.043 C 
HETATM    6  C   UNK N   1      21.108  18.656   3.955  0.00  0.00     0.247 C 
HETATM    7  C   UNK N   1      24.283  18.643   4.144  0.00  0.00    -0.031 A 
HETATM    8  C   UNK N   1      23.450  19.552   3.409  0.00  0.00     0.044 A 
HETATM    9  C   UNK N   1      25.670  18.831   4.182  0.00  0.00     0.009 A 
HETATM   10  C   UNK N   1      24.115  20.610   2.741  0.00  0.00     0.030 A 
HETATM   11  C   UNK N   1      26.275  19.887   3.515  0.00  0.00     0.001 A 
HETATM   12  C   UNK N   1      25.498  20.775   2.789  0.00  0.00     0.002 A 
ENDROOT
BRANCH   3  13
HETATM   13  N   UNK N   1      20.399  16.896   5.534  0.00  0.00    -0.396 N 
HETATM   14  H   UNK N   1      19.783  17.400   6.171  0.00  0.00     0.154 HD
BRANCH  13  15
HETATM   15  C   UNK N   1      20.321  15.472   5.207  0.00  0.00     0.178 C 
BRANCH  15  16
HETATM   16  C   UNK N   1      21.075  14.620   6.240  0.00  0.00     0.039 C 
BRANCH  16  17
HETATM   17  C   UNK N   1      20.803  14.999   7.689  0.00  0.00     0.041 C 
BRANCH  17  18
HETATM   18  C   UNK N   1      21.283  13.977   8.666  0.00  0.00    -0.058 A 
HETATM   19  C   UNK N   1      20.557  13.749   9.840  0.00  0.00     0.007 A 
HETATM   20  C   UNK N   1      20.964  12.759  10.739  0.00  0.00     0.001 A 
HETATM   21  C   UNK N   1      22.095  11.987  10.461  0.00  0.00     0.000 A 
HETATM   22  C   UNK N   1      22.821  12.208   9.286  0.00  0.00     0.001 A 
HETATM   23  C   UNK N   1      22.413  13.200   8.388  0.00  0.00     0.007 A 
ENDBRANCH  17  18
ENDBRANCH  16  17
ENDBRANCH  15  16
BRANCH  15  24
HETATM   24  C   UNK N   1      18.858  15.091   4.975  0.00  0.00     0.281 C 
HETATM   25  O   UNK N   1      18.009  15.749   5.554  0.00  0.00    -0.263 OA
BRANCH  24  26
HETATM   26  O   UNK N   1      18.430  14.080   4.161  0.00  0.00    -0.320 OA
BRANCH  26  27
HETATM   27  C   UNK N   1      19.211  13.282   3.358  0.00  0.00     0.174 C 
HETATM   28  C   UNK N   1      19.142  13.779   1.929  0.00  0.00     0.034 C 
ENDBRANCH  26  27
ENDBRANCH  24  26
ENDBRANCH  15  24
ENDBRANCH  13  15
ENDBRANCH   3  13
BRANCH   2  29
HETATM   29  C   UNK N   1      21.377  20.604   2.545  0.00  0.00     0.242 C 
BRANCH  29  30
HETATM   30  C   UNK N   1      21.114  20.226   1.112  0.00  0.00     0.158 C 
HETATM   31  O   UNK N   1      21.485  20.943   0.195  0.00  0.00    -0.649 OA
BRANCH  30  32
HETATM   32  O   UNK N   1      20.453  19.086   0.842  0.00  0.00    -0.775 OA
HETATM   33  H   UNK N   1      20.186  18.891  -0.035  0.00  0.00     0.167 HD
ENDBRANCH  30  32
ENDBRANCH  29  30
ENDBRANCH   2  29
TORSDOF 11
ENDMDL
MODEL 2
REMARK VINA RESULT:      -7.4      2.360      4.308
REMARK  11 active torsions:
REMARK  status: ('A' for Active; 'I' for Inactive)
REMARK    1  A    between atoms: O_2  and  C_18 
REMARK    2  A    between atoms: O_2  and  C_27 
REMARK    3  A    between atoms: O_4  and  C_24 
REMARK    4  A    between atoms: C_8  and  N_6 
REMARK    5  A    between atoms: C_11  and  N_6 
REMARK    6  A    between atoms: N_7  and  C_17 
REMARK    7  A    between atoms: C_11  and  C_15 
REMARK    8  A    between atoms: C_11  and  C_18 
REMARK    9  A    between atoms: C_15  and  C_16 
REMARK   10  A    between atoms: C_16  and  C_21 
REMARK   11  A    between atoms: C_17  and  C_24 
ROOT
HETATM    1  O   UNK N   1      21.609  18.159   6.072  0.00  0.00    -0.271 OA
HETATM    2  N   UNK N   1      20.881  18.001   3.947  0.00  0.00    -0.306 N 
HETATM    3  C   UNK N   1      20.980  15.985   5.533  0.00  0.00     0.171 C 
HETATM    4  C   UNK N   1      21.499  15.100   4.457  0.00  0.00     0.039 C 
HETATM    5  C   UNK N   1      20.274  14.910   3.642  0.00  0.00     0.043 C 
HETATM    6  C   UNK N   1      21.168  17.436   5.184  0.00  0.00     0.247 C 
HETATM    7  C   UNK N   1      20.208  15.910   2.564  0.00  0.00    -0.031 A 
HETATM    8  C   UNK N   1      20.458  17.315   2.721  0.00  0.00     0.044 A 
HETATM    9  C   UNK N   1      19.865  15.391   1.309  0.00  0.00     0.009 A 
HETATM   10  C   UNK N   1      20.327  18.109   1.555  0.00  0.00     0.030 A 
HETATM   11  C   UNK N   1      19.753  16.209   0.194  0.00  0.00     0.001 A 
HETATM   12  C   UNK N   1      19.979  17.571   0.317  0.00  0.00     0.002 A 
ENDROOT
BRANCH   3  13
HETATM   13  N   UNK N   1      21.600  15.632   6.812  0.00  0.00    -0.396 N 
HETATM   14  H   UNK N   1      22.518  15.938   7.137  0.00  0.00     0.154 HD
BRANCH  13  15
HETATM   15  C   UNK N   1      20.675  14.764   7.540  0.00  0.00     0.178 C 
BRANCH  15  16
HETATM   16  C   UNK N   1      21.329  13.419   7.891  0.00  0.00     0.039 C 
BRANCH  16  17
HETATM   17  C   UNK N   1      22.781  13.522   8.337  0.00  0.00     0.041 C 
BRANCH  17  18
HETATM   18  C   UNK N   1      23.021  12.961   9.701  0.00  0.00    -0.058 A 
HETATM   19  C   UNK N   1      21.936  12.738  10.556  0.00  0.00     0.007 A 
HETATM   20  C   UNK N   1      22.138  12.165  11.814  0.00  0.00     0.001 A 
HETATM   21  C   UNK N   1      23.426  11.804  12.218  0.00  0.00     0.000 A 
HETATM   22  C   UNK N   1      24.512  12.020  11.364  0.00  0.00     0.001 A 
HETATM   23  C   UNK N   1      24.309  12.595  10.105  0.00  0.00     0.007 A 
ENDBRANCH  17  18
ENDBRANCH  16  17
ENDBRANCH  15  16
BRANCH  15  24
HETATM   24  C   UNK N   1      20.082  15.541   8.718  0.00  0.00     0.281 C 
HETATM   25  O   UNK N   1      19.376  14.922   9.498  0.00  0.00    -0.263 OA
BRANCH  24  26
HETATM   26  O   UNK N   1      20.291  16.867   8.968  0.00  0.00    -0.320 OA
BRANCH  26  27
HETATM   27  C   UNK N   1      19.405  17.897   8.751  0.00  0.00     0.174 C 
HETATM   28  C   UNK N   1      19.536  18.921   9.860  0.00  0.00     0.034 C 
ENDBRANCH  26  27
ENDBRANCH  24  26
ENDBRANCH  15  24
ENDBRANCH  13  15
ENDBRANCH   3  13
BRANCH   2  29
HETATM   29  C   UNK N   1      21.120  19.437   3.823  0.00  0.00     0.242 C 
BRANCH  29  30
HETATM   30  C   UNK N   1      22.510  19.764   3.347  0.00  0.00     0.158 C 
HETATM   31  O   UNK N   1      22.724  20.759   2.671  0.00  0.00    -0.649 OA
BRANCH  30  32
HETATM   32  O   UNK N   1      23.526  18.942   3.665  0.00  0.00    -0.775 OA
HETATM   33  H   UNK N   1      24.402  19.271   3.715  0.00  0.00     0.167 HD
ENDBRANCH  30  32
ENDBRANCH  29  30
ENDBRANCH   2  29
TORSDOF 11
ENDMDL
MODEL 3
REMARK VINA RESULT:      -7.3      2.039      4.643
REMARK  11 active torsions:
REMARK  status: ('A' for Active; 'I' for Inactive)
REMARK    1  A    between atoms: O_2  and  C_18 
REMARK    2  A    between atoms: O_2  and  C_27 
REMARK    3  A    between atoms: O_4  and  C_24 
REMARK    4  A    between atoms: C_8  and  N_6 
REMARK    5  A    between atoms: C_11  and  N_6 
REMARK    6  A    between atoms: N_7  and  C_17 
REMARK    7  A    between atoms: C_11  and  C_15 
REMARK    8  A    between atoms: C_11  and  C_18 
REMARK    9  A    between atoms: C_15  and  C_16 
REMARK   10  A    between atoms: C_16  and  C_21 
REMARK   11  A    between atoms: C_17  and  C_24 
ROOT
HETATM    1  O   UNK N   1      19.124  18.645   2.770  0.00  0.00    -0.271 OA
HETATM    2  N   UNK N   1      21.255  19.369   2.860  0.00  0.00    -0.306 N 
HETATM    3  C   UNK N   1      20.499  17.150   3.905  0.00  0.00     0.171 C 
HETATM    4  C   UNK N   1      21.332  17.378   5.115  0.00  0.00     0.039 C 
HETATM    5  C   UNK N   1      22.688  17.123   4.568  0.00  0.00     0.043 C 
HETATM    6  C   UNK N   1      20.271  18.431   3.150  0.00  0.00     0.247 C 
HETATM    7  C   UNK N   1      23.304  18.377   4.106  0.00  0.00    -0.031 A 
HETATM    8  C   UNK N   1      22.652  19.376   3.307  0.00  0.00     0.044 A 
HETATM    9  C   UNK N   1      24.636  18.550   4.505  0.00  0.00     0.009 A 
HETATM   10  C   UNK N   1      23.433  20.505   2.957  0.00  0.00     0.030 A 
HETATM   11  C   UNK N   1      25.358  19.678   4.140  0.00  0.00     0.001 A 
HETATM   12  C   UNK N   1      24.758  20.655   3.361  0.00  0.00     0.002 A 
ENDROOT
BRANCH   3  13
HETATM   13  N   UNK N   1      19.245  16.491   4.279  0.00  0.00    -0.396 N 
HETATM   14  H   UNK N   1      18.440  16.940   4.716  0.00  0.00     0.154 HD
BRANCH  13  15
HETATM   15  C   UNK N   1      19.351  15.078   3.917  0.00  0.00     0.178 C 
BRANCH  15  16
HETATM   16  C   UNK N   1      20.538  14.830   2.974  0.00  0.00     0.039 C 
BRANCH  16  17
HETATM   17  C   UNK N   1      20.183  14.081   1.697  0.00  0.00     0.041 C 
BRANCH  17  18
HETATM   18  C   UNK N   1      21.356  13.411   1.060  0.00  0.00    -0.058 A 
HETATM   19  C   UNK N   1      22.521  14.145   0.813  0.00  0.00     0.007 A 
HETATM   20  C   UNK N   1      23.645  13.519   0.267  0.00  0.00     0.001 A 
HETATM   21  C   UNK N   1      23.610  12.153  -0.025  0.00  0.00     0.000 A 
HETATM   22  C   UNK N   1      22.449  11.414   0.226  0.00  0.00     0.001 A 
HETATM   23  C   UNK N   1      21.324  12.042   0.772  0.00  0.00     0.007 A 
ENDBRANCH  17  18
ENDBRANCH  16  17
ENDBRANCH  15  16
BRANCH  15  24
HETATM   24  C   UNK N   1      19.328  14.232   5.192  0.00  0.00     0.281 C 
HETATM   25  O   UNK N   1      18.994  13.063   5.083  0.00  0.00    -0.263 OA
BRANCH  24  26
HETATM   26  O   UNK N   1      19.663  14.681   6.438  0.00  0.00    -0.320 OA
BRANCH  26  27
HETATM   27  C   UNK N   1      20.646  14.180   7.259  0.00  0.00     0.174 C 
HETATM   28  C   UNK N   1      21.026  15.222   8.290  0.00  0.00     0.034 C 
ENDBRANCH  26  27
ENDBRANCH  24  26
ENDBRANCH  15  24
ENDBRANCH  13  15
ENDBRANCH   3  13
BRANCH   2  29
HETATM   29  C   UNK N   1      20.826  20.539   2.099  0.00  0.00     0.242 C 
BRANCH  29  30
HETATM   30  C   UNK N   1      20.897  20.334   0.609  0.00  0.00     0.158 C 
HETATM   31  O   UNK N   1      21.297  21.221  -0.129  0.00  0.00    -0.649 OA
BRANCH  30  32
HETATM   32  O   UNK N   1      20.505  19.157   0.087  0.00  0.00    -0.775 OA
HETATM   33  H   UNK N   1      20.669  18.963  -0.814  0.00  0.00     0.167 HD
ENDBRANCH  30  32
ENDBRANCH  29  30
ENDBRANCH   2  29
TORSDOF 11
ENDMDL
MODEL 4
REMARK VINA RESULT:      -7.2     13.709     15.769
REMARK  11 active torsions:
REMARK  status: ('A' for Active; 'I' for Inactive)
REMARK    1  A    between atoms: O_2  and  C_18 
REMARK    2  A    between atoms: O_2  and  C_27 
REMARK    3  A    between atoms: O_4  and  C_24 
REMARK    4  A    between atoms: C_8  and  N_6 
REMARK    5  A    between atoms: C_11  and  N_6 
REMARK    6  A    between atoms: N_7  and  C_17 
REMARK    7  A    between atoms: C_11  and  C_15 
REMARK    8  A    between atoms: C_11  and  C_18 
REMARK    9  A    between atoms: C_15  and  C_16 
REMARK   10  A    between atoms: C_16  and  C_21 
REMARK   11  A    between atoms: C_17  and  C_24 
ROOT
HETATM    1  O   UNK N   1      35.184  16.869  10.710  0.00  0.00    -0.271 OA
HETATM    2  N   UNK N   1      33.904  16.117   9.016  0.00  0.00    -0.306 N 
HETATM    3  C   UNK N   1      35.336  14.560  10.470  0.00  0.00     0.171 C 
HETATM    4  C   UNK N   1      35.765  13.768   9.287  0.00  0.00     0.039 C 
HETATM    5  C   UNK N   1      34.521  13.013   8.994  0.00  0.00     0.043 C 
HETATM    6  C   UNK N   1      34.796  15.902  10.060  0.00  0.00     0.247 C 
HETATM    7  C   UNK N   1      33.698  13.734   8.010  0.00  0.00    -0.031 A 
HETATM    8  C   UNK N   1      33.402  15.138   8.046  0.00  0.00     0.044 A 
HETATM    9  C   UNK N   1      33.187  12.931   6.982  0.00  0.00     0.009 A 
HETATM   10  C   UNK N   1      32.575  15.631   7.007  0.00  0.00     0.030 A 
HETATM   11  C   UNK N   1      32.384  13.462   5.982  0.00  0.00     0.001 A 
HETATM   12  C   UNK N   1      32.074  14.812   5.996  0.00  0.00     0.002 A 
ENDROOT
BRANCH   3  13
HETATM   13  N   UNK N   1      36.441  14.669  11.426  0.00  0.00    -0.396 N 
HETATM   14  H   UNK N   1      37.178  15.373  11.411  0.00  0.00     0.154 HD
BRANCH  13  15
HETATM   15  C   UNK N   1      36.301  13.590  12.404  0.00  0.00     0.178 C 
BRANCH  15  16
HETATM   16  C   UNK N   1      37.400  12.531  12.228  0.00  0.00     0.039 C 
BRANCH  16  17
HETATM   17  C   UNK N   1      36.890  11.098  12.168  0.00  0.00     0.041 C 
BRANCH  17  18
HETATM   18  C   UNK N   1      36.530  10.543  13.506  0.00  0.00    -0.058 A 
HETATM   19  C   UNK N   1      37.516  10.414  14.490  0.00  0.00     0.007 A 
HETATM   20  C   UNK N   1      37.184   9.947  15.764  0.00  0.00     0.001 A 
HETATM   21  C   UNK N   1      35.860   9.616  16.062  0.00  0.00     0.000 A 
HETATM   22  C   UNK N   1      34.869   9.749  15.084  0.00  0.00     0.001 A 
HETATM   23  C   UNK N   1      35.203  10.216  13.808  0.00  0.00     0.007 A 
ENDBRANCH  17  18
ENDBRANCH  16  17
ENDBRANCH  15  16
BRANCH  15  24
HETATM   24  C   UNK N   1      36.182  14.196  13.804  0.00  0.00     0.281 C 
HETATM   25  O   UNK N   1      36.685  15.293  13.984  0.00  0.00    -0.263 OA
BRANCH  24  26
HETATM   26  O   UNK N   1      35.549  13.608  14.862  0.00  0.00    -0.320 OA
BRANCH  26  27
HETATM   27  C   UNK N   1      36.022  13.497  16.148  0.00  0.00     0.174 C 
HETATM   28  C   UNK N   1      34.922  12.977  17.051  0.00  0.00     0.034 C 
ENDBRANCH  26  27
ENDBRANCH  24  26
ENDBRANCH  15  24
ENDBRANCH  13  15
ENDBRANCH   3  13
BRANCH   2  29
HETATM   29  C   UNK N   1      33.491  17.501   8.795  0.00  0.00     0.242 C 
BRANCH  29  30
HETATM   30  C   UNK N   1      34.481  18.291   7.983  0.00  0.00     0.158 C 
HETATM   31  O   UNK N   1      34.592  18.113   6.780  0.00  0.00    -0.649 OA
BRANCH  30  32
HETATM   32  O   UNK N   1      35.261  19.200   8.597  0.00  0.00    -0.775 OA
HETATM   33  H   UNK N   1      35.144  20.113   8.427  0.00  0.00     0.167 HD
ENDBRANCH  30  32
ENDBRANCH  29  30
ENDBRANCH   2  29
TORSDOF 11
ENDMDL
MODEL 5
REMARK VINA RESULT:      -7.2      7.971     10.676
REMARK  11 active torsions:
REMARK  status: ('A' for Active; 'I' for Inactive)
REMARK    1  A    between atoms: O_2  and  C_18 
REMARK    2  A    between atoms: O_2  and  C_27 
REMARK    3  A    between atoms: O_4  and  C_24 
REMARK    4  A    between atoms: C_8  and  N_6 
REMARK    5  A    between atoms: C_11  and  N_6 
REMARK    6  A    between atoms: N_7  and  C_17 
REMARK    7  A    between atoms: C_11  and  C_15 
REMARK    8  A    between atoms: C_11  and  C_18 
REMARK    9  A    between atoms: C_15  and  C_16 
REMARK   10  A    between atoms: C_16  and  C_21 
REMARK   11  A    between atoms: C_17  and  C_24 
ROOT
HETATM    1  O   UNK N   1      30.794  16.535   7.719  0.00  0.00    -0.271 OA
HETATM    2  N   UNK N   1      29.216  18.052   7.188  0.00  0.00    -0.306 N 
HETATM    3  C   UNK N   1      30.096  16.320   5.510  0.00  0.00     0.171 C 
HETATM    4  C   UNK N   1      30.131  17.325   4.416  0.00  0.00     0.039 C 
HETATM    5  C   UNK N   1      28.683  17.467   4.124  0.00  0.00     0.043 C 
HETATM    6  C   UNK N   1      30.043  16.984   6.859  0.00  0.00     0.247 C 
HETATM    7  C   UNK N   1      28.104  18.574   4.903  0.00  0.00    -0.031 A 
HETATM    8  C   UNK N   1      28.332  18.813   6.300  0.00  0.00     0.044 A 
HETATM    9  C   UNK N   1      27.271  19.427   4.168  0.00  0.00     0.009 A 
HETATM   10  C   UNK N   1      27.665  19.930   6.861  0.00  0.00     0.030 A 
HETATM   11  C   UNK N   1      26.643  20.512   4.762  0.00  0.00     0.001 A 
HETATM   12  C   UNK N   1      26.836  20.762   6.111  0.00  0.00     0.002 A 
ENDROOT
BRANCH   3  13
HETATM   13  N   UNK N   1      31.230  15.402   5.383  0.00  0.00    -0.396 N 
HETATM   14  H   UNK N   1      31.468  14.651   6.030  0.00  0.00     0.154 HD
BRANCH  13  15
HETATM   15  C   UNK N   1      31.963  15.753   4.167  0.00  0.00     0.178 C 
BRANCH  15  16
HETATM   16  C   UNK N   1      33.417  16.137   4.481  0.00  0.00     0.039 C 
BRANCH  16  17
HETATM   17  C   UNK N   1      33.566  17.334   5.410  0.00  0.00     0.041 C 
BRANCH  17  18
HETATM   18  C   UNK N   1      34.095  16.972   6.759  0.00  0.00    -0.058 A 
HETATM   19  C   UNK N   1      34.135  17.940   7.768  0.00  0.00     0.007 A 
HETATM   20  C   UNK N   1      34.578  17.603   9.050  0.00  0.00     0.001 A 
HETATM   21  C   UNK N   1      34.973  16.292   9.329  0.00  0.00     0.000 A 
HETATM   22  C   UNK N   1      34.930  15.320   8.325  0.00  0.00     0.001 A 
HETATM   23  C   UNK N   1      34.487  15.659   7.041  0.00  0.00     0.007 A 
ENDBRANCH  17  18
ENDBRANCH  16  17
ENDBRANCH  15  16
BRANCH  15  24
HETATM   24  C   UNK N   1      31.779  14.641   3.133  0.00  0.00     0.281 C 
HETATM   25  O   UNK N   1      32.699  14.439   2.357  0.00  0.00    -0.263 OA
BRANCH  24  26
HETATM   26  O   UNK N   1      30.670  13.850   3.019  0.00  0.00    -0.320 OA
BRANCH  26  27
HETATM   27  C   UNK N   1      29.487  14.175   2.399  0.00  0.00     0.174 C 
HETATM   28  C   UNK N   1      28.325  13.815   3.303  0.00  0.00     0.034 C 
ENDBRANCH  26  27
ENDBRANCH  24  26
ENDBRANCH  15  24
ENDBRANCH  13  15
ENDBRANCH   3  13
BRANCH   2  29
HETATM   29  C   UNK N   1      29.309  18.538   8.563  0.00  0.00     0.242 C 
BRANCH  29  30
HETATM   30  C   UNK N   1      28.743  17.573   9.570  0.00  0.00     0.158 C 
HETATM   31  O   UNK N   1      27.555  17.290   9.570  0.00  0.00    -0.649 OA
BRANCH  30  32
HETATM   32  O   UNK N   1      29.559  17.025  10.488  0.00  0.00    -0.775 OA
HETATM   33  H   UNK N   1      29.203  16.570  11.225  0.00  0.00     0.167 HD
ENDBRANCH  30  32
ENDBRANCH  29  30
ENDBRANCH   2  29
TORSDOF 11
ENDMDL
MODEL 6
REMARK VINA RESULT:      -7.1     13.504     15.409
REMARK  11 active torsions:
REMARK  status: ('A' for Active; 'I' for Inactive)
REMARK    1  A    between atoms: O_2  and  C_18 
REMARK    2  A    between atoms: O_2  and  C_27 
REMARK    3  A    between atoms: O_4  and  C_24 
REMARK    4  A    between atoms: C_8  and  N_6 
REMARK    5  A    between atoms: C_11  and  N_6 
REMARK    6  A    between atoms: N_7  and  C_17 
REMARK    7  A    between atoms: C_11  and  C_15 
REMARK    8  A    between atoms: C_11  and  C_18 
REMARK    9  A    between atoms: C_15  and  C_16 
REMARK   10  A    between atoms: C_16  and  C_21 
REMARK   11  A    between atoms: C_17  and  C_24 
ROOT
HETATM    1  O   UNK N   1      35.668  16.691  10.385  0.00  0.00    -0.271 OA
HETATM    2  N   UNK N   1      34.131  15.995   8.893  0.00  0.00    -0.306 N 
HETATM    3  C   UNK N   1      35.843  14.410   9.962  0.00  0.00     0.171 C 
HETATM    4  C   UNK N   1      36.079  13.713   8.671  0.00  0.00     0.039 C 
HETATM    5  C   UNK N   1      34.827  12.927   8.549  0.00  0.00     0.043 C 
HETATM    6  C   UNK N   1      35.200  15.752   9.748  0.00  0.00     0.247 C 
HETATM    7  C   UNK N   1      33.820  13.673   7.776  0.00  0.00    -0.031 A 
HETATM    8  C   UNK N   1      33.493  15.059   7.961  0.00  0.00     0.044 A 
HETATM    9  C   UNK N   1      33.159  12.916   6.801  0.00  0.00     0.009 A 
HETATM   10  C   UNK N   1      32.481  15.580   7.119  0.00  0.00     0.030 A 
HETATM   11  C   UNK N   1      32.176  13.474   5.996  0.00  0.00     0.001 A 
HETATM   12  C   UNK N   1      31.833  14.807   6.158  0.00  0.00     0.002 A 
ENDROOT
BRANCH   3  13
HETATM   13  N   UNK N   1      37.097  14.505  10.715  0.00  0.00    -0.396 N 
HETATM   14  H   UNK N   1      37.890  15.103  10.485  0.00  0.00     0.154 HD
BRANCH  13  15
HETATM   15  C   UNK N   1      37.011  13.591  11.854  0.00  0.00     0.178 C 
BRANCH  15  16
HETATM   16  C   UNK N   1      35.636  13.675  12.536  0.00  0.00     0.039 C 
BRANCH  16  17
HETATM   17  C   UNK N   1      35.686  13.680  14.057  0.00  0.00     0.041 C 
BRANCH  17  18
HETATM   18  C   UNK N   1      35.478  12.330  14.659  0.00  0.00    -0.058 A 
HETATM   19  C   UNK N   1      36.553  11.668  15.262  0.00  0.00     0.007 A 
HETATM   20  C   UNK N   1      36.362  10.427  15.876  0.00  0.00     0.001 A 
HETATM   21  C   UNK N   1      35.090   9.849  15.898  0.00  0.00     0.000 A 
HETATM   22  C   UNK N   1      34.011  10.509  15.302  0.00  0.00     0.001 A 
HETATM   23  C   UNK N   1      34.204  11.751  14.687  0.00  0.00     0.007 A 
ENDBRANCH  17  18
ENDBRANCH  16  17
ENDBRANCH  15  16
BRANCH  15  24
HETATM   24  C   UNK N   1      37.446  12.193  11.408  0.00  0.00     0.281 C 
HETATM   25  O   UNK N   1      38.457  12.111  10.731  0.00  0.00    -0.263 OA
BRANCH  24  26
HETATM   26  O   UNK N   1      36.795  11.033  11.718  0.00  0.00    -0.320 OA
BRANCH  26  27
HETATM   27  C   UNK N   1      36.002  10.283  10.881  0.00  0.00     0.174 C 
HETATM   28  C   UNK N   1      34.592  10.227  11.433  0.00  0.00     0.034 C 
ENDBRANCH  26  27
ENDBRANCH  24  26
ENDBRANCH  15  24
ENDBRANCH  13  15
ENDBRANCH   3  13
BRANCH   2  29
HETATM   29  C   UNK N   1      33.643  17.371   8.845  0.00  0.00     0.242 C 
BRANCH  29  30
HETATM   30  C   UNK N   1      34.491  18.268   7.983  0.00  0.00     0.158 C 
HETATM   31  O   UNK N   1      34.478  18.165   6.766  0.00  0.00    -0.649 OA
BRANCH  30  32
HETATM   32  O   UNK N   1      35.279  19.189   8.566  0.00  0.00    -0.775 OA
HETATM   33  H   UNK N   1      36.182  19.001   8.732  0.00  0.00     0.167 HD
ENDBRANCH  30  32
ENDBRANCH  29  30
ENDBRANCH   2  29
TORSDOF 11
ENDMDL
MODEL 7
REMARK VINA RESULT:      -7.1     14.013     16.455
REMARK  11 active torsions:
REMARK  status: ('A' for Active; 'I' for Inactive)
REMARK    1  A    between atoms: O_2  and  C_18 
REMARK    2  A    between atoms: O_2  and  C_27 
REMARK    3  A    between atoms: O_4  and  C_24 
REMARK    4  A    between atoms: C_8  and  N_6 
REMARK    5  A    between atoms: C_11  and  N_6 
REMARK    6  A    between atoms: N_7  and  C_17 
REMARK    7  A    between atoms: C_11  and  C_15 
REMARK    8  A    between atoms: C_11  and  C_18 
REMARK    9  A    between atoms: C_15  and  C_16 
REMARK   10  A    between atoms: C_16  and  C_21 
REMARK   11  A    between atoms: C_17  and  C_24 
ROOT
HETATM    1  O   UNK N   1      25.171  24.431  -6.726  0.00  0.00    -0.271 OA
HETATM    2  N   UNK N   1      26.866  22.970  -6.979  0.00  0.00    -0.306 N 
HETATM    3  C   UNK N   1      26.656  24.512  -4.937  0.00  0.00     0.171 C 
HETATM    4  C   UNK N   1      28.114  24.802  -4.944  0.00  0.00     0.039 C 
HETATM    5  C   UNK N   1      28.653  23.521  -4.425  0.00  0.00     0.043 C 
HETATM    6  C   UNK N   1      26.204  23.960  -6.261  0.00  0.00     0.247 C 
HETATM    7  C   UNK N   1      28.993  22.615  -5.535  0.00  0.00    -0.031 A 
HETATM    8  C   UNK N   1      28.161  22.352  -6.675  0.00  0.00     0.044 A 
HETATM    9  C   UNK N   1      30.238  21.986  -5.410  0.00  0.00     0.009 A 
HETATM   10  C   UNK N   1      28.672  21.433  -7.624  0.00  0.00     0.030 A 
HETATM   11  C   UNK N   1      30.698  21.096  -6.371  0.00  0.00     0.001 A 
HETATM   12  C   UNK N   1      29.912  20.815  -7.477  0.00  0.00     0.002 A 
ENDROOT
BRANCH   3  13
HETATM   13  N   UNK N   1      25.910  25.711  -4.547  0.00  0.00    -0.396 N 
HETATM   14  H   UNK N   1      24.949  25.733  -4.205  0.00  0.00     0.154 HD
BRANCH  13  15
HETATM   15  C   UNK N   1      26.783  26.869  -4.736  0.00  0.00     0.178 C 
BRANCH  15  16
HETATM   16  C   UNK N   1      26.401  27.656  -6.000  0.00  0.00     0.039 C 
BRANCH  16  17
HETATM   17  C   UNK N   1      27.575  28.005  -6.903  0.00  0.00     0.041 C 
BRANCH  17  18
HETATM   18  C   UNK N   1      27.936  26.909  -7.852  0.00  0.00    -0.058 A 
HETATM   19  C   UNK N   1      27.050  26.564  -8.878  0.00  0.00     0.007 A 
HETATM   20  C   UNK N   1      27.396  25.578  -9.805  0.00  0.00     0.001 A 
HETATM   21  C   UNK N   1      28.635  24.939  -9.714  0.00  0.00     0.000 A 
HETATM   22  C   UNK N   1      29.527  25.285  -8.693  0.00  0.00     0.001 A 
HETATM   23  C   UNK N   1      29.179  26.272  -7.765  0.00  0.00     0.007 A 
ENDBRANCH  17  18
ENDBRANCH  16  17
ENDBRANCH  15  16
BRANCH  15  24
HETATM   24  C   UNK N   1      26.828  27.679  -3.439  0.00  0.00     0.281 C 
HETATM   25  O   UNK N   1      26.032  27.380  -2.564  0.00  0.00    -0.263 OA
BRANCH  24  26
HETATM   26  O   UNK N   1      27.695  28.702  -3.183  0.00  0.00    -0.320 OA
BRANCH  26  27
HETATM   27  C   UNK N   1      27.371  29.978  -2.784  0.00  0.00     0.174 C 
HETATM   28  C   UNK N   1      26.565  30.660  -3.871  0.00  0.00     0.034 C 
ENDBRANCH  26  27
ENDBRANCH  24  26
ENDBRANCH  15  24
ENDBRANCH  13  15
ENDBRANCH   3  13
BRANCH   2  29
HETATM   29  C   UNK N   1      26.247  22.564  -8.238  0.00  0.00     0.242 C 
BRANCH  29  30
HETATM   30  C   UNK N   1      25.108  21.598  -8.051  0.00  0.00     0.158 C 
HETATM   31  O   UNK N   1      25.315  20.406  -7.882  0.00  0.00    -0.649 OA
BRANCH  30  32
HETATM   32  O   UNK N   1      23.844  22.057  -8.081  0.00  0.00    -0.775 OA
HETATM   33  H   UNK N   1      23.310  21.923  -8.839  0.00  0.00     0.167 HD
ENDBRANCH  30  32
ENDBRANCH  29  30
ENDBRANCH   2  29
TORSDOF 11
ENDMDL
MODEL 8
REMARK VINA RESULT:      -7.0      3.693      8.287
REMARK  11 active torsions:
REMARK  status: ('A' for Active; 'I' for Inactive)
REMARK    1  A    between atoms: O_2  and  C_18 
REMARK    2  A    between atoms: O_2  and  C_27 
REMARK    3  A    between atoms: O_4  and  C_24 
REMARK    4  A    between atoms: C_8  and  N_6 
REMARK    5  A    between atoms: C_11  and  N_6 
REMARK    6  A    between atoms: N_7  and  C_17 
REMARK    7  A    between atoms: C_11  and  C_15 
REMARK    8  A    between atoms: C_11  and  C_18 
REMARK    9  A    between atoms: C_15  and  C_16 
REMARK   10  A    between atoms: C_16  and  C_21 
REMARK   11  A    between atoms: C_17  and  C_24 
ROOT
HETATM    1  O   UNK N   1      22.301  15.196   6.065  0.00  0.00    -0.271 OA
HETATM    2  N   UNK N   1      22.105  14.181   8.066  0.00  0.00    -0.306 N 
HETATM    3  C   UNK N   1      24.374  14.619   6.949  0.00  0.00     0.171 C 
HETATM    4  C   UNK N   1      24.883  13.279   7.343  0.00  0.00     0.039 C 
HETATM    5  C   UNK N   1      25.105  13.485   8.796  0.00  0.00     0.043 C 
HETATM    6  C   UNK N   1      22.873  14.674   7.016  0.00  0.00     0.247 C 
HETATM    7  C   UNK N   1      23.916  13.080   9.563  0.00  0.00    -0.031 A 
HETATM    8  C   UNK N   1      22.561  13.426   9.237  0.00  0.00     0.044 A 
HETATM    9  C   UNK N   1      24.192  12.299  10.693  0.00  0.00     0.009 A 
HETATM   10  C   UNK N   1      21.562  12.945  10.119  0.00  0.00     0.030 A 
HETATM   11  C   UNK N   1      23.178  11.847  11.525  0.00  0.00     0.001 A 
HETATM   12  C   UNK N   1      21.861  12.174  11.241  0.00  0.00     0.002 A 
ENDROOT
BRANCH   3  13
HETATM   13  N   UNK N   1      24.888  14.978   5.624  0.00  0.00    -0.396 N 
HETATM   14  H   UNK N   1      24.801  14.418   4.776  0.00  0.00     0.154 HD
BRANCH  13  15
HETATM   15  C   UNK N   1      25.547  16.279   5.732  0.00  0.00     0.178 C 
BRANCH  15  16
HETATM   16  C   UNK N   1      27.044  16.123   6.045  0.00  0.00     0.039 C 
BRANCH  16  17
HETATM   17  C   UNK N   1      27.865  17.388   5.843  0.00  0.00     0.041 C 
BRANCH  17  18
HETATM   18  C   UNK N   1      28.764  17.699   6.994  0.00  0.00    -0.058 A 
HETATM   19  C   UNK N   1      28.242  18.331   8.128  0.00  0.00     0.007 A 
HETATM   20  C   UNK N   1      29.058  18.580   9.234  0.00  0.00     0.001 A 
HETATM   21  C   UNK N   1      30.399  18.188   9.214  0.00  0.00     0.000 A 
HETATM   22  C   UNK N   1      30.924  17.551   8.085  0.00  0.00     0.001 A 
HETATM   23  C   UNK N   1      30.106  17.303   6.978  0.00  0.00     0.007 A 
ENDBRANCH  17  18
ENDBRANCH  16  17
ENDBRANCH  15  16
BRANCH  15  24
HETATM   24  C   UNK N   1      25.212  17.115   4.495  0.00  0.00     0.281 C 
HETATM   25  O   UNK N   1      25.217  16.545   3.416  0.00  0.00    -0.263 OA
BRANCH  24  26
HETATM   26  O   UNK N   1      24.899  18.445   4.508  0.00  0.00    -0.320 OA
BRANCH  26  27
HETATM   27  C   UNK N   1      23.814  19.042   3.912  0.00  0.00     0.174 C 
HETATM   28  C   UNK N   1      24.255  20.309   3.208  0.00  0.00     0.034 C 
ENDBRANCH  26  27
ENDBRANCH  24  26
ENDBRANCH  15  24
ENDBRANCH  13  15
ENDBRANCH   3  13
BRANCH   2  29
HETATM   29  C   UNK N   1      20.659  14.352   7.942  0.00  0.00     0.242 C 
BRANCH  29  30
HETATM   30  C   UNK N   1      20.138  15.541   8.702  0.00  0.00     0.158 C 
HETATM   31  O   UNK N   1      20.779  16.579   8.763  0.00  0.00    -0.649 OA
BRANCH  30  32
HETATM   32  O   UNK N   1      18.951  15.453   9.329  0.00  0.00    -0.775 OA
HETATM   33  H   UNK N   1      18.891  15.612  10.250  0.00  0.00     0.167 HD
ENDBRANCH  30  32
ENDBRANCH  29  30
ENDBRANCH   2  29
TORSDOF 11
ENDMDL
MODEL 9
REMARK VINA RESULT:      -7.0     13.734     16.616
REMARK  11 active torsions:
REMARK  status: ('A' for Active; 'I' for Inactive)
REMARK    1  A    between atoms: O_2  and  C_18 
REMARK    2  A    between atoms: O_2  and  C_27 
REMARK    3  A    between atoms: O_4  and  C_24 
REMARK    4  A    between atoms: C_8  and  N_6 
REMARK    5  A    between atoms: C_11  and  N_6 
REMARK    6  A    between atoms: N_7  and  C_17 
REMARK    7  A    between atoms: C_11  and  C_15 
REMARK    8  A    between atoms: C_11  and  C_18 
REMARK    9  A    between atoms: C_15  and  C_16 
REMARK   10  A    between atoms: C_16  and  C_21 
REMARK   11  A    between atoms: C_17  and  C_24 
ROOT
HETATM    1  O   UNK N   1      28.945  25.105  -3.674  0.00  0.00    -0.271 OA
HETATM    2  N   UNK N   1      29.199  23.451  -5.183  0.00  0.00    -0.306 N 
HETATM    3  C   UNK N   1      27.102  24.928  -5.083  0.00  0.00     0.171 C 
HETATM    4  C   UNK N   1      26.209  23.762  -5.314  0.00  0.00     0.039 C 
HETATM    5  C   UNK N   1      26.454  23.508  -6.755  0.00  0.00     0.043 C 
HETATM    6  C   UNK N   1      28.464  24.489  -4.620  0.00  0.00     0.247 C 
HETATM    7  C   UNK N   1      27.526  22.516  -6.932  0.00  0.00    -0.031 A 
HETATM    8  C   UNK N   1      28.780  22.517  -6.233  0.00  0.00     0.044 A 
HETATM    9  C   UNK N   1      27.245  21.519  -7.874  0.00  0.00     0.009 A 
HETATM   10  C   UNK N   1      29.682  21.476  -6.564  0.00  0.00     0.030 A 
HETATM   11  C   UNK N   1      28.160  20.516  -8.161  0.00  0.00     0.001 A 
HETATM   12  C   UNK N   1      29.383  20.497  -7.508  0.00  0.00     0.002 A 
ENDROOT
BRANCH   3  13
HETATM   13  N   UNK N   1      26.469  25.864  -4.150  0.00  0.00    -0.396 N 
HETATM   14  H   UNK N   1      25.971  25.613  -3.296  0.00  0.00     0.154 HD
BRANCH  13  15
HETATM   15  C   UNK N   1      26.677  27.219  -4.659  0.00  0.00     0.178 C 
BRANCH  15  16
HETATM   16  C   UNK N   1      26.270  27.330  -6.136  0.00  0.00     0.039 C 
BRANCH  16  17
HETATM   17  C   UNK N   1      27.407  27.708  -7.076  0.00  0.00     0.041 C 
BRANCH  17  18
HETATM   18  C   UNK N   1      27.677  26.675  -8.120  0.00  0.00    -0.058 A 
HETATM   19  C   UNK N   1      28.913  26.017  -8.138  0.00  0.00     0.007 A 
HETATM   20  C   UNK N   1      29.161  25.011  -9.074  0.00  0.00     0.001 A 
HETATM   21  C   UNK N   1      28.170  24.651  -9.992  0.00  0.00     0.000 A 
HETATM   22  C   UNK N   1      26.932  25.302  -9.974  0.00  0.00     0.001 A 
HETATM   23  C   UNK N   1      26.684  26.310  -9.036  0.00  0.00     0.007 A 
ENDBRANCH  17  18
ENDBRANCH  16  17
ENDBRANCH  15  16
BRANCH  15  24
HETATM   24  C   UNK N   1      26.010  28.218  -3.710  0.00  0.00     0.281 C 
HETATM   25  O   UNK N   1      25.434  27.765  -2.735  0.00  0.00    -0.263 OA
BRANCH  24  26
HETATM   26  O   UNK N   1      26.020  29.575  -3.867  0.00  0.00    -0.320 OA
BRANCH  26  27
HETATM   27  C   UNK N   1      27.125  30.391  -3.923  0.00  0.00     0.174 C 
HETATM   28  C   UNK N   1      27.920  30.258  -2.640  0.00  0.00     0.034 C 
ENDBRANCH  26  27
ENDBRANCH  24  26
ENDBRANCH  15  24
ENDBRANCH  13  15
ENDBRANCH   3  13
BRANCH   2  29
HETATM   29  C   UNK N   1      30.512  23.198  -4.593  0.00  0.00     0.242 C 
BRANCH  29  30
HETATM   30  C   UNK N   1      30.435  22.539  -3.242  0.00  0.00     0.158 C 
HETATM   31  O   UNK N   1      30.130  21.362  -3.133  0.00  0.00    -0.649 OA
BRANCH  30  32
HETATM   32  O   UNK N   1      30.697  23.265  -2.139  0.00  0.00    -0.775 OA
HETATM   33  H   UNK N   1      30.510  24.182  -2.122  0.00  0.00     0.167 HD
ENDBRANCH  30  32
ENDBRANCH  29  30
ENDBRANCH   2  29
TORSDOF 11
ENDMDL
