MODEL 1
REMARK VINA RESULT:      -8.0      0.000      0.000
REMARK  9 active torsions:
REMARK  status: ('A' for Active; 'I' for Inactive)
REMARK    1  A    between atoms: S_1  and  N_10 
REMARK    2  A    between atoms: S_1  and  C_34 
REMARK    3  A    between atoms: O_2  and  C_11 
REMARK    4  A    between atoms: O_2  and  C_16 
REMARK    5  A    between atoms: O_4  and  C_28 
REMARK       I    between atoms: N_9  and  C_16 
REMARK    6  A    between atoms: N_9  and  C_20 
REMARK       I    between atoms: N_10  and  C_33 
REMARK    7  A    between atoms: C_18  and  C_21 
REMARK    8  A    between atoms: C_21  and  C_26 
REMARK    9  A    between atoms: C_31  and  C_33 
ROOT
HETATM    1  C   UNK N   1      26.207  14.742   4.622  0.00  0.00    -0.020 C 
HETATM    2  C   UNK N   1      25.108  14.553   3.785  0.00  0.00     0.075 C 
HETATM    3  C   UNK N   1      26.031  14.823   6.012  0.00  0.00     0.011 C 
HETATM    4  C   UNK N   1      23.862  14.870   4.299  0.00  0.00     0.054 C 
HETATM    5  C   UNK N   1      23.718  15.283   5.625  0.00  0.00     0.035 C 
HETATM    6  C   UNK N   1      24.789  15.140   6.507  0.00  0.00     0.018 C 
ENDROOT
BRANCH   1   7
HETATM    7  C   UNK N   1      27.251  15.645   4.046  0.00  0.00     0.082 C 
BRANCH   7   8
HETATM    8  C   UNK N   1      27.700  16.586   5.168  0.00  0.00    -0.026 A 
HETATM    9  C   UNK N   1      27.265  17.843   5.172  0.00  0.00     0.001 A 
HETATM   10  C   UNK N   1      27.882  18.546   6.146  0.00  0.00     0.044 A 
HETATM   11  C   UNK N   1      26.309  18.339   4.372  0.00  0.00     0.044 A 
HETATM   12  N   UNK N   1      28.757  17.744   6.782  0.00  0.00    -0.360 N 
HETATM   13  C   UNK N   1      27.551  19.891   6.362  0.00  0.00     0.033 A 
HETATM   14  C   UNK N   1      28.667  16.514   6.193  0.00  0.00     0.099 A 
HETATM   15  C   UNK N   1      29.618  18.111   7.896  0.00  0.00     0.155 C 
HETATM   16  C   UNK N   1      26.460  20.415   5.607  0.00  0.00     0.032 A 
HETATM   17  C   UNK N   1      25.830  19.602   4.621  0.00  0.00     0.037 A 
BRANCH  17  18
HETATM   18  N   UNK N   1      24.478  19.803   4.266  0.00  0.00    -0.303 N 
HETATM   19  C   UNK N   1      24.213  20.558   3.139  0.00  0.00     0.365 C 
HETATM   20  O   UNK N   1      25.121  20.913   2.399  0.00  0.00    -0.238 OA
HETATM   21  H   UNK N   1      23.748  19.417   4.803  0.00  0.00     0.171 HD
BRANCH  19  22
HETATM   22  O   UNK N   1      22.960  20.879   2.774  0.00  0.00    -0.298 OA
BRANCH  22  23
HETATM   23  C   UNK N   1      22.092  20.112   2.041  0.00  0.00     0.133 C 
HETATM   24  C   UNK N   1      21.761  18.932   2.919  0.00  0.00     0.032 C 
HETATM   25  C   UNK N   1      20.793  19.493   3.952  0.00  0.00     0.002 C 
HETATM   26  C   UNK N   1      20.119  20.683   3.286  0.00  0.00     0.002 C 
HETATM   27  C   UNK N   1      20.741  20.788   1.910  0.00  0.00     0.032 C 
ENDBRANCH  22  23
ENDBRANCH  19  22
ENDBRANCH  17  18
ENDBRANCH   7   8
ENDBRANCH   1   7
BRANCH   2  28
HETATM   28  O   UNK N   1      25.234  14.284   2.459  0.00  0.00    -0.355 OA
HETATM   29  C   UNK N   1      24.223  14.505   1.545  0.00  0.00     0.210 C 
ENDBRANCH   2  28
BRANCH   5  30
HETATM   30  C   UNK N   1      22.698  16.296   5.969  0.00  0.00     0.265 C 
HETATM   31  O   UNK N   1      23.001  17.472   5.819  0.00  0.00    -0.267 OA
HETATM   32  N   UNK N   1      21.406  16.019   6.273  0.00  0.00    -0.246 N 
HETATM   33  H   UNK N   1      20.772  16.754   6.105  0.00  0.00     0.182 HD
BRANCH  32  34
HETATM   34  S   UNK N   1      20.685  14.551   6.926  0.00  0.00     0.266 S 
HETATM   35  O   UNK N   1      19.656  15.115   7.912  0.00  0.00    -0.200 OA
HETATM   36  O   UNK N   1      19.767  13.850   5.917  0.00  0.00    -0.200 OA
BRANCH  34  37
HETATM   37  C   UNK N   1      21.827  13.532   7.848  0.00  0.00     0.085 A 
HETATM   38  C   UNK N   1      22.440  12.399   7.262  0.00  0.00    -0.039 A 
HETATM   39  C   UNK N   1      23.372  11.663   7.993  0.00  0.00     0.008 A 
HETATM   40  C   UNK N   1      22.142  11.962   5.868  0.00  0.00     0.050 C 
HETATM   41  C   UNK N   1      23.698  12.037   9.296  0.00  0.00     0.001 A 
HETATM   42  C   UNK N   1      23.086  13.149   9.879  0.00  0.00     0.002 A 
HETATM   43  C   UNK N   1      22.155  13.896   9.156  0.00  0.00     0.026 A 
ENDBRANCH  34  37
ENDBRANCH  32  34
ENDBRANCH   5  30
TORSDOF 9
ENDMDL
MODEL 2
REMARK VINA RESULT:      -7.9      2.524      6.239
REMARK  9 active torsions:
REMARK  status: ('A' for Active; 'I' for Inactive)
REMARK    1  A    between atoms: S_1  and  N_10 
REMARK    2  A    between atoms: S_1  and  C_34 
REMARK    3  A    between atoms: O_2  and  C_11 
REMARK    4  A    between atoms: O_2  and  C_16 
REMARK    5  A    between atoms: O_4  and  C_28 
REMARK       I    between atoms: N_9  and  C_16 
REMARK    6  A    between atoms: N_9  and  C_20 
REMARK       I    between atoms: N_10  and  C_33 
REMARK    7  A    between atoms: C_18  and  C_21 
REMARK    8  A    between atoms: C_21  and  C_26 
REMARK    9  A    between atoms: C_31  and  C_33 
ROOT
HETATM    1  C   UNK N   1      21.371  16.484   5.966  0.00  0.00    -0.020 C 
HETATM    2  C   UNK N   1      20.796  16.516   7.236  0.00  0.00     0.075 C 
HETATM    3  C   UNK N   1      21.303  15.317   5.188  0.00  0.00     0.011 C 
HETATM    4  C   UNK N   1      20.554  15.298   7.849  0.00  0.00     0.054 C 
HETATM    5  C   UNK N   1      20.805  14.098   7.182  0.00  0.00     0.035 C 
HETATM    6  C   UNK N   1      21.063  14.117   5.812  0.00  0.00     0.018 C 
ENDROOT
BRANCH   1   7
HETATM    7  C   UNK N   1      22.649  17.256   5.866  0.00  0.00     0.082 C 
BRANCH   7   8
HETATM    8  C   UNK N   1      22.489  18.243   4.706  0.00  0.00    -0.026 A 
HETATM    9  C   UNK N   1      23.555  18.909   4.271  0.00  0.00     0.001 A 
HETATM   10  C   UNK N   1      23.186  19.828   3.352  0.00  0.00     0.044 A 
HETATM   11  C   UNK N   1      24.823  18.673   4.637  0.00  0.00     0.044 A 
HETATM   12  N   UNK N   1      21.850  19.782   3.194  0.00  0.00    -0.360 N 
HETATM   13  C   UNK N   1      24.154  20.626   2.726  0.00  0.00     0.033 A 
HETATM   14  C   UNK N   1      21.386  18.802   4.027  0.00  0.00     0.099 A 
HETATM   15  C   UNK N   1      21.054  20.603   2.294  0.00  0.00     0.155 C 
HETATM   16  C   UNK N   1      25.518  20.322   3.007  0.00  0.00     0.032 A 
HETATM   17  C   UNK N   1      25.834  19.312   3.961  0.00  0.00     0.037 A 
BRANCH  17  18
HETATM   18  N   UNK N   1      27.044  18.586   3.881  0.00  0.00    -0.303 N 
HETATM   19  C   UNK N   1      28.029  18.874   4.807  0.00  0.00     0.365 C 
HETATM   20  O   UNK N   1      27.802  19.624   5.747  0.00  0.00    -0.238 OA
HETATM   21  H   UNK N   1      27.179  17.898   3.191  0.00  0.00     0.171 HD
BRANCH  19  22
HETATM   22  O   UNK N   1      29.244  18.301   4.755  0.00  0.00    -0.298 OA
BRANCH  22  23
HETATM   23  C   UNK N   1      29.527  16.960   4.789  0.00  0.00     0.133 C 
HETATM   24  C   UNK N   1      30.891  16.824   4.161  0.00  0.00     0.032 C 
HETATM   25  C   UNK N   1      31.850  17.311   5.238  0.00  0.00     0.002 C 
HETATM   26  C   UNK N   1      31.142  17.076   6.564  0.00  0.00     0.002 C 
HETATM   27  C   UNK N   1      29.791  16.492   6.206  0.00  0.00     0.032 C 
ENDBRANCH  22  23
ENDBRANCH  19  22
ENDBRANCH  17  18
ENDBRANCH   7   8
ENDBRANCH   1   7
BRANCH   2  28
HETATM   28  O   UNK N   1      20.669  17.662   7.954  0.00  0.00    -0.355 OA
HETATM   29  C   UNK N   1      19.610  17.905   8.806  0.00  0.00     0.210 C 
ENDBRANCH   2  28
BRANCH   5  30
HETATM   30  C   UNK N   1      21.298  12.929   7.941  0.00  0.00     0.265 C 
HETATM   31  O   UNK N   1      20.805  12.728   9.043  0.00  0.00    -0.267 OA
HETATM   32  N   UNK N   1      22.124  11.976   7.444  0.00  0.00    -0.246 N 
HETATM   33  H   UNK N   1      22.065  11.101   7.890  0.00  0.00     0.182 HD
BRANCH  32  34
HETATM   34  S   UNK N   1      23.289  12.063   6.127  0.00  0.00     0.266 S 
HETATM   35  O   UNK N   1      24.136  10.808   6.371  0.00  0.00    -0.200 OA
HETATM   36  O   UNK N   1      22.663  11.732   4.767  0.00  0.00    -0.200 OA
BRANCH  34  37
HETATM   37  C   UNK N   1      24.374  13.480   6.211  0.00  0.00     0.085 A 
HETATM   38  C   UNK N   1      24.975  13.875   7.430  0.00  0.00    -0.039 A 
HETATM   39  C   UNK N   1      25.864  14.950   7.445  0.00  0.00     0.008 A 
HETATM   40  C   UNK N   1      24.711  13.169   8.716  0.00  0.00     0.050 C 
HETATM   41  C   UNK N   1      26.159  15.635   6.267  0.00  0.00     0.001 A 
HETATM   42  C   UNK N   1      25.558  15.253   5.065  0.00  0.00     0.002 A 
HETATM   43  C   UNK N   1      24.670  14.176   5.037  0.00  0.00     0.026 A 
ENDBRANCH  34  37
ENDBRANCH  32  34
ENDBRANCH   5  30
TORSDOF 9
ENDMDL
MODEL 3
REMARK VINA RESULT:      -7.9      7.457     11.891
REMARK  9 active torsions:
REMARK  status: ('A' for Active; 'I' for Inactive)
REMARK    1  A    between atoms: S_1  and  N_10 
REMARK    2  A    between atoms: S_1  and  C_34 
REMARK    3  A    between atoms: O_2  and  C_11 
REMARK    4  A    between atoms: O_2  and  C_16 
REMARK    5  A    between atoms: O_4  and  C_28 
REMARK       I    between atoms: N_9  and  C_16 
REMARK    6  A    between atoms: N_9  and  C_20 
REMARK       I    between atoms: N_10  and  C_33 
REMARK    7  A    between atoms: C_18  and  C_21 
REMARK    8  A    between atoms: C_21  and  C_26 
REMARK    9  A    between atoms: C_31  and  C_33 
ROOT
HETATM    1  C   UNK N   1      32.080  16.307   7.708  0.00  0.00    -0.020 C 
HETATM    2  C   UNK N   1      32.198  17.556   8.316  0.00  0.00     0.075 C 
HETATM    3  C   UNK N   1      30.969  16.016   6.900  0.00  0.00     0.011 C 
HETATM    4  C   UNK N   1      31.040  18.305   8.449  0.00  0.00     0.054 C 
HETATM    5  C   UNK N   1      29.829  17.851   7.923  0.00  0.00     0.035 C 
HETATM    6  C   UNK N   1      29.828  16.767   7.046  0.00  0.00     0.018 C 
ENDROOT
BRANCH   1   7
HETATM    7  C   UNK N   1      32.581  15.179   8.553  0.00  0.00     0.082 C 
BRANCH   7   8
HETATM    8  C   UNK N   1      33.939  14.759   7.983  0.00  0.00    -0.026 A 
HETATM    9  C   UNK N   1      34.913  14.413   8.820  0.00  0.00     0.001 A 
HETATM   10  C   UNK N   1      36.063  14.219   8.140  0.00  0.00     0.044 A 
HETATM   11  C   UNK N   1      34.773  14.221  10.141  0.00  0.00     0.044 A 
HETATM   12  N   UNK N   1      35.850  14.464   6.834  0.00  0.00    -0.360 N 
HETATM   13  C   UNK N   1      37.222  13.810   8.817  0.00  0.00     0.033 A 
HETATM   14  C   UNK N   1      34.532  14.804   6.705  0.00  0.00     0.099 A 
HETATM   15  C   UNK N   1      36.829  14.364   5.762  0.00  0.00     0.155 C 
HETATM   16  C   UNK N   1      37.079  13.486  10.198  0.00  0.00     0.032 A 
HETATM   17  C   UNK N   1      35.824  13.679  10.842  0.00  0.00     0.037 A 
BRANCH  17  18
HETATM   18  N   UNK N   1      35.449  12.900  11.959  0.00  0.00    -0.303 N 
HETATM   19  C   UNK N   1      35.842  13.336  13.210  0.00  0.00     0.365 C 
HETATM   20  O   UNK N   1      36.366  14.432  13.352  0.00  0.00    -0.238 OA
HETATM   21  H   UNK N   1      34.924  12.073  11.850  0.00  0.00     0.171 HD
BRANCH  19  22
HETATM   22  O   UNK N   1      35.611  12.616  14.322  0.00  0.00    -0.298 OA
BRANCH  22  23
HETATM   23  C   UNK N   1      34.481  12.634  15.098  0.00  0.00     0.133 C 
HETATM   24  C   UNK N   1      33.895  11.249  14.982  0.00  0.00     0.032 C 
HETATM   25  C   UNK N   1      34.791  10.388  15.861  0.00  0.00     0.002 C 
HETATM   26  C   UNK N   1      35.380  11.327  16.903  0.00  0.00     0.002 C 
HETATM   27  C   UNK N   1      34.831  12.699  16.571  0.00  0.00     0.032 C 
ENDBRANCH  22  23
ENDBRANCH  19  22
ENDBRANCH  17  18
ENDBRANCH   7   8
ENDBRANCH   1   7
BRANCH   2  28
HETATM   28  O   UNK N   1      33.329  17.958   8.952  0.00  0.00    -0.355 OA
HETATM   29  C   UNK N   1      34.471  18.354   8.284  0.00  0.00     0.210 C 
ENDBRANCH   2  28
BRANCH   5  30
HETATM   30  C   UNK N   1      28.568  18.137   8.639  0.00  0.00     0.265 C 
HETATM   31  O   UNK N   1      28.406  17.599   9.725  0.00  0.00    -0.267 OA
HETATM   32  N   UNK N   1      27.661  19.072   8.265  0.00  0.00    -0.246 N 
HETATM   33  H   UNK N   1      27.097  19.419   8.993  0.00  0.00     0.182 HD
BRANCH  32  34
HETATM   34  S   UNK N   1      27.335  19.763   6.678  0.00  0.00     0.266 S 
HETATM   35  O   UNK N   1      26.225  20.771   6.994  0.00  0.00    -0.200 OA
HETATM   36  O   UNK N   1      28.453  20.700   6.204  0.00  0.00    -0.200 OA
BRANCH  34  37
HETATM   37  C   UNK N   1      26.688  18.589   5.497  0.00  0.00     0.085 A 
HETATM   38  C   UNK N   1      26.330  18.986   4.186  0.00  0.00    -0.039 A 
HETATM   39  C   UNK N   1      25.886  18.029   3.273  0.00  0.00     0.008 A 
HETATM   40  C   UNK N   1      26.426  20.400   3.727  0.00  0.00     0.050 C 
HETATM   41  C   UNK N   1      25.793  16.690   3.647  0.00  0.00     0.001 A 
HETATM   42  C   UNK N   1      26.136  16.298   4.942  0.00  0.00     0.002 A 
HETATM   43  C   UNK N   1      26.586  17.245   5.865  0.00  0.00     0.026 A 
ENDBRANCH  34  37
ENDBRANCH  32  34
ENDBRANCH   5  30
TORSDOF 9
ENDMDL
MODEL 4
REMARK VINA RESULT:      -7.8      2.825      5.872
REMARK  9 active torsions:
REMARK  status: ('A' for Active; 'I' for Inactive)
REMARK    1  A    between atoms: S_1  and  N_10 
REMARK    2  A    between atoms: S_1  and  C_34 
REMARK    3  A    between atoms: O_2  and  C_11 
REMARK    4  A    between atoms: O_2  and  C_16 
REMARK    5  A    between atoms: O_4  and  C_28 
REMARK       I    between atoms: N_9  and  C_16 
REMARK    6  A    between atoms: N_9  and  C_20 
REMARK       I    between atoms: N_10  and  C_33 
REMARK    7  A    between atoms: C_18  and  C_21 
REMARK    8  A    between atoms: C_21  and  C_26 
REMARK    9  A    between atoms: C_31  and  C_33 
ROOT
HETATM    1  C   UNK N   1      23.112  15.356   4.403  0.00  0.00    -0.020 C 
HETATM    2  C   UNK N   1      21.996  14.585   4.727  0.00  0.00     0.075 C 
HETATM    3  C   UNK N   1      24.306  14.738   3.998  0.00  0.00     0.011 C 
HETATM    4  C   UNK N   1      22.219  13.255   5.042  0.00  0.00     0.054 C 
HETATM    5  C   UNK N   1      23.499  12.704   4.958  0.00  0.00     0.035 C 
HETATM    6  C   UNK N   1      24.512  13.418   4.320  0.00  0.00     0.018 C 
ENDROOT
BRANCH   1   7
HETATM    7  C   UNK N   1      23.270  16.572   5.261  0.00  0.00     0.082 C 
BRANCH   7   8
HETATM    8  C   UNK N   1      23.059  17.790   4.358  0.00  0.00    -0.026 A 
HETATM    9  C   UNK N   1      24.082  18.607   4.122  0.00  0.00     0.001 A 
HETATM   10  C   UNK N   1      23.663  19.689   3.432  0.00  0.00     0.044 A 
HETATM   11  C   UNK N   1      25.359  18.372   4.460  0.00  0.00     0.044 A 
HETATM   12  N   UNK N   1      22.336  19.597   3.229  0.00  0.00    -0.360 N 
HETATM   13  C   UNK N   1      24.582  20.672   3.038  0.00  0.00     0.033 A 
HETATM   14  C   UNK N   1      21.929  18.422   3.797  0.00  0.00     0.099 A 
HETATM   15  C   UNK N   1      21.498  20.554   2.522  0.00  0.00     0.155 C 
HETATM   16  C   UNK N   1      25.961  20.398   3.280  0.00  0.00     0.032 A 
HETATM   17  C   UNK N   1      26.332  19.215   3.981  0.00  0.00     0.037 A 
BRANCH  17  18
HETATM   18  N   UNK N   1      27.590  18.607   3.770  0.00  0.00    -0.303 N 
HETATM   19  C   UNK N   1      28.525  18.693   4.784  0.00  0.00     0.365 C 
HETATM   20  O   UNK N   1      28.220  19.152   5.877  0.00  0.00    -0.238 OA
HETATM   21  H   UNK N   1      27.793  18.136   2.929  0.00  0.00     0.171 HD
BRANCH  19  22
HETATM   22  O   UNK N   1      29.777  18.224   4.641  0.00  0.00    -0.298 OA
BRANCH  22  23
HETATM   23  C   UNK N   1      30.234  16.975   4.971  0.00  0.00     0.133 C 
HETATM   24  C   UNK N   1      30.563  16.310   3.658  0.00  0.00     0.032 C 
HETATM   25  C   UNK N   1      31.874  16.954   3.230  0.00  0.00     0.002 C 
HETATM   26  C   UNK N   1      32.552  17.413   4.513  0.00  0.00     0.002 C 
HETATM   27  C   UNK N   1      31.597  17.048   5.630  0.00  0.00     0.032 C 
ENDBRANCH  22  23
ENDBRANCH  19  22
ENDBRANCH  17  18
ENDBRANCH   7   8
ENDBRANCH   1   7
BRANCH   2  28
HETATM   28  O   UNK N   1      20.770  15.126   4.945  0.00  0.00    -0.355 OA
HETATM   29  C   UNK N   1      19.612  14.376   4.995  0.00  0.00     0.210 C 
ENDBRANCH   2  28
BRANCH   5  30
HETATM   30  C   UNK N   1      23.917  11.674   5.933  0.00  0.00     0.265 C 
HETATM   31  O   UNK N   1      23.926  10.512   5.553  0.00  0.00    -0.267 OA
HETATM   32  N   UNK N   1      24.446  11.935   7.154  0.00  0.00    -0.246 N 
HETATM   33  H   UNK N   1      25.014  11.219   7.522  0.00  0.00     0.182 HD
BRANCH  32  34
HETATM   34  S   UNK N   1      24.277  13.353   8.183  0.00  0.00     0.266 S 
HETATM   35  O   UNK N   1      25.197  13.003   9.358  0.00  0.00    -0.200 OA
HETATM   36  O   UNK N   1      24.991  14.583   7.610  0.00  0.00    -0.200 OA
BRANCH  34  37
HETATM   37  C   UNK N   1      22.627  13.585   8.829  0.00  0.00     0.085 A 
HETATM   38  C   UNK N   1      22.098  12.726   9.822  0.00  0.00    -0.039 A 
HETATM   39  C   UNK N   1      20.829  12.976  10.345  0.00  0.00     0.008 A 
HETATM   40  C   UNK N   1      22.857  11.559  10.353  0.00  0.00     0.050 C 
HETATM   41  C   UNK N   1      20.083  14.063   9.894  0.00  0.00     0.001 A 
HETATM   42  C   UNK N   1      20.600  14.906   8.907  0.00  0.00     0.002 A 
HETATM   43  C   UNK N   1      21.870  14.669   8.378  0.00  0.00     0.026 A 
ENDBRANCH  34  37
ENDBRANCH  32  34
ENDBRANCH   5  30
TORSDOF 9
ENDMDL
MODEL 5
REMARK VINA RESULT:      -7.5      8.068     12.478
REMARK  9 active torsions:
REMARK  status: ('A' for Active; 'I' for Inactive)
REMARK    1  A    between atoms: S_1  and  N_10 
REMARK    2  A    between atoms: S_1  and  C_34 
REMARK    3  A    between atoms: O_2  and  C_11 
REMARK    4  A    between atoms: O_2  and  C_16 
REMARK    5  A    between atoms: O_4  and  C_28 
REMARK       I    between atoms: N_9  and  C_16 
REMARK    6  A    between atoms: N_9  and  C_20 
REMARK       I    between atoms: N_10  and  C_33 
REMARK    7  A    between atoms: C_18  and  C_21 
REMARK    8  A    between atoms: C_21  and  C_26 
REMARK    9  A    between atoms: C_31  and  C_33 
ROOT
HETATM    1  C   UNK N   1      33.443  15.366   7.167  0.00  0.00    -0.020 C 
HETATM    2  C   UNK N   1      33.468  16.756   7.063  0.00  0.00     0.075 C 
HETATM    3  C   UNK N   1      32.333  14.642   6.703  0.00  0.00     0.011 C 
HETATM    4  C   UNK N   1      32.251  17.399   6.901  0.00  0.00     0.054 C 
HETATM    5  C   UNK N   1      31.068  16.669   6.769  0.00  0.00     0.035 C 
HETATM    6  C   UNK N   1      31.133  15.294   6.549  0.00  0.00     0.018 C 
ENDROOT
BRANCH   1   7
HETATM    7  C   UNK N   1      34.080  14.847   8.417  0.00  0.00     0.082 C 
BRANCH   7   8
HETATM    8  C   UNK N   1      35.469  14.329   8.032  0.00  0.00    -0.026 A 
HETATM    9  C   UNK N   1      36.311  13.960   8.993  0.00  0.00     0.001 A 
HETATM   10  C   UNK N   1      37.522  13.676   8.466  0.00  0.00     0.044 A 
HETATM   11  C   UNK N   1      36.001  13.824  10.291  0.00  0.00     0.044 A 
HETATM   12  N   UNK N   1      37.484  13.884   7.136  0.00  0.00    -0.360 N 
HETATM   13  C   UNK N   1      38.562  13.227   9.292  0.00  0.00     0.033 A 
HETATM   14  C   UNK N   1      36.215  14.294   6.835  0.00  0.00     0.099 A 
HETATM   15  C   UNK N   1      38.578  13.690   6.197  0.00  0.00     0.155 C 
HETATM   16  C   UNK N   1      38.234  12.963  10.654  0.00  0.00     0.032 A 
HETATM   17  C   UNK N   1      36.923  13.251  11.132  0.00  0.00     0.037 A 
BRANCH  17  18
HETATM   18  N   UNK N   1      36.369  12.535  12.217  0.00  0.00    -0.303 N 
HETATM   19  C   UNK N   1      36.351  13.153  13.454  0.00  0.00     0.365 C 
HETATM   20  O   UNK N   1      36.668  14.328  13.568  0.00  0.00    -0.238 OA
HETATM   21  H   UNK N   1      36.007  11.627  12.096  0.00  0.00     0.171 HD
BRANCH  19  22
HETATM   22  O   UNK N   1      35.927  12.518  14.561  0.00  0.00    -0.298 OA
BRANCH  22  23
HETATM   23  C   UNK N   1      34.651  12.493  15.061  0.00  0.00     0.133 C 
HETATM   24  C   UNK N   1      34.348  11.037  15.310  0.00  0.00     0.032 C 
HETATM   25  C   UNK N   1      35.124  10.704  16.578  0.00  0.00     0.002 C 
HETATM   26  C   UNK N   1      35.268  12.017  17.334  0.00  0.00     0.002 C 
HETATM   27  C   UNK N   1      34.602  13.063  16.464  0.00  0.00     0.032 C 
ENDBRANCH  22  23
ENDBRANCH  19  22
ENDBRANCH  17  18
ENDBRANCH   7   8
ENDBRANCH   1   7
BRANCH   2  28
HETATM   28  O   UNK N   1      34.581  17.491   7.322  0.00  0.00    -0.355 OA
HETATM   29  C   UNK N   1      34.614  18.510   8.253  0.00  0.00     0.210 C 
ENDBRANCH   2  28
BRANCH   5  30
HETATM   30  C   UNK N   1      29.815  17.197   7.349  0.00  0.00     0.265 C 
HETATM   31  O   UNK N   1      29.777  17.344   8.563  0.00  0.00    -0.267 OA
HETATM   32  N   UNK N   1      28.776  17.686   6.628  0.00  0.00    -0.246 N 
HETATM   33  H   UNK N   1      28.205  18.330   7.106  0.00  0.00     0.182 HD
BRANCH  32  34
HETATM   34  S   UNK N   1      28.287  17.346   4.972  0.00  0.00     0.266 S 
HETATM   35  O   UNK N   1      29.559  17.689   4.189  0.00  0.00    -0.200 OA
HETATM   36  O   UNK N   1      28.169  15.843   4.691  0.00  0.00    -0.200 OA
BRANCH  34  37
HETATM   37  C   UNK N   1      26.974  18.401   4.373  0.00  0.00     0.085 A 
HETATM   38  C   UNK N   1      25.614  18.047   4.536  0.00  0.00    -0.039 A 
HETATM   39  C   UNK N   1      24.616  18.924   4.111  0.00  0.00     0.008 A 
HETATM   40  C   UNK N   1      25.193  16.765   5.172  0.00  0.00     0.050 C 
HETATM   41  C   UNK N   1      24.955  20.143   3.524  0.00  0.00     0.001 A 
HETATM   42  C   UNK N   1      26.297  20.489   3.353  0.00  0.00     0.002 A 
HETATM   43  C   UNK N   1      27.305  19.621   3.779  0.00  0.00     0.026 A 
ENDBRANCH  34  37
ENDBRANCH  32  34
ENDBRANCH   5  30
TORSDOF 9
ENDMDL
MODEL 6
REMARK VINA RESULT:      -7.4      7.418     10.544
REMARK  9 active torsions:
REMARK  status: ('A' for Active; 'I' for Inactive)
REMARK    1  A    between atoms: S_1  and  N_10 
REMARK    2  A    between atoms: S_1  and  C_34 
REMARK    3  A    between atoms: O_2  and  C_11 
REMARK    4  A    between atoms: O_2  and  C_16 
REMARK    5  A    between atoms: O_4  and  C_28 
REMARK       I    between atoms: N_9  and  C_16 
REMARK    6  A    between atoms: N_9  and  C_20 
REMARK       I    between atoms: N_10  and  C_33 
REMARK    7  A    between atoms: C_18  and  C_21 
REMARK    8  A    between atoms: C_21  and  C_26 
REMARK    9  A    between atoms: C_31  and  C_33 
ROOT
HETATM    1  C   UNK N   1      33.259  15.780   6.906  0.00  0.00    -0.020 C 
HETATM    2  C   UNK N   1      32.554  16.544   7.836  0.00  0.00     0.075 C 
HETATM    3  C   UNK N   1      34.248  14.881   7.334  0.00  0.00     0.011 C 
HETATM    4  C   UNK N   1      33.129  16.704   9.086  0.00  0.00     0.054 C 
HETATM    5  C   UNK N   1      34.323  16.058   9.413  0.00  0.00     0.035 C 
HETATM    6  C   UNK N   1      34.810  15.055   8.576  0.00  0.00     0.018 C 
ENDROOT
BRANCH   1   7
HETATM    7  C   UNK N   1      33.549  16.505   5.631  0.00  0.00     0.082 C 
BRANCH   7   8
HETATM    8  C   UNK N   1      33.281  15.525   4.484  0.00  0.00    -0.026 A 
HETATM    9  C   UNK N   1      32.043  15.403   4.013  0.00  0.00     0.001 A 
HETATM   10  C   UNK N   1      31.985  14.395   3.116  0.00  0.00     0.044 A 
HETATM   11  C   UNK N   1      31.008  16.197   4.327  0.00  0.00     0.044 A 
HETATM   12  N   UNK N   1      33.202  13.828   3.011  0.00  0.00    -0.360 N 
HETATM   13  C   UNK N   1      30.781  14.106   2.458  0.00  0.00     0.033 A 
HETATM   14  C   UNK N   1      34.032  14.511   3.854  0.00  0.00     0.099 A 
HETATM   15  C   UNK N   1      33.567  12.714   2.149  0.00  0.00     0.155 C 
HETATM   16  C   UNK N   1      29.695  15.001   2.683  0.00  0.00     0.032 A 
HETATM   17  C   UNK N   1      29.840  16.068   3.616  0.00  0.00     0.037 A 
BRANCH  17  18
HETATM   18  N   UNK N   1      29.094  17.260   3.483  0.00  0.00    -0.303 N 
HETATM   19  C   UNK N   1      27.842  17.304   4.067  0.00  0.00     0.365 C 
HETATM   20  O   UNK N   1      27.460  16.397   4.794  0.00  0.00    -0.238 OA
HETATM   21  H   UNK N   1      29.454  18.034   2.992  0.00  0.00     0.171 HD
BRANCH  19  22
HETATM   22  O   UNK N   1      27.023  18.360   3.918  0.00  0.00    -0.298 OA
BRANCH  22  23
HETATM   23  C   UNK N   1      27.388  19.669   3.737  0.00  0.00     0.133 C 
HETATM   24  C   UNK N   1      26.131  20.378   3.300  0.00  0.00     0.032 C 
HETATM   25  C   UNK N   1      25.315  20.517   4.577  0.00  0.00     0.002 C 
HETATM   26  C   UNK N   1      26.323  20.516   5.717  0.00  0.00     0.002 C 
HETATM   27  C   UNK N   1      27.678  20.344   5.063  0.00  0.00     0.032 C 
ENDBRANCH  22  23
ENDBRANCH  19  22
ENDBRANCH  17  18
ENDBRANCH   7   8
ENDBRANCH   1   7
BRANCH   2  28
HETATM   28  O   UNK N   1      31.468  17.287   7.501  0.00  0.00    -0.355 OA
HETATM   29  C   UNK N   1      30.568  17.771   8.431  0.00  0.00     0.210 C 
ENDBRANCH   2  28
BRANCH   5  30
HETATM   30  C   UNK N   1      35.301  16.732  10.292  0.00  0.00     0.265 C 
HETATM   31  O   UNK N   1      35.603  17.885  10.016  0.00  0.00    -0.267 OA
HETATM   32  N   UNK N   1      35.758  16.232  11.467  0.00  0.00    -0.246 N 
HETATM   33  H   UNK N   1      36.078  16.906  12.109  0.00  0.00     0.182 HD
BRANCH  32  34
HETATM   34  S   UNK N   1      35.869  14.565  12.022  0.00  0.00     0.266 S 
HETATM   35  O   UNK N   1      36.400  14.741  13.449  0.00  0.00    -0.200 OA
HETATM   36  O   UNK N   1      34.493  13.946  12.299  0.00  0.00    -0.200 OA
BRANCH  34  37
HETATM   37  C   UNK N   1      37.050  13.577  11.116  0.00  0.00     0.085 A 
HETATM   38  C   UNK N   1      37.176  12.186  11.346  0.00  0.00    -0.039 A 
HETATM   39  C   UNK N   1      38.066  11.437  10.576  0.00  0.00     0.008 A 
HETATM   40  C   UNK N   1      36.371  11.472  12.378  0.00  0.00     0.050 C 
HETATM   41  C   UNK N   1      38.831  12.053   9.587  0.00  0.00     0.001 A 
HETATM   42  C   UNK N   1      38.716  13.427   9.365  0.00  0.00     0.002 A 
HETATM   43  C   UNK N   1      37.825  14.187  10.127  0.00  0.00     0.026 A 
ENDBRANCH  34  37
ENDBRANCH  32  34
ENDBRANCH   5  30
TORSDOF 9
ENDMDL
MODEL 7
REMARK VINA RESULT:      -7.3      2.681      6.118
REMARK  9 active torsions:
REMARK  status: ('A' for Active; 'I' for Inactive)
REMARK    1  A    between atoms: S_1  and  N_10 
REMARK    2  A    between atoms: S_1  and  C_34 
REMARK    3  A    between atoms: O_2  and  C_11 
REMARK    4  A    between atoms: O_2  and  C_16 
REMARK    5  A    between atoms: O_4  and  C_28 
REMARK       I    between atoms: N_9  and  C_16 
REMARK    6  A    between atoms: N_9  and  C_20 
REMARK       I    between atoms: N_10  and  C_33 
REMARK    7  A    between atoms: C_18  and  C_21 
REMARK    8  A    between atoms: C_21  and  C_26 
REMARK    9  A    between atoms: C_31  and  C_33 
ROOT
HETATM    1  C   UNK N   1      21.225  16.271   5.397  0.00  0.00    -0.020 C 
HETATM    2  C   UNK N   1      20.561  15.982   6.589  0.00  0.00     0.075 C 
HETATM    3  C   UNK N   1      21.207  15.353   4.336  0.00  0.00     0.011 C 
HETATM    4  C   UNK N   1      20.270  14.651   6.841  0.00  0.00     0.054 C 
HETATM    5  C   UNK N   1      20.563  13.663   5.898  0.00  0.00     0.035 C 
HETATM    6  C   UNK N   1      20.919  14.036   4.603  0.00  0.00     0.018 C 
ENDROOT
BRANCH   1   7
HETATM    7  C   UNK N   1      22.510  17.013   5.593  0.00  0.00     0.082 C 
BRANCH   7   8
HETATM    8  C   UNK N   1      22.571  18.099   4.514  0.00  0.00    -0.026 A 
HETATM    9  C   UNK N   1      23.713  18.751   4.316  0.00  0.00     0.001 A 
HETATM   10  C   UNK N   1      23.527  19.758   3.436  0.00  0.00     0.044 A 
HETATM   11  C   UNK N   1      24.898  18.429   4.857  0.00  0.00     0.044 A 
HETATM   12  N   UNK N   1      22.234  19.785   3.064  0.00  0.00    -0.360 N 
HETATM   13  C   UNK N   1      24.608  20.562   3.046  0.00  0.00     0.033 A 
HETATM   14  C   UNK N   1      21.611  18.761   3.721  0.00  0.00     0.099 A 
HETATM   15  C   UNK N   1      21.621  20.713   2.125  0.00  0.00     0.155 C 
HETATM   16  C   UNK N   1      25.899  20.175   3.513  0.00  0.00     0.032 A 
HETATM   17  C   UNK N   1      26.024  19.076   4.411  0.00  0.00     0.037 A 
BRANCH  17  18
HETATM   18  N   UNK N   1      27.208  18.306   4.461  0.00  0.00    -0.303 N 
HETATM   19  C   UNK N   1      28.125  18.599   5.453  0.00  0.00     0.365 C 
HETATM   20  O   UNK N   1      27.850  19.394   6.341  0.00  0.00    -0.238 OA
HETATM   21  H   UNK N   1      27.374  17.586   3.811  0.00  0.00     0.171 HD
BRANCH  19  22
HETATM   22  O   UNK N   1      29.317  17.982   5.525  0.00  0.00    -0.298 OA
BRANCH  22  23
HETATM   23  C   UNK N   1      29.660  16.779   4.965  0.00  0.00     0.133 C 
HETATM   24  C   UNK N   1      30.778  17.091   4.002  0.00  0.00     0.032 C 
HETATM   25  C   UNK N   1      31.992  17.310   4.895  0.00  0.00     0.002 C 
HETATM   26  C   UNK N   1      31.726  16.511   6.162  0.00  0.00     0.002 C 
HETATM   27  C   UNK N   1      30.360  15.887   5.971  0.00  0.00     0.032 C 
ENDBRANCH  22  23
ENDBRANCH  19  22
ENDBRANCH  17  18
ENDBRANCH   7   8
ENDBRANCH   1   7
BRANCH   2  28
HETATM   28  O   UNK N   1      20.388  16.900   7.574  0.00  0.00    -0.355 OA
HETATM   29  C   UNK N   1      19.642  16.658   8.711  0.00  0.00     0.210 C 
ENDBRANCH   2  28
BRANCH   5  30
HETATM   30  C   UNK N   1      20.995  12.325   6.354  0.00  0.00     0.265 C 
HETATM   31  O   UNK N   1      20.318  11.368   6.003  0.00  0.00    -0.267 OA
HETATM   32  N   UNK N   1      22.167  12.063   6.982  0.00  0.00    -0.246 N 
HETATM   33  H   UNK N   1      22.494  11.139   6.884  0.00  0.00     0.182 HD
BRANCH  32  34
HETATM   34  S   UNK N   1      23.194  13.116   7.949  0.00  0.00     0.266 S 
HETATM   35  O   UNK N   1      24.583  12.822   7.370  0.00  0.00    -0.200 OA
HETATM   36  O   UNK N   1      23.032  14.596   7.578  0.00  0.00    -0.200 OA
BRANCH  34  37
HETATM   37  C   UNK N   1      23.226  12.701   9.687  0.00  0.00     0.085 A 
HETATM   38  C   UNK N   1      22.044  12.702  10.465  0.00  0.00    -0.039 A 
HETATM   39  C   UNK N   1      22.100  12.313  11.804  0.00  0.00     0.008 A 
HETATM   40  C   UNK N   1      20.719  13.087   9.902  0.00  0.00     0.050 C 
HETATM   41  C   UNK N   1      23.312  11.929  12.375  0.00  0.00     0.001 A 
HETATM   42  C   UNK N   1      24.481  11.938  11.611  0.00  0.00     0.002 A 
HETATM   43  C   UNK N   1      24.438  12.321  10.269  0.00  0.00     0.026 A 
ENDBRANCH  34  37
ENDBRANCH  32  34
ENDBRANCH   5  30
TORSDOF 9
ENDMDL
MODEL 8
REMARK VINA RESULT:      -7.3     13.100     16.009
REMARK  9 active torsions:
REMARK  status: ('A' for Active; 'I' for Inactive)
REMARK    1  A    between atoms: S_1  and  N_10 
REMARK    2  A    between atoms: S_1  and  C_34 
REMARK    3  A    between atoms: O_2  and  C_11 
REMARK    4  A    between atoms: O_2  and  C_16 
REMARK    5  A    between atoms: O_4  and  C_28 
REMARK       I    between atoms: N_9  and  C_16 
REMARK    6  A    between atoms: N_9  and  C_20 
REMARK       I    between atoms: N_10  and  C_33 
REMARK    7  A    between atoms: C_18  and  C_21 
REMARK    8  A    between atoms: C_21  and  C_26 
REMARK    9  A    between atoms: C_31  and  C_33 
ROOT
HETATM    1  C   UNK N   1      29.994  22.729  -5.358  0.00  0.00    -0.020 C 
HETATM    2  C   UNK N   1      30.338  23.878  -4.647  0.00  0.00     0.075 C 
HETATM    3  C   UNK N   1      28.782  22.669  -6.063  0.00  0.00     0.011 C 
HETATM    4  C   UNK N   1      29.310  24.745  -4.314  0.00  0.00     0.054 C 
HETATM    5  C   UNK N   1      28.004  24.506  -4.746  0.00  0.00     0.035 C 
HETATM    6  C   UNK N   1      27.771  23.534  -5.719  0.00  0.00     0.018 C 
ENDROOT
BRANCH   1   7
HETATM    7  C   UNK N   1      30.418  21.461  -4.687  0.00  0.00     0.082 C 
BRANCH   7   8
HETATM    8  C   UNK N   1      31.671  20.964  -5.414  0.00  0.00    -0.026 A 
HETATM    9  C   UNK N   1      31.533  20.207  -6.498  0.00  0.00     0.001 A 
HETATM   10  C   UNK N   1      32.739  19.753  -6.905  0.00  0.00     0.044 A 
HETATM   11  C   UNK N   1      30.380  19.970  -7.141  0.00  0.00     0.044 A 
HETATM   12  N   UNK N   1      33.686  20.200  -6.060  0.00  0.00    -0.360 N 
HETATM   13  C   UNK N   1      32.841  18.961  -8.057  0.00  0.00     0.033 A 
HETATM   14  C   UNK N   1      33.050  20.959  -5.117  0.00  0.00     0.099 A 
HETATM   15  C   UNK N   1      35.116  19.943  -6.145  0.00  0.00     0.155 C 
HETATM   16  C   UNK N   1      31.653  18.787  -8.826  0.00  0.00     0.032 A 
HETATM   17  C   UNK N   1      30.422  19.328  -8.355  0.00  0.00     0.037 A 
BRANCH  17  18
HETATM   18  N   UNK N   1      29.394  19.693  -9.253  0.00  0.00    -0.303 N 
HETATM   19  C   UNK N   1      29.364  21.000  -9.700  0.00  0.00     0.365 C 
HETATM   20  O   UNK N   1      30.280  21.769  -9.442  0.00  0.00    -0.238 OA
HETATM   21  H   UNK N   1      28.722  19.038  -9.550  0.00  0.00     0.171 HD
BRANCH  19  22
HETATM   22  O   UNK N   1      28.374  21.463 -10.483  0.00  0.00    -0.298 OA
BRANCH  22  23
HETATM   23  C   UNK N   1      27.029  21.254 -10.323  0.00  0.00     0.133 C 
HETATM   24  C   UNK N   1      26.669  21.939  -9.028  0.00  0.00     0.032 C 
HETATM   25  C   UNK N   1      26.656  23.420  -9.378  0.00  0.00     0.002 C 
HETATM   26  C   UNK N   1      26.348  23.494 -10.866  0.00  0.00     0.002 C 
HETATM   27  C   UNK N   1      26.228  22.057 -11.329  0.00  0.00     0.032 C 
ENDBRANCH  22  23
ENDBRANCH  19  22
ENDBRANCH  17  18
ENDBRANCH   7   8
ENDBRANCH   1   7
BRANCH   2  28
HETATM   28  O   UNK N   1      31.569  24.064  -4.103  0.00  0.00    -0.355 OA
HETATM   29  C   UNK N   1      32.634  24.591  -4.807  0.00  0.00     0.210 C 
ENDBRANCH   2  28
BRANCH   5  30
HETATM   30  C   UNK N   1      26.867  24.864  -3.872  0.00  0.00     0.265 C 
HETATM   31  O   UNK N   1      26.821  24.337  -2.768  0.00  0.00    -0.267 OA
HETATM   32  N   UNK N   1      25.973  25.849  -4.130  0.00  0.00    -0.246 N 
HETATM   33  H   UNK N   1      25.531  26.229  -3.336  0.00  0.00     0.182 HD
BRANCH  32  34
HETATM   34  S   UNK N   1      25.478  26.556  -5.664  0.00  0.00     0.266 S 
HETATM   35  O   UNK N   1      25.132  25.311  -6.489  0.00  0.00    -0.200 OA
HETATM   36  O   UNK N   1      24.107  27.240  -5.581  0.00  0.00    -0.200 OA
BRANCH  34  37
HETATM   37  C   UNK N   1      26.784  27.430  -6.514  0.00  0.00     0.085 A 
HETATM   38  C   UNK N   1      27.345  28.615  -5.980  0.00  0.00    -0.039 A 
HETATM   39  C   UNK N   1      28.404  29.236  -6.642  0.00  0.00     0.008 A 
HETATM   40  C   UNK N   1      26.858  29.227  -4.711  0.00  0.00     0.050 C 
HETATM   41  C   UNK N   1      28.908  28.697  -7.824  0.00  0.00     0.001 A 
HETATM   42  C   UNK N   1      28.349  27.534  -8.358  0.00  0.00     0.002 A 
HETATM   43  C   UNK N   1      27.291  26.900  -7.703  0.00  0.00     0.026 A 
ENDBRANCH  34  37
ENDBRANCH  32  34
ENDBRANCH   5  30
TORSDOF 9
ENDMDL
MODEL 9
REMARK VINA RESULT:      -7.1      7.973     10.935
REMARK  9 active torsions:
REMARK  status: ('A' for Active; 'I' for Inactive)
REMARK    1  A    between atoms: S_1  and  N_10 
REMARK    2  A    between atoms: S_1  and  C_34 
REMARK    3  A    between atoms: O_2  and  C_11 
REMARK    4  A    between atoms: O_2  and  C_16 
REMARK    5  A    between atoms: O_4  and  C_28 
REMARK       I    between atoms: N_9  and  C_16 
REMARK    6  A    between atoms: N_9  and  C_20 
REMARK       I    between atoms: N_10  and  C_33 
REMARK    7  A    between atoms: C_18  and  C_21 
REMARK    8  A    between atoms: C_21  and  C_26 
REMARK    9  A    between atoms: C_31  and  C_33 
ROOT
HETATM    1  C   UNK N   1      34.131  15.093   7.386  0.00  0.00    -0.020 C 
HETATM    2  C   UNK N   1      33.354  15.557   8.447  0.00  0.00     0.075 C 
HETATM    3  C   UNK N   1      35.219  14.240   7.627  0.00  0.00     0.011 C 
HETATM    4  C   UNK N   1      33.918  15.510   9.710  0.00  0.00     0.054 C 
HETATM    5  C   UNK N   1      35.180  14.947   9.910  0.00  0.00     0.035 C 
HETATM    6  C   UNK N   1      35.769  14.206   8.886  0.00  0.00     0.018 C 
ENDROOT
BRANCH   1   7
HETATM    7  C   UNK N   1      34.325  16.102   6.299  0.00  0.00     0.082 C 
BRANCH   7   8
HETATM    8  C   UNK N   1      34.011  15.403   4.974  0.00  0.00    -0.026 A 
HETATM    9  C   UNK N   1      32.781  15.486   4.473  0.00  0.00     0.001 A 
HETATM   10  C   UNK N   1      32.666  14.690   3.388  0.00  0.00     0.044 A 
HETATM   11  C   UNK N   1      31.807  16.287   4.931  0.00  0.00     0.044 A 
HETATM   12  N   UNK N   1      33.834  14.053   3.183  0.00  0.00    -0.360 N 
HETATM   13  C   UNK N   1      31.462  14.647   2.671  0.00  0.00     0.033 A 
HETATM   14  C   UNK N   1      34.693  14.476   4.158  0.00  0.00     0.099 A 
HETATM   15  C   UNK N   1      34.130  13.110   2.115  0.00  0.00     0.155 C 
HETATM   16  C   UNK N   1      30.447  15.569   3.062  0.00  0.00     0.032 A 
HETATM   17  C   UNK N   1      30.653  16.407   4.195  0.00  0.00     0.037 A 
BRANCH  17  18
HETATM   18  N   UNK N   1      30.012  17.662   4.302  0.00  0.00    -0.303 N 
HETATM   19  C   UNK N   1      28.885  17.743   5.098  0.00  0.00     0.365 C 
HETATM   20  O   UNK N   1      28.546  16.799   5.797  0.00  0.00    -0.238 OA
HETATM   21  H   UNK N   1      30.357  18.451   3.825  0.00  0.00     0.171 HD
BRANCH  19  22
HETATM   22  O   UNK N   1      28.157  18.870   5.188  0.00  0.00    -0.298 OA
BRANCH  22  23
HETATM   23  C   UNK N   1      27.050  19.078   5.970  0.00  0.00     0.133 C 
HETATM   24  C   UNK N   1      27.476  20.088   7.005  0.00  0.00     0.032 C 
HETATM   25  C   UNK N   1      27.505  21.410   6.251  0.00  0.00     0.002 C 
HETATM   26  C   UNK N   1      26.520  21.255   5.101  0.00  0.00     0.002 C 
HETATM   27  C   UNK N   1      25.983  19.843   5.213  0.00  0.00     0.032 C 
ENDBRANCH  22  23
ENDBRANCH  19  22
ENDBRANCH  17  18
ENDBRANCH   7   8
ENDBRANCH   1   7
BRANCH   2  28
HETATM   28  O   UNK N   1      32.187  16.229   8.262  0.00  0.00    -0.355 OA
HETATM   29  C   UNK N   1      32.053  17.585   8.481  0.00  0.00     0.210 C 
ENDBRANCH   2  28
BRANCH   5  30
HETATM   30  C   UNK N   1      36.085  15.522  10.927  0.00  0.00     0.265 C 
HETATM   31  O   UNK N   1      36.478  16.666  10.745  0.00  0.00    -0.267 OA
HETATM   32  N   UNK N   1      36.374  14.946  12.120  0.00  0.00    -0.246 N 
HETATM   33  H   UNK N   1      36.654  15.572  12.827  0.00  0.00     0.182 HD
BRANCH  32  34
HETATM   34  S   UNK N   1      36.329  13.253  12.600  0.00  0.00     0.266 S 
HETATM   35  O   UNK N   1      35.299  12.674  11.624  0.00  0.00    -0.200 OA
HETATM   36  O   UNK N   1      37.591  12.489  12.180  0.00  0.00    -0.200 OA
BRANCH  34  37
HETATM   37  C   UNK N   1      35.720  12.987  14.259  0.00  0.00     0.085 A 
HETATM   38  C   UNK N   1      36.197  13.753  15.350  0.00  0.00    -0.039 A 
HETATM   39  C   UNK N   1      35.654  13.558  16.620  0.00  0.00     0.008 A 
HETATM   40  C   UNK N   1      37.258  14.788  15.194  0.00  0.00     0.050 C 
HETATM   41  C   UNK N   1      34.649  12.613  16.817  0.00  0.00     0.001 A 
HETATM   42  C   UNK N   1      34.184  11.849  15.745  0.00  0.00     0.002 A 
HETATM   43  C   UNK N   1      34.717  12.037  14.467  0.00  0.00     0.026 A 
ENDBRANCH  34  37
ENDBRANCH  32  34
ENDBRANCH   5  30
TORSDOF 9
ENDMDL
