MODEL 1
REMARK VINA RESULT:      -6.2      0.000      0.000
REMARK  2 active torsions:
REMARK  status: ('A' for Active; 'I' for Inactive)
REMARK    1  A    between atoms: N_7  and  C_15 
REMARK       I    between atoms: N_10  and  C_19 
REMARK    2  A    between atoms: C_11  and  C_12 
ROOT
HETATM    1  N   UNK N   1      34.137  17.248   9.644  0.00  0.00    -0.282 N 
ATOM      2  HN  UNK N   1      34.060  18.192   9.262  1.00  0.00     0.187 HD
HETATM    3  N   UNK N   1      34.394  14.765  10.679  0.00  0.00    -0.174 N 
ATOM      4  HN  UNK N   1      34.504  13.832  11.076  1.00  0.00     0.186 HD
HETATM    5  N   UNK N   1      35.045  17.010  10.588  0.00  0.00    -0.132 N 
ATOM      6  HN  UNK N   1      35.645  17.768  10.914  1.00  0.00     0.205 HD
HETATM    7  N   UNK N   1      36.123  15.545  12.140  0.00  0.00    -0.233 N 
HETATM    8  C   UNK N   1      33.309  16.280   9.169  0.00  0.00     0.104 A 
HETATM    9  C   UNK N   1      33.462  14.975   9.715  0.00  0.00     0.144 A 
HETATM   10  C   UNK N   1      35.179  15.775  11.121  0.00  0.00     0.692 A 
HETATM   11  H   UNK N   1      36.259  14.635  12.490  0.00  0.00     0.174 HD
HETATM   12  H   UNK N   1      36.648  16.295  12.503  0.00  0.00     0.174 HD
ENDROOT
BRANCH   8  13
HETATM   13  C   UNK N   1      32.279  16.636   8.120  0.00  0.00     0.019 A 
HETATM   14  C   UNK N   1      32.606  16.816   6.736  0.00  0.00     0.068 A 
HETATM   15 Cl   UNK N   1      34.249  16.636   6.102  0.00  0.00    -0.082 Cl
HETATM   16  C   UNK N   1      31.591  17.158   5.818  0.00  0.00     0.056 A 
HETATM   17 Cl   UNK N   1      31.941  17.381   4.109  0.00  0.00    -0.083 Cl
HETATM   18  C   UNK N   1      30.277  17.328   6.247  0.00  0.00     0.026 A 
HETATM   19  C   UNK N   1      29.951  17.160   7.587  0.00  0.00     0.003 A 
HETATM   20  C   UNK N   1      30.939  16.818   8.506  0.00  0.00     0.016 A 
ENDBRANCH   8  13
BRANCH   9  21
HETATM   21  N   UNK N   1      32.667  13.889   9.297  0.00  0.00    -0.383 N 
HETATM   22  H   UNK N   1      32.905  13.385   8.484  0.00  0.00     0.157 HD
HETATM   23  H   UNK N   1      31.872  13.631   9.818  0.00  0.00     0.157 HD
ENDBRANCH   9  21
TORSDOF 2
ENDMDL
MODEL 2
REMARK VINA RESULT:      -6.1      6.902      9.752
REMARK  2 active torsions:
REMARK  status: ('A' for Active; 'I' for Inactive)
REMARK    1  A    between atoms: N_7  and  C_15 
REMARK       I    between atoms: N_10  and  C_19 
REMARK    2  A    between atoms: C_11  and  C_12 
ROOT
HETATM    1  N   UNK N   1      36.774  14.187  14.816  0.00  0.00    -0.282 N 
ATOM      2  HN  UNK N   1      37.348  14.388  15.635  1.00  0.00     0.187 HD
HETATM    3  N   UNK N   1      35.268  13.709  12.623  0.00  0.00    -0.174 N 
ATOM      4  HN  UNK N   1      34.703  13.543  11.790  1.00  0.00     0.186 HD
HETATM    5  N   UNK N   1      36.858  14.994  13.760  0.00  0.00    -0.132 N 
ATOM      6  HN  UNK N   1      37.489  15.795  13.786  1.00  0.00     0.205 HD
HETATM    7  N   UNK N   1      36.238  15.609  11.534  0.00  0.00    -0.233 N 
HETATM    8  C   UNK N   1      35.952  13.104  14.840  0.00  0.00     0.104 A 
HETATM    9  C   UNK N   1      35.157  12.870  13.684  0.00  0.00     0.144 A 
HETATM   10  C   UNK N   1      36.117  14.763  12.653  0.00  0.00     0.692 A 
HETATM   11  H   UNK N   1      35.659  15.472  10.750  0.00  0.00     0.174 HD
HETATM   12  H   UNK N   1      36.902  16.335  11.536  0.00  0.00     0.174 HD
ENDROOT
BRANCH   8  13
HETATM   13  C   UNK N   1      35.938  12.213  16.063  0.00  0.00     0.019 A 
HETATM   14  C   UNK N   1      36.574  10.929  16.099  0.00  0.00     0.068 A 
HETATM   15 Cl   UNK N   1      37.451  10.248  14.721  0.00  0.00    -0.082 Cl
HETATM   16  C   UNK N   1      36.509  10.151  17.274  0.00  0.00     0.056 A 
HETATM   17 Cl   UNK N   1      37.280   8.573  17.371  0.00  0.00    -0.083 Cl
HETATM   18  C   UNK N   1      35.826  10.618  18.394  0.00  0.00     0.026 A 
HETATM   19  C   UNK N   1      35.203  11.859  18.368  0.00  0.00     0.003 A 
HETATM   20  C   UNK N   1      35.261  12.642  17.219  0.00  0.00     0.016 A 
ENDBRANCH   8  13
BRANCH   9  21
HETATM   21  N   UNK N   1      34.262  11.785  13.596  0.00  0.00    -0.383 N 
HETATM   22  H   UNK N   1      33.289  11.942  13.612  0.00  0.00     0.157 HD
HETATM   23  H   UNK N   1      34.608  10.867  13.517  0.00  0.00     0.157 HD
ENDBRANCH   9  21
TORSDOF 2
ENDMDL
MODEL 3
REMARK VINA RESULT:      -6.1      2.077      2.735
REMARK  2 active torsions:
REMARK  status: ('A' for Active; 'I' for Inactive)
REMARK    1  A    between atoms: N_7  and  C_15 
REMARK       I    between atoms: N_10  and  C_19 
REMARK    2  A    between atoms: C_11  and  C_12 
ROOT
HETATM    1  N   UNK N   1      32.675  15.194   9.904  0.00  0.00    -0.282 N 
ATOM      2  HN  UNK N   1      31.896  14.534   9.898  1.00  0.00     0.187 HD
HETATM    3  N   UNK N   1      34.753  16.921   9.974  0.00  0.00    -0.174 N 
ATOM      4  HN  UNK N   1      35.540  17.567  10.014  1.00  0.00     0.186 HD
HETATM    5  N   UNK N   1      33.621  15.061  10.830  0.00  0.00    -0.132 N 
ATOM      6  HN  UNK N   1      33.555  14.309  11.516  1.00  0.00     0.205 HD
HETATM    7  N   UNK N   1      35.679  15.742  11.841  0.00  0.00    -0.233 N 
HETATM    8  C   UNK N   1      32.709  16.176   8.964  0.00  0.00     0.104 A 
HETATM    9  C   UNK N   1      33.802  17.084   9.019  0.00  0.00     0.144 A 
HETATM   10  C   UNK N   1      34.671  15.913  10.873  0.00  0.00     0.692 A 
HETATM   11  H   UNK N   1      36.414  16.393  11.906  0.00  0.00     0.174 HD
HETATM   12  H   UNK N   1      35.649  14.971  12.452  0.00  0.00     0.174 HD
ENDROOT
BRANCH   8  13
HETATM   13  C   UNK N   1      31.614  16.241   7.921  0.00  0.00     0.019 A 
HETATM   14  C   UNK N   1      30.579  17.232   7.939  0.00  0.00     0.068 A 
HETATM   15 Cl   UNK N   1      30.471  18.493   9.177  0.00  0.00    -0.082 Cl
HETATM   16  C   UNK N   1      29.586  17.222   6.937  0.00  0.00     0.056 A 
HETATM   17 Cl   UNK N   1      28.301  18.422   6.909  0.00  0.00    -0.083 Cl
HETATM   18  C   UNK N   1      29.601  16.253   5.937  0.00  0.00     0.026 A 
HETATM   19  C   UNK N   1      30.597  15.285   5.914  0.00  0.00     0.003 A 
HETATM   20  C   UNK N   1      31.587  15.283   6.892  0.00  0.00     0.016 A 
ENDBRANCH   8  13
BRANCH   9  21
HETATM   21  N   UNK N   1      33.940  18.148   8.104  0.00  0.00    -0.383 N 
HETATM   22  H   UNK N   1      33.464  18.997   8.256  0.00  0.00     0.157 HD
HETATM   23  H   UNK N   1      34.515  18.043   7.311  0.00  0.00     0.157 HD
ENDBRANCH   9  21
TORSDOF 2
ENDMDL
MODEL 4
REMARK VINA RESULT:      -6.1      1.841      2.312
REMARK  2 active torsions:
REMARK  status: ('A' for Active; 'I' for Inactive)
REMARK    1  A    between atoms: N_7  and  C_15 
REMARK       I    between atoms: N_10  and  C_19 
REMARK    2  A    between atoms: C_11  and  C_12 
ROOT
HETATM    1  N   UNK N   1      34.241  17.372   9.444  0.00  0.00    -0.282 N 
ATOM      2  HN  UNK N   1      33.733  18.256   9.391  1.00  0.00     0.187 HD
HETATM    3  N   UNK N   1      35.617  15.054   9.634  0.00  0.00    -0.174 N 
ATOM      4  HN  UNK N   1      36.144  14.185   9.718  1.00  0.00     0.186 HD
HETATM    5  N   UNK N   1      34.965  17.114  10.531  0.00  0.00    -0.132 N 
ATOM      6  HN  UNK N   1      35.002  17.797  11.287  1.00  0.00     0.205 HD
HETATM    7  N   UNK N   1      36.390  15.683  11.811  0.00  0.00    -0.233 N 
HETATM    8  C   UNK N   1      34.154  16.501   8.404  0.00  0.00     0.104 A 
HETATM    9  C   UNK N   1      34.891  15.290   8.512  0.00  0.00     0.144 A 
HETATM   10  C   UNK N   1      35.652  15.955  10.643  0.00  0.00     0.692 A 
HETATM   11  H   UNK N   1      36.934  14.864  11.871  0.00  0.00     0.174 HD
HETATM   12  H   UNK N   1      36.362  16.311  12.569  0.00  0.00     0.174 HD
ENDROOT
BRANCH   8  13
HETATM   13  C   UNK N   1      33.282  16.850   7.218  0.00  0.00     0.019 A 
HETATM   14  C   UNK N   1      31.850  16.871   7.282  0.00  0.00     0.068 A 
HETATM   15 Cl   UNK N   1      30.945  16.498   8.757  0.00  0.00    -0.082 Cl
HETATM   16  C   UNK N   1      31.104  17.197   6.130  0.00  0.00     0.056 A 
HETATM   17 Cl   UNK N   1      29.346  17.245   6.161  0.00  0.00    -0.083 Cl
HETATM   18  C   UNK N   1      31.748  17.491   4.931  0.00  0.00     0.026 A 
HETATM   19  C   UNK N   1      33.135  17.469   4.857  0.00  0.00     0.003 A 
HETATM   20  C   UNK N   1      33.887  17.154   5.985  0.00  0.00     0.016 A 
ENDBRANCH   8  13
BRANCH   9  21
HETATM   21  N   UNK N   1      34.886  14.314   7.494  0.00  0.00    -0.383 N 
HETATM   22  H   UNK N   1      34.050  14.100   7.018  0.00  0.00     0.157 HD
HETATM   23  H   UNK N   1      35.719  13.845   7.258  0.00  0.00     0.157 HD
ENDBRANCH   9  21
TORSDOF 2
ENDMDL
MODEL 5
REMARK VINA RESULT:      -6.0      7.155     10.036
REMARK  2 active torsions:
REMARK  status: ('A' for Active; 'I' for Inactive)
REMARK    1  A    between atoms: N_7  and  C_15 
REMARK       I    between atoms: N_10  and  C_19 
REMARK    2  A    between atoms: C_11  and  C_12 
ROOT
HETATM    1  N   UNK N   1      36.901  13.835  14.836  0.00  0.00    -0.282 N 
ATOM      2  HN  UNK N   1      37.543  13.936  15.622  1.00  0.00     0.187 HD
HETATM    3  N   UNK N   1      35.211  13.624  12.737  0.00  0.00    -0.174 N 
ATOM      4  HN  UNK N   1      34.577  13.559  11.941  1.00  0.00     0.186 HD
HETATM    5  N   UNK N   1      36.928  14.744  13.864  0.00  0.00    -0.132 N 
ATOM      6  HN  UNK N   1      37.585  15.522  13.919  1.00  0.00     0.205 HD
HETATM    7  N   UNK N   1      36.155  15.601  11.770  0.00  0.00    -0.233 N 
HETATM    8  C   UNK N   1      36.047  12.777  14.819  0.00  0.00     0.104 A 
HETATM    9  C   UNK N   1      35.157  12.683  13.714  0.00  0.00     0.144 A 
HETATM   10  C   UNK N   1      36.094  14.647  12.804  0.00  0.00     0.692 A 
HETATM   11  H   UNK N   1      35.512  15.561  11.025  0.00  0.00     0.174 HD
HETATM   12  H   UNK N   1      36.840  16.306  11.791  0.00  0.00     0.174 HD
ENDROOT
BRANCH   8  13
HETATM   13  C   UNK N   1      36.100  11.765  15.943  0.00  0.00     0.019 A 
HETATM   14  C   UNK N   1      35.587  12.030  17.255  0.00  0.00     0.068 A 
HETATM   15 Cl   UNK N   1      34.830  13.567  17.702  0.00  0.00    -0.082 Cl
HETATM   16  C   UNK N   1      35.682  11.040  18.254  0.00  0.00     0.056 A 
HETATM   17 Cl   UNK N   1      35.060  11.314  19.877  0.00  0.00    -0.083 Cl
HETATM   18  C   UNK N   1      36.276   9.811  17.978  0.00  0.00     0.026 A 
HETATM   19  C   UNK N   1      36.780   9.545  16.711  0.00  0.00     0.003 A 
HETATM   20  C   UNK N   1      36.691  10.510  15.712  0.00  0.00     0.016 A 
ENDBRANCH   8  13
BRANCH   9  21
HETATM   21  N   UNK N   1      34.221  11.635  13.590  0.00  0.00    -0.383 N 
HETATM   22  H   UNK N   1      33.936  11.328  12.699  0.00  0.00     0.157 HD
HETATM   23  H   UNK N   1      33.851  11.209  14.397  0.00  0.00     0.157 HD
ENDBRANCH   9  21
TORSDOF 2
ENDMDL
MODEL 6
REMARK VINA RESULT:      -6.0      6.256      9.298
REMARK  2 active torsions:
REMARK  status: ('A' for Active; 'I' for Inactive)
REMARK    1  A    between atoms: N_7  and  C_15 
REMARK       I    between atoms: N_10  and  C_19 
REMARK    2  A    between atoms: C_11  and  C_12 
ROOT
HETATM    1  N   UNK N   1      34.858  12.790  12.627  0.00  0.00    -0.282 N 
ATOM      2  HN  UNK N   1      34.457  11.853  12.599  1.00  0.00     0.187 HD
HETATM    3  N   UNK N   1      35.902  15.283  12.644  0.00  0.00    -0.174 N 
ATOM      4  HN  UNK N   1      36.290  16.226  12.636  1.00  0.00     0.186 HD
HETATM    5  N   UNK N   1      34.506  13.667  11.689  0.00  0.00    -0.132 N 
ATOM      6  HN  UNK N   1      33.845  13.391  10.963  1.00  0.00     0.205 HD
HETATM    7  N   UNK N   1      34.609  15.846  10.708  0.00  0.00    -0.233 N 
HETATM    8  C   UNK N   1      35.734  13.099  13.620  0.00  0.00     0.104 A 
HETATM    9  C   UNK N   1      36.283  14.411  13.611  0.00  0.00     0.144 A 
HETATM   10  C   UNK N   1      35.013  14.920  11.690  0.00  0.00     0.692 A 
HETATM   11  H   UNK N   1      35.019  16.740  10.677  0.00  0.00     0.174 HD
HETATM   12  H   UNK N   1      33.916  15.598  10.055  0.00  0.00     0.174 HD
ENDROOT
BRANCH   8  13
HETATM   13  C   UNK N   1      36.058  12.060  14.670  0.00  0.00     0.019 A 
HETATM   14  C   UNK N   1      35.502  12.087  15.991  0.00  0.00     0.068 A 
HETATM   15 Cl   UNK N   1      34.370  13.333  16.536  0.00  0.00    -0.082 Cl
HETATM   16  C   UNK N   1      35.861  11.087  16.920  0.00  0.00     0.056 A 
HETATM   17 Cl   UNK N   1      35.198  11.072  18.549  0.00  0.00    -0.083 Cl
HETATM   18  C   UNK N   1      36.755  10.081  16.565  0.00  0.00     0.026 A 
HETATM   19  C   UNK N   1      37.303  10.049  15.289  0.00  0.00     0.003 A 
HETATM   20  C   UNK N   1      36.957  11.024  14.359  0.00  0.00     0.016 A 
ENDBRANCH   8  13
BRANCH   9  21
HETATM   21  N   UNK N   1      37.208  14.844  14.584  0.00  0.00    -0.383 N 
HETATM   22  H   UNK N   1      37.232  15.790  14.858  0.00  0.00     0.157 HD
HETATM   23  H   UNK N   1      37.830  14.200  14.992  0.00  0.00     0.157 HD
ENDBRANCH   9  21
TORSDOF 2
ENDMDL
MODEL 7
REMARK VINA RESULT:      -5.9      5.307      7.995
REMARK  2 active torsions:
REMARK  status: ('A' for Active; 'I' for Inactive)
REMARK    1  A    between atoms: N_7  and  C_15 
REMARK       I    between atoms: N_10  and  C_19 
REMARK    2  A    between atoms: C_11  and  C_12 
ROOT
HETATM    1  N   UNK N   1      34.453  13.549  11.618  0.00  0.00    -0.282 N 
ATOM      2  HN  UNK N   1      33.850  12.790  11.299  1.00  0.00     0.187 HD
HETATM    3  N   UNK N   1      36.037  15.591  12.410  0.00  0.00    -0.174 N 
ATOM      4  HN  UNK N   1      36.631  16.369  12.696  1.00  0.00     0.186 HD
HETATM    5  N   UNK N   1      34.410  14.714  10.975  0.00  0.00    -0.132 N 
ATOM      6  HN  UNK N   1      33.781  14.829  10.180  1.00  0.00     0.205 HD
HETATM    7  N   UNK N   1      35.113  16.982  10.693  0.00  0.00    -0.233 N 
HETATM    8  C   UNK N   1      35.270  13.336  12.684  0.00  0.00     0.104 A 
HETATM    9  C   UNK N   1      36.105  14.415  13.083  0.00  0.00     0.144 A 
HETATM   10  C   UNK N   1      35.191  15.747  11.365  0.00  0.00     0.692 A 
HETATM   11  H   UNK N   1      35.720  17.716  10.942  0.00  0.00     0.174 HD
HETATM   12  H   UNK N   1      34.452  17.111   9.976  0.00  0.00     0.174 HD
ENDROOT
BRANCH   8  13
HETATM   13  C   UNK N   1      35.236  11.995  13.385  0.00  0.00     0.019 A 
HETATM   14  C   UNK N   1      36.200  10.963  13.139  0.00  0.00     0.068 A 
HETATM   15 Cl   UNK N   1      37.538  11.145  11.995  0.00  0.00    -0.082 Cl
HETATM   16  C   UNK N   1      36.096   9.734  13.825  0.00  0.00     0.056 A 
HETATM   17 Cl   UNK N   1      37.259   8.440  13.564  0.00  0.00    -0.083 Cl
HETATM   18  C   UNK N   1      35.063   9.516  14.732  0.00  0.00     0.026 A 
HETATM   19  C   UNK N   1      34.121  10.508  14.974  0.00  0.00     0.003 A 
HETATM   20  C   UNK N   1      34.211  11.728  14.309  0.00  0.00     0.016 A 
ENDBRANCH   8  13
BRANCH   9  21
HETATM   21  N   UNK N   1      37.000  14.309  14.168  0.00  0.00    -0.383 N 
HETATM   22  H   UNK N   1      37.280  15.116  14.659  0.00  0.00     0.157 HD
HETATM   23  H   UNK N   1      37.347  13.427  14.436  0.00  0.00     0.157 HD
ENDBRANCH   9  21
TORSDOF 2
ENDMDL
MODEL 8
REMARK VINA RESULT:      -5.8      5.287      7.400
REMARK  2 active torsions:
REMARK  status: ('A' for Active; 'I' for Inactive)
REMARK    1  A    between atoms: N_7  and  C_15 
REMARK       I    between atoms: N_10  and  C_19 
REMARK    2  A    between atoms: C_11  and  C_12 
ROOT
HETATM    1  N   UNK N   1      34.012  14.390  11.321  0.00  0.00    -0.282 N 
ATOM      2  HN  UNK N   1      33.080  13.987  11.417  1.00  0.00     0.187 HD
HETATM    3  N   UNK N   1      36.458  15.502  11.032  0.00  0.00    -0.174 N 
ATOM      4  HN  UNK N   1      37.375  15.934  10.915  1.00  0.00     0.186 HD
HETATM    5  N   UNK N   1      34.128  15.639  10.876  0.00  0.00    -0.132 N 
ATOM      6  HN  UNK N   1      33.290  16.171  10.641  1.00  0.00     0.205 HD
HETATM    7  N   UNK N   1      35.449  17.544  10.291  0.00  0.00    -0.233 N 
HETATM    8  C   UNK N   1      35.092  13.631  11.650  0.00  0.00     0.104 A 
HETATM    9  C   UNK N   1      36.373  14.225  11.483  0.00  0.00     0.144 A 
HETATM   10  C   UNK N   1      35.344  16.212  10.735  0.00  0.00     0.692 A 
HETATM   11  H   UNK N   1      36.336  17.943  10.136  0.00  0.00     0.174 HD
HETATM   12  H   UNK N   1      34.636  18.077  10.137  0.00  0.00     0.174 HD
ENDROOT
BRANCH   8  13
HETATM   13  C   UNK N   1      34.878  12.231  12.182  0.00  0.00     0.019 A 
HETATM   14  C   UNK N   1      34.856  11.924  13.582  0.00  0.00     0.068 A 
HETATM   15 Cl   UNK N   1      35.070  13.149  14.842  0.00  0.00    -0.082 Cl
HETATM   16  C   UNK N   1      34.662  10.591  14.001  0.00  0.00     0.056 A 
HETATM   17 Cl   UNK N   1      34.619  10.165  15.707  0.00  0.00    -0.083 Cl
HETATM   18  C   UNK N   1      34.498   9.573  13.065  0.00  0.00     0.026 A 
HETATM   19  C   UNK N   1      34.522   9.859  11.706  0.00  0.00     0.003 A 
HETATM   20  C   UNK N   1      34.709  11.169  11.275  0.00  0.00     0.016 A 
ENDBRANCH   8  13
BRANCH   9  21
HETATM   21  N   UNK N   1      37.565  13.535  11.784  0.00  0.00    -0.383 N 
HETATM   22  H   UNK N   1      38.069  13.081  11.068  0.00  0.00     0.157 HD
HETATM   23  H   UNK N   1      37.897  13.506  12.710  0.00  0.00     0.157 HD
ENDBRANCH   9  21
TORSDOF 2
ENDMDL
MODEL 9
REMARK VINA RESULT:      -5.6      6.967      9.214
REMARK  2 active torsions:
REMARK  status: ('A' for Active; 'I' for Inactive)
REMARK    1  A    between atoms: N_7  and  C_15 
REMARK       I    between atoms: N_10  and  C_19 
REMARK    2  A    between atoms: C_11  and  C_12 
ROOT
HETATM    1  N   UNK N   1      37.037  13.466  13.152  0.00  0.00    -0.282 N 
ATOM      2  HN  UNK N   1      37.629  13.886  13.869  1.00  0.00     0.187 HD
HETATM    3  N   UNK N   1      35.488  12.395  11.213  0.00  0.00    -0.174 N 
ATOM      4  HN  UNK N   1      34.910  12.001  10.471  1.00  0.00     0.186 HD
HETATM    5  N   UNK N   1      37.269  13.761  11.875  0.00  0.00    -0.132 N 
ATOM      6  HN  UNK N   1      38.030  14.396  11.634  1.00  0.00     0.205 HD
HETATM    7  N   UNK N   1      36.784  13.524   9.545  0.00  0.00    -0.233 N 
HETATM    8  C   UNK N   1      36.038  12.627  13.536  0.00  0.00     0.104 A 
HETATM    9  C   UNK N   1      35.224  12.079  12.506  0.00  0.00     0.144 A 
HETATM   10  C   UNK N   1      36.508  13.226  10.894  0.00  0.00     0.692 A 
HETATM   11  H   UNK N   1      36.197  13.178   8.835  0.00  0.00     0.174 HD
HETATM   12  H   UNK N   1      37.564  14.077   9.314  0.00  0.00     0.174 HD
ENDROOT
BRANCH   8  13
HETATM   13  C   UNK N   1      35.858  12.313  15.005  0.00  0.00     0.019 A 
HETATM   14  C   UNK N   1      36.329  11.100  15.606  0.00  0.00     0.068 A 
HETATM   15 Cl   UNK N   1      37.179   9.841  14.698  0.00  0.00    -0.082 Cl
HETATM   16  C   UNK N   1      36.115  10.874  16.982  0.00  0.00     0.056 A 
HETATM   17 Cl   UNK N   1      36.682   9.406  17.767  0.00  0.00    -0.083 Cl
HETATM   18  C   UNK N   1      35.444  11.816  17.757  0.00  0.00     0.026 A 
HETATM   19  C   UNK N   1      34.979  12.993  17.183  0.00  0.00     0.003 A 
HETATM   20  C   UNK N   1      35.186  13.234  15.828  0.00  0.00     0.016 A 
ENDBRANCH   8  13
BRANCH   9  21
HETATM   21  N   UNK N   1      34.153  11.204  12.782  0.00  0.00    -0.383 N 
HETATM   22  H   UNK N   1      34.086  10.340  12.312  0.00  0.00     0.157 HD
HETATM   23  H   UNK N   1      33.471  11.456  13.445  0.00  0.00     0.157 HD
ENDBRANCH   9  21
TORSDOF 2
ENDMDL
