REMARK  2 active torsions:
REMARK  status: ('A' for Active; 'I' for Inactive)
REMARK    1  A    between atoms: N_7  and  C_15 
REMARK       I    between atoms: N_10  and  C_19 
REMARK    2  A    between atoms: C_11  and  C_12 
ROOT
HETATM    1  N   UNK N   1       4.600  -0.910  -0.142  0.00  0.00    -0.282 N 
ATOM      2  HN  UNK N   1       5.496  -0.426  -0.205  1.00  0.00     0.187 HD
HETATM    3  N   UNK N   1       2.254  -2.244   0.007  0.00  0.00    -0.174 N 
ATOM      4  HN  UNK N   1       1.376  -2.760   0.059  1.00  0.00     0.186 HD
HETATM    5  N   UNK N   1       4.587  -2.241  -0.163  0.00  0.00    -0.132 N 
ATOM      6  HN  UNK N   1       5.466  -2.753  -0.241  1.00  0.00     0.205 HD
HETATM    7  N   UNK N   1       3.427  -4.330  -0.075  0.00  0.00    -0.233 N 
HETATM    8  C   UNK N   1       3.462  -0.173  -0.040  0.00  0.00     0.104 A 
HETATM    9  C   UNK N   1       2.234  -0.887   0.027  0.00  0.00     0.144 A 
HETATM   10  C   UNK N   1       3.422  -2.922  -0.081  0.00  0.00     0.692 A 
HETATM   11  H   UNK N   1       2.576  -4.825  -0.070  0.00  0.00     0.174 HD
HETATM   12  H   UNK N   1       4.281  -4.819  -0.075  0.00  0.00     0.174 HD
ENDROOT
BRANCH   8  13
HETATM   13  C   UNK N   1       3.560   1.336   0.013  0.00  0.00     0.019 A 
HETATM   14  C   UNK N   1       4.809   2.038  -0.034  0.00  0.00     0.068 A 
HETATM   15 Cl   UNK N   1       6.372   1.218  -0.166  0.00  0.00    -0.082 Cl
HETATM   16  C   UNK N   1       4.820   3.447   0.031  0.00  0.00     0.056 A 
HETATM   17 Cl   UNK N   1       6.326   4.354  -0.032  0.00  0.00    -0.083 Cl
HETATM   18  C   UNK N   1       3.629   4.159   0.147  0.00  0.00     0.026 A 
HETATM   19  C   UNK N   1       2.414   3.488   0.198  0.00  0.00     0.003 A 
HETATM   20  C   UNK N   1       2.384   2.098   0.131  0.00  0.00     0.016 A 
ENDBRANCH   8  13
BRANCH   9  21
HETATM   21  N   UNK N   1       0.989  -0.232   0.126  0.00  0.00    -0.383 N 
HETATM   22  H   UNK N   1       0.950   0.750   0.195  0.00  0.00     0.157 HD
HETATM   23  H   UNK N   1       0.156  -0.757   0.126  0.00  0.00     0.157 HD
ENDBRANCH   9  21
TORSDOF 2
