REMARK  10 active torsions:
REMARK  status: ('A' for Active; 'I' for Inactive)
REMARK    1  A    between atoms: C_15  and  O_2 
REMARK    2  A    between atoms: C_17  and  O_3 
REMARK    3  A    between atoms: O_4  and  C_20 
REMARK    4  A    between atoms: O_6  and  C_22 
REMARK    5  A    between atoms: C_14  and  N_8 
REMARK       I    between atoms: N_8  and  C_21 
REMARK    6  A    between atoms: C_16  and  N_9 
REMARK       I    between atoms: N_11  and  C_23 
REMARK       I    between atoms: N_12  and  C_23 
REMARK    7  A    between atoms: C_13  and  C_15 
REMARK    8  A    between atoms: C_15  and  C_17 
REMARK    9  A    between atoms: C_17  and  C_20 
REMARK   10  A    between atoms: C_19  and  C_22 
ROOT
HETATM    1  O   UNK N   1       4.677  -0.884   0.276  0.00  0.00    -0.335 OA
HETATM    2  C   UNK N   1       4.519   0.209  -0.554  0.00  0.00     0.185 C 
HETATM    3  C   UNK N   1       5.838   1.026  -0.640  0.00  0.00     0.143 C 
HETATM    4  C   UNK N   1       7.100   0.114  -0.805  0.00  0.00     0.150 C 
HETATM    5  C   UNK N   1       6.855  -1.333  -0.428  0.00  0.00     0.044 C 
HETATM    6  C   UNK N   1       5.701  -1.756   0.090  0.00  0.00     0.141 C 
ENDROOT
BRANCH   2   7
HETATM    7  C   UNK N   1       3.245   0.991  -0.150  0.00  0.00     0.180 C 
BRANCH   7   8
HETATM    8  O   UNK N   1       3.443   1.689   1.044  0.00  0.00    -0.390 OA
HETATM    9  H   UNK N   1       3.931   1.812   1.874  0.00  0.00     0.210 HD
ENDBRANCH   7   8
BRANCH   7  10
HETATM   10  C   UNK N   1       2.061   0.027   0.058  0.00  0.00     0.173 C 
BRANCH  10  11
HETATM   11  O   UNK N   1       1.852  -0.788  -1.056  0.00  0.00    -0.391 OA
HETATM   12  H   UNK N   1       1.289  -0.944  -1.830  0.00  0.00     0.210 HD
ENDBRANCH  10  11
BRANCH  10  13
HETATM   13  C   UNK N   1       0.771   0.746   0.430  0.00  0.00     0.198 C 
BRANCH  13  14
HETATM   14  O   UNK N   1       0.282   1.469  -0.658  0.00  0.00    -0.398 OA
HETATM   15  H   UNK N   1       0.548   2.015  -1.415  0.00  0.00     0.209 HD
ENDBRANCH  13  14
ENDBRANCH  10  13
ENDBRANCH   7  10
ENDBRANCH   2   7
BRANCH   3  16
HETATM   16  N   UNK N   1       5.994   1.987   0.433  0.00  0.00    -0.352 N 
HETATM   17  C   UNK N   1       6.584   3.191   0.218  0.00  0.00     0.214 C 
HETATM   18  O   UNK N   1       7.025   3.482  -0.885  0.00  0.00    -0.274 OA
HETATM   19  C   UNK N   1       6.711   4.164   1.336  0.00  0.00     0.117 C 
HETATM   20  H   UNK N   1       5.668   1.763   1.335  0.00  0.00     0.163 HD
ENDBRANCH   3  16
BRANCH   6  21
HETATM   21  C   UNK N   1       5.514  -3.176   0.445  0.00  0.00     0.200 C 
HETATM   22  O   UNK N   1       4.455  -3.560   0.897  0.00  0.00    -0.645 OA
BRANCH  21  23
HETATM   23  O   UNK N   1       6.509  -4.065   0.223  0.00  0.00    -0.771 OA
HETATM   24  H   UNK N   1       6.321  -4.970   0.070  0.00  0.00     0.167 HD
ENDBRANCH  21  23
ENDBRANCH   6  21
BRANCH   4  25
HETATM   25  N   UNK N   1       8.208   0.642  -0.022  0.00  0.00    -0.217 N 
HETATM   26  C   UNK N   1       9.400   0.149   0.004  0.00  0.00     0.665 C 
HETATM   27  N   UNK N   1      10.375   0.742   0.834  0.00  0.00    -0.235 N 
HETATM   28  N   UNK N   1       9.740  -0.988  -0.765  0.00  0.00    -0.235 N 
HETATM   29  H   UNK N   1      11.074   0.360   1.413  0.00  0.00     0.174 HD
HETATM   30  H   UNK N   1      10.353   1.726   0.834  0.00  0.00     0.174 HD
HETATM   31  H   UNK N   1       9.173  -1.589  -1.301  0.00  0.00     0.174 HD
HETATM   32  H   UNK N   1      10.698  -1.216  -0.765  0.00  0.00     0.174 HD
ATOM     33  HN  UNK N   1       8.027   1.466   0.552  1.00  0.00     0.178 HD
ENDBRANCH   4  25
TORSDOF 10
