REMARK  12 active torsions:
REMARK  status: ('A' for Active; 'I' for Inactive)
REMARK    1  A    between atoms: S_1  and  N_8 
REMARK    2  A    between atoms: S_1  and  C_24 
REMARK    3  A    between atoms: O_4  and  C_28 
REMARK    4  A    between atoms: O_4  and  C_31 
REMARK    5  A    between atoms: O_5  and  C_29 
REMARK    6  A    between atoms: O_5  and  C_33 
REMARK    7  A    between atoms: O_6  and  C_34 
REMARK    8  A    between atoms: O_7  and  C_37 
REMARK    9  A    between atoms: N_8  and  C_27 
REMARK   10  A    between atoms: C_17  and  C_18 
REMARK   11  A    between atoms: C_30  and  C_32 
REMARK   12  A    between atoms: C_33  and  C_37 
ROOT
HETATM    1  N   UNK N   1       6.239  -0.480   0.539  0.00  0.00    -0.323 N 
ATOM      2  HN  UNK N   1       7.019   0.160   0.690  1.00  0.00     0.169 HD
HETATM    3  N   UNK N   1       5.452  -2.638   0.058  0.00  0.00    -0.318 N 
ATOM      4  HN  UNK N   1       5.651  -3.619  -0.137  1.00  0.00     0.169 HD
HETATM    5  C   UNK N   1       4.964  -0.017   0.617  0.00  0.00     0.155 A 
HETATM    6  C   UNK N   1       3.876  -0.863   0.385  0.00  0.00     0.171 A 
HETATM    7  C   UNK N   1       4.155  -2.224   0.105  0.00  0.00     0.182 A 
HETATM    8  C   UNK N   1       6.488  -1.786   0.262  0.00  0.00     0.154 A 
ENDROOT
BRANCH   5   9
HETATM    9  N   UNK N   1       4.715   1.346   0.890  0.00  0.00    -0.263 N 
HETATM   10  H   UNK N   1       4.297   1.604   1.743  0.00  0.00     0.180 HD
BRANCH   9  11
HETATM   11  S   UNK N   1       5.142   2.580  -0.271  0.00  0.00     0.264 S 
HETATM   12  O   UNK N   1       4.725   2.005  -1.633  0.00  0.00    -0.200 OA
HETATM   13  O   UNK N   1       4.099   3.686  -0.045  0.00  0.00    -0.200 OA
BRANCH  11  14
HETATM   14  C   UNK N   1       6.818   3.168  -0.225  0.00  0.00     0.079 A 
HETATM   15  C   UNK N   1       7.824   2.339   0.270  0.00  0.00     0.026 A 
HETATM   16  C   UNK N   1       9.144   2.786   0.300  0.00  0.00     0.009 A 
HETATM   17  C   UNK N   1       9.472   4.071  -0.168  0.00  0.00    -0.051 A 
HETATM   18  C   UNK N   1       8.447   4.898  -0.663  0.00  0.00     0.009 A 
HETATM   19  C   UNK N   1       7.126   4.447  -0.692  0.00  0.00     0.026 A 
BRANCH  17  20
HETATM   20  C   UNK N   1      10.914   4.532  -0.133  0.00  0.00    -0.024 C 
HETATM   21  C   UNK N   1      11.424   4.514   1.297  0.00  0.00     0.019 C 
HETATM   22  C   UNK N   1      11.095   5.942  -0.677  0.00  0.00     0.019 C 
HETATM   23  C   UNK N   1      11.769   3.597  -0.970  0.00  0.00     0.019 C 
ENDBRANCH  17  20
ENDBRANCH  11  14
ENDBRANCH   9  11
ENDBRANCH   5   9
BRANCH   6  24
HETATM   24  O   UNK N   1       2.647  -0.266   0.418  0.00  0.00    -0.300 OA
BRANCH  24  25
HETATM   25  C   UNK N   1       1.374  -0.553   0.042  0.00  0.00     0.109 A 
HETATM   26  C   UNK N   1       0.432   0.492   0.090  0.00  0.00     0.102 A 
HETATM   27  C   UNK N   1      -0.895   0.256  -0.312  0.00  0.00     0.039 A 
HETATM   28  C   UNK N   1      -1.282  -1.008  -0.757  0.00  0.00     0.003 A 
HETATM   29  C   UNK N   1      -0.348  -2.041  -0.811  0.00  0.00     0.003 A 
HETATM   30  C   UNK N   1       0.971  -1.811  -0.417  0.00  0.00     0.040 A 
BRANCH  26  31
HETATM   31  O   UNK N   1       0.831   1.719   0.508  0.00  0.00    -0.353 OA
HETATM   32  C   UNK N   1       0.001   2.817   0.540  0.00  0.00     0.210 C 
ENDBRANCH  26  31
ENDBRANCH  24  25
ENDBRANCH   6  24
BRANCH   8  33
HETATM   33  C   UNK N   1       7.869  -2.283   0.161  0.00  0.00     0.150 A 
HETATM   34  N   UNK N   1       8.921  -1.432   0.311  0.00  0.00    -0.349 N 
HETATM   35  C   UNK N   1      10.200  -1.879   0.200  0.00  0.00     0.091 A 
ATOM     36  HN  UNK N   1       8.747  -0.447   0.509  1.00  0.00     0.167 HD
HETATM   37  C   UNK N   1      10.447  -3.224  -0.070  0.00  0.00     0.034 A 
HETATM   38  C   UNK N   1       9.361  -4.082  -0.219  0.00  0.00     0.091 A 
HETATM   39  N   UNK N   1       8.096  -3.600  -0.104  0.00  0.00    -0.349 N 
ATOM     40  HN  UNK N   1       7.305  -4.234  -0.217  1.00  0.00     0.167 HD
ENDBRANCH   8  33
BRANCH   7  41
HETATM   41  O   UNK N   1       3.173  -3.120  -0.116  0.00  0.00    -0.331 OA
BRANCH  41  42
HETATM   42  C   UNK N   1       3.433  -4.424  -0.474  0.00  0.00     0.203 C 
BRANCH  42  43
HETATM   43  C   UNK N   1       2.887  -5.363   0.579  0.00  0.00     0.191 C 
BRANCH  43  44
HETATM   44  O   UNK N   1       3.257  -6.669   0.265  0.00  0.00    -0.399 OA
HETATM   45  H   UNK N   1       2.599  -7.347   0.046  0.00  0.00     0.209 HD
ENDBRANCH  43  44
ENDBRANCH  42  43
ENDBRANCH  41  42
ENDBRANCH   7  41
TORSDOF 12
