MODEL 1
REMARK VINA RESULT:      -7.1      0.000      0.000
REMARK  12 active torsions:
REMARK  status: ('A' for Active; 'I' for Inactive)
REMARK    1  A    between atoms: S_1  and  N_8 
REMARK    2  A    between atoms: S_1  and  C_24 
REMARK    3  A    between atoms: O_4  and  C_28 
REMARK    4  A    between atoms: O_4  and  C_31 
REMARK    5  A    between atoms: O_5  and  C_29 
REMARK    6  A    between atoms: O_5  and  C_33 
REMARK    7  A    between atoms: O_6  and  C_34 
REMARK    8  A    between atoms: O_7  and  C_37 
REMARK    9  A    between atoms: N_8  and  C_27 
REMARK   10  A    between atoms: C_17  and  C_18 
REMARK   11  A    between atoms: C_30  and  C_32 
REMARK   12  A    between atoms: C_33  and  C_37 
ROOT
HETATM    1  N   UNK N   1      32.894  16.134   7.019  0.00  0.00    -0.323 N 
ATOM      2  HN  UNK N   1      33.595  15.505   6.628  1.00  0.00     0.169 HD
HETATM    3  N   UNK N   1      32.113  17.438   8.807  0.00  0.00    -0.318 N 
ATOM      4  HN  UNK N   1      32.244  17.794   9.754  1.00  0.00     0.169 HD
HETATM    5  C   UNK N   1      31.819  16.494   6.269  0.00  0.00     0.155 A 
HETATM    6  C   UNK N   1      30.827  17.330   6.788  0.00  0.00     0.171 A 
HETATM    7  C   UNK N   1      31.007  17.816   8.108  0.00  0.00     0.182 A 
HETATM    8  C   UNK N   1      33.046  16.603   8.284  0.00  0.00     0.154 A 
ENDROOT
BRANCH   5   9
HETATM    9  N   UNK N   1      31.661  15.988   4.960  0.00  0.00    -0.263 N 
HETATM   10  H   UNK N   1      31.852  16.568   4.187  0.00  0.00     0.180 HD
BRANCH   9  11
HETATM   11  S   UNK N   1      31.131  14.344   4.697  0.00  0.00     0.264 S 
HETATM   12  O   UNK N   1      32.227  13.708   3.828  0.00  0.00    -0.200 OA
HETATM   13  O   UNK N   1      31.345  13.658   6.055  0.00  0.00    -0.200 OA
BRANCH  11  14
HETATM   14  C   UNK N   1      29.490  14.133   4.048  0.00  0.00     0.079 A 
HETATM   15  C   UNK N   1      29.026  14.998   3.057  0.00  0.00     0.026 A 
HETATM   16  C   UNK N   1      27.745  14.834   2.533  0.00  0.00     0.009 A 
HETATM   17  C   UNK N   1      26.913  13.799   2.996  0.00  0.00    -0.051 A 
HETATM   18  C   UNK N   1      27.393  12.935   3.997  0.00  0.00     0.009 A 
HETATM   19  C   UNK N   1      28.677  13.101   4.520  0.00  0.00     0.026 A 
BRANCH  17  20
HETATM   20  C   UNK N   1      25.528  13.635   2.406  0.00  0.00    -0.024 C 
HETATM   21  C   UNK N   1      25.188  14.843   1.551  0.00  0.00     0.019 C 
HETATM   22  C   UNK N   1      24.448  13.495   3.469  0.00  0.00     0.019 C 
HETATM   23  C   UNK N   1      25.488  12.392   1.535  0.00  0.00     0.019 C 
ENDBRANCH  17  20
ENDBRANCH  11  14
ENDBRANCH   9  11
ENDBRANCH   5   9
BRANCH   6  24
HETATM   24  O   UNK N   1      29.760  17.560   5.966  0.00  0.00    -0.300 OA
BRANCH  24  25
HETATM   25  C   UNK N   1      28.466  17.160   5.855  0.00  0.00     0.109 A 
HETATM   26  C   UNK N   1      27.636  17.887   4.979  0.00  0.00     0.102 A 
HETATM   27  C   UNK N   1      26.295  17.501   4.807  0.00  0.00     0.039 A 
HETATM   28  C   UNK N   1      25.783  16.404   5.499  0.00  0.00     0.003 A 
HETATM   29  C   UNK N   1      26.606  15.680   6.361  0.00  0.00     0.003 A 
HETATM   30  C   UNK N   1      27.939  16.057   6.532  0.00  0.00     0.040 A 
BRANCH  26  31
HETATM   31  O   UNK N   1      28.157  18.939   4.301  0.00  0.00    -0.353 OA
HETATM   32  C   UNK N   1      27.505  20.143   4.152  0.00  0.00     0.210 C 
ENDBRANCH  26  31
ENDBRANCH  24  25
ENDBRANCH   6  24
BRANCH   8  33
HETATM   33  C   UNK N   1      34.201  16.200   9.102  0.00  0.00     0.150 A 
HETATM   34  N   UNK N   1      34.534  16.903  10.219  0.00  0.00    -0.349 N 
HETATM   35  C   UNK N   1      35.611  16.549  10.969  0.00  0.00     0.091 A 
ATOM     36  HN  UNK N   1      33.968  17.704  10.496  1.00  0.00     0.167 HD
HETATM   37  C   UNK N   1      36.390  15.454  10.598  0.00  0.00     0.034 A 
HETATM   38  C   UNK N   1      36.035  14.745   9.453  0.00  0.00     0.091 A 
HETATM   39  N   UNK N   1      34.954  15.128   8.726  0.00  0.00    -0.349 N 
ATOM     40  HN  UNK N   1      34.701  14.605   7.888  1.00  0.00     0.167 HD
ENDBRANCH   8  33
BRANCH   7  41
HETATM   41  O   UNK N   1      30.114  18.640   8.689  0.00  0.00    -0.331 OA
BRANCH  41  42
HETATM   42  C   UNK N   1      29.586  18.392   9.937  0.00  0.00     0.203 C 
BRANCH  42  43
HETATM   43  C   UNK N   1      28.474  17.373   9.829  0.00  0.00     0.191 C 
BRANCH  43  44
HETATM   44  O   UNK N   1      27.321  17.999   9.359  0.00  0.00    -0.399 OA
HETATM   45  H   UNK N   1      26.620  17.504   8.908  0.00  0.00     0.209 HD
ENDBRANCH  43  44
ENDBRANCH  42  43
ENDBRANCH  41  42
ENDBRANCH   7  41
TORSDOF 12
ENDMDL
MODEL 2
REMARK VINA RESULT:      -6.8      3.232      5.881
REMARK  12 active torsions:
REMARK  status: ('A' for Active; 'I' for Inactive)
REMARK    1  A    between atoms: S_1  and  N_8 
REMARK    2  A    between atoms: S_1  and  C_24 
REMARK    3  A    between atoms: O_4  and  C_28 
REMARK    4  A    between atoms: O_4  and  C_31 
REMARK    5  A    between atoms: O_5  and  C_29 
REMARK    6  A    between atoms: O_5  and  C_33 
REMARK    7  A    between atoms: O_6  and  C_34 
REMARK    8  A    between atoms: O_7  and  C_37 
REMARK    9  A    between atoms: N_8  and  C_27 
REMARK   10  A    between atoms: C_17  and  C_18 
REMARK   11  A    between atoms: C_30  and  C_32 
REMARK   12  A    between atoms: C_33  and  C_37 
ROOT
HETATM    1  N   UNK N   1      34.868  14.628   9.606  0.00  0.00    -0.323 N 
ATOM      2  HN  UNK N   1      35.321  15.434  10.036  1.00  0.00     0.169 HD
HETATM    3  N   UNK N   1      34.014  12.449   9.782  0.00  0.00    -0.318 N 
ATOM      4  HN  UNK N   1      33.817  11.630  10.357  1.00  0.00     0.169 HD
HETATM    5  C   UNK N   1      34.526  14.671   8.292  0.00  0.00     0.155 A 
HETATM    6  C   UNK N   1      33.931  13.571   7.667  0.00  0.00     0.171 A 
HETATM    7  C   UNK N   1      33.667  12.431   8.465  0.00  0.00     0.182 A 
HETATM    8  C   UNK N   1      34.614  13.523  10.354  0.00  0.00     0.154 A 
ENDROOT
BRANCH   5   9
HETATM    9  N   UNK N   1      34.808  15.818   7.518  0.00  0.00    -0.263 N 
HETATM   10  H   UNK N   1      35.548  15.798   6.868  0.00  0.00     0.180 HD
BRANCH   9  11
HETATM   11  S   UNK N   1      33.858  17.273   7.701  0.00  0.00     0.264 S 
HETATM   12  O   UNK N   1      33.722  17.470   9.218  0.00  0.00    -0.200 OA
HETATM   13  O   UNK N   1      34.820  18.403   7.304  0.00  0.00    -0.200 OA
BRANCH  11  14
HETATM   14  C   UNK N   1      32.309  17.325   6.830  0.00  0.00     0.079 A 
HETATM   15  C   UNK N   1      32.306  17.416   5.439  0.00  0.00     0.026 A 
HETATM   16  C   UNK N   1      31.097  17.446   4.745  0.00  0.00     0.009 A 
HETATM   17  C   UNK N   1      29.875  17.383   5.440  0.00  0.00    -0.051 A 
HETATM   18  C   UNK N   1      29.893  17.293   6.844  0.00  0.00     0.009 A 
HETATM   19  C   UNK N   1      31.106  17.263   7.535  0.00  0.00     0.026 A 
BRANCH  17  20
HETATM   20  C   UNK N   1      28.575  17.409   4.665  0.00  0.00    -0.024 C 
HETATM   21  C   UNK N   1      28.800  16.863   3.266  0.00  0.00     0.019 C 
HETATM   22  C   UNK N   1      27.995  18.810   4.533  0.00  0.00     0.019 C 
HETATM   23  C   UNK N   1      27.544  16.543   5.368  0.00  0.00     0.019 C 
ENDBRANCH  17  20
ENDBRANCH  11  14
ENDBRANCH   9  11
ENDBRANCH   5   9
BRANCH   6  24
HETATM   24  O   UNK N   1      33.702  13.708   6.326  0.00  0.00    -0.300 OA
BRANCH  24  25
HETATM   25  C   UNK N   1      32.638  13.775   5.485  0.00  0.00     0.109 A 
HETATM   26  C   UNK N   1      32.902  13.759   4.102  0.00  0.00     0.102 A 
HETATM   27  C   UNK N   1      31.835  13.802   3.186  0.00  0.00     0.039 A 
HETATM   28  C   UNK N   1      30.518  13.861   3.642  0.00  0.00     0.003 A 
HETATM   29  C   UNK N   1      30.256  13.871   5.010  0.00  0.00     0.003 A 
HETATM   30  C   UNK N   1      31.311  13.824   5.923  0.00  0.00     0.040 A 
BRANCH  26  31
HETATM   31  O   UNK N   1      34.188  13.683   3.679  0.00  0.00    -0.353 OA
HETATM   32  C   UNK N   1      34.589  14.018   2.405  0.00  0.00     0.210 C 
ENDBRANCH  26  31
ENDBRANCH  24  25
ENDBRANCH   6  24
BRANCH   8  33
HETATM   33  C   UNK N   1      35.000  13.471  11.772  0.00  0.00     0.150 A 
HETATM   34  N   UNK N   1      35.806  14.431  12.304  0.00  0.00    -0.349 N 
HETATM   35  C   UNK N   1      36.184  14.380  13.609  0.00  0.00     0.091 A 
ATOM     36  HN  UNK N   1      36.130  15.198  11.715  1.00  0.00     0.167 HD
HETATM   37  C   UNK N   1      35.744  13.335  14.421  0.00  0.00     0.034 A 
HETATM   38  C   UNK N   1      34.920  12.362  13.863  0.00  0.00     0.091 A 
HETATM   39  N   UNK N   1      34.564  12.444  12.554  0.00  0.00    -0.349 N 
ATOM     40  HN  UNK N   1      33.962  11.726  12.152  1.00  0.00     0.167 HD
ENDBRANCH   8  33
BRANCH   7  41
HETATM   41  O   UNK N   1      33.082  11.328   7.957  0.00  0.00    -0.331 OA
BRANCH  41  42
HETATM   42  C   UNK N   1      32.887  10.188   8.704  0.00  0.00     0.203 C 
BRANCH  42  43
HETATM   43  C   UNK N   1      32.094   9.179   7.902  0.00  0.00     0.191 C 
BRANCH  43  44
HETATM   44  O   UNK N   1      30.802   9.097   8.417  0.00  0.00    -0.399 OA
HETATM   45  H   UNK N   1      30.075   8.705   7.910  0.00  0.00     0.209 HD
ENDBRANCH  43  44
ENDBRANCH  42  43
ENDBRANCH  41  42
ENDBRANCH   7  41
TORSDOF 12
ENDMDL
MODEL 3
REMARK VINA RESULT:      -6.8      7.374     10.402
REMARK  12 active torsions:
REMARK  status: ('A' for Active; 'I' for Inactive)
REMARK    1  A    between atoms: S_1  and  N_8 
REMARK    2  A    between atoms: S_1  and  C_24 
REMARK    3  A    between atoms: O_4  and  C_28 
REMARK    4  A    between atoms: O_4  and  C_31 
REMARK    5  A    between atoms: O_5  and  C_29 
REMARK    6  A    between atoms: O_5  and  C_33 
REMARK    7  A    between atoms: O_6  and  C_34 
REMARK    8  A    between atoms: O_7  and  C_37 
REMARK    9  A    between atoms: N_8  and  C_27 
REMARK   10  A    between atoms: C_17  and  C_18 
REMARK   11  A    between atoms: C_30  and  C_32 
REMARK   12  A    between atoms: C_33  and  C_37 
ROOT
HETATM    1  N   UNK N   1      20.664  18.027   7.195  0.00  0.00    -0.323 N 
ATOM      2  HN  UNK N   1      20.316  18.974   7.044  1.00  0.00     0.169 HD
HETATM    3  N   UNK N   1      20.649  16.037   8.440  0.00  0.00    -0.318 N 
ATOM      4  HN  UNK N   1      20.273  15.493   9.216  1.00  0.00     0.169 HD
HETATM    5  C   UNK N   1      21.600  17.512   6.356  0.00  0.00     0.155 A 
HETATM    6  C   UNK N   1      22.118  16.229   6.556  0.00  0.00     0.171 A 
HETATM    7  C   UNK N   1      21.601  15.478   7.641  0.00  0.00     0.182 A 
HETATM    8  C   UNK N   1      20.185  17.296   8.235  0.00  0.00     0.154 A 
ENDROOT
BRANCH   5   9
HETATM    9  N   UNK N   1      22.104  18.285   5.287  0.00  0.00    -0.263 N 
HETATM   10  H   UNK N   1      22.976  18.733   5.378  0.00  0.00     0.180 HD
BRANCH   9  11
HETATM   11  S   UNK N   1      21.195  18.456   3.805  0.00  0.00     0.264 S 
HETATM   12  O   UNK N   1      20.086  19.467   4.133  0.00  0.00    -0.200 OA
HETATM   13  O   UNK N   1      22.122  19.268   2.887  0.00  0.00    -0.200 OA
BRANCH  11  14
HETATM   14  C   UNK N   1      20.599  16.956   3.062  0.00  0.00     0.079 A 
HETATM   15  C   UNK N   1      20.913  16.676   1.732  0.00  0.00     0.026 A 
HETATM   16  C   UNK N   1      20.460  15.497   1.143  0.00  0.00     0.009 A 
HETATM   17  C   UNK N   1      19.687  14.583   1.880  0.00  0.00    -0.051 A 
HETATM   18  C   UNK N   1      19.375  14.879   3.220  0.00  0.00     0.009 A 
HETATM   19  C   UNK N   1      19.830  16.061   3.807  0.00  0.00     0.026 A 
BRANCH  17  20
HETATM   20  C   UNK N   1      19.213  13.304   1.221  0.00  0.00    -0.024 C 
HETATM   21  C   UNK N   1      18.652  12.362   2.272  0.00  0.00     0.019 C 
HETATM   22  C   UNK N   1      20.326  12.574   0.484  0.00  0.00     0.019 C 
HETATM   23  C   UNK N   1      18.120  13.623   0.216  0.00  0.00     0.019 C 
ENDBRANCH  17  20
ENDBRANCH  11  14
ENDBRANCH   9  11
ENDBRANCH   5   9
BRANCH   6  24
HETATM   24  O   UNK N   1      23.107  15.851   5.692  0.00  0.00    -0.300 OA
BRANCH  24  25
HETATM   25  C   UNK N   1      23.235  15.097   4.570  0.00  0.00     0.109 A 
HETATM   26  C   UNK N   1      23.958  15.649   3.496  0.00  0.00     0.102 A 
HETATM   27  C   UNK N   1      24.142  14.901   2.319  0.00  0.00     0.039 A 
HETATM   28  C   UNK N   1      23.610  13.616   2.211  0.00  0.00     0.003 A 
HETATM   29  C   UNK N   1      22.899  13.067   3.277  0.00  0.00     0.003 A 
HETATM   30  C   UNK N   1      22.718  13.803   4.448  0.00  0.00     0.040 A 
BRANCH  26  31
HETATM   31  O   UNK N   1      24.484  16.893   3.627  0.00  0.00    -0.353 OA
HETATM   32  C   UNK N   1      25.836  17.142   3.698  0.00  0.00     0.210 C 
ENDBRANCH  26  31
ENDBRANCH  24  25
ENDBRANCH   6  24
BRANCH   8  33
HETATM   33  C   UNK N   1      19.184  17.860   9.153  0.00  0.00     0.150 A 
HETATM   34  N   UNK N   1      19.480  18.952   9.910  0.00  0.00    -0.349 N 
HETATM   35  C   UNK N   1      18.568  19.468  10.775  0.00  0.00     0.091 A 
ATOM     36  HN  UNK N   1      20.399  19.387   9.827  1.00  0.00     0.167 HD
HETATM   37  C   UNK N   1      17.310  18.879  10.895  0.00  0.00     0.034 A 
HETATM   38  C   UNK N   1      17.021  17.765  10.112  0.00  0.00     0.091 A 
HETATM   39  N   UNK N   1      17.959  17.274   9.260  0.00  0.00    -0.349 N 
ATOM     40  HN  UNK N   1      17.741  16.456   8.691  1.00  0.00     0.167 HD
ENDBRANCH   8  33
BRANCH   7  41
HETATM   41  O   UNK N   1      22.025  14.227   7.905  0.00  0.00    -0.331 OA
BRANCH  41  42
HETATM   42  C   UNK N   1      21.171  13.235   8.334  0.00  0.00     0.203 C 
BRANCH  42  43
HETATM   43  C   UNK N   1      21.420  12.941   9.797  0.00  0.00     0.191 C 
BRANCH  43  44
HETATM   44  O   UNK N   1      20.198  12.847  10.460  0.00  0.00    -0.399 OA
HETATM   45  H   UNK N   1      19.405  13.301  10.134  0.00  0.00     0.209 HD
ENDBRANCH  43  44
ENDBRANCH  42  43
ENDBRANCH  41  42
ENDBRANCH   7  41
TORSDOF 12
ENDMDL
MODEL 4
REMARK VINA RESULT:      -6.8      6.442      9.097
REMARK  12 active torsions:
REMARK  status: ('A' for Active; 'I' for Inactive)
REMARK    1  A    between atoms: S_1  and  N_8 
REMARK    2  A    between atoms: S_1  and  C_24 
REMARK    3  A    between atoms: O_4  and  C_28 
REMARK    4  A    between atoms: O_4  and  C_31 
REMARK    5  A    between atoms: O_5  and  C_29 
REMARK    6  A    between atoms: O_5  and  C_33 
REMARK    7  A    between atoms: O_6  and  C_34 
REMARK    8  A    between atoms: O_7  and  C_37 
REMARK    9  A    between atoms: N_8  and  C_27 
REMARK   10  A    between atoms: C_17  and  C_18 
REMARK   11  A    between atoms: C_30  and  C_32 
REMARK   12  A    between atoms: C_33  and  C_37 
ROOT
HETATM    1  N   UNK N   1      22.352  13.781   6.986  0.00  0.00    -0.323 N 
ATOM      2  HN  UNK N   1      23.056  13.054   6.856  1.00  0.00     0.169 HD
HETATM    3  N   UNK N   1      20.959  15.021   8.410  0.00  0.00    -0.318 N 
ATOM      4  HN  UNK N   1      20.634  15.228   9.355  1.00  0.00     0.169 HD
HETATM    5  C   UNK N   1      21.880  14.462   5.909  0.00  0.00     0.155 A 
HETATM    6  C   UNK N   1      20.894  15.442   6.052  0.00  0.00     0.171 A 
HETATM    7  C   UNK N   1      20.437  15.721   7.364  0.00  0.00     0.182 A 
HETATM    8  C   UNK N   1      21.897  14.057   8.235  0.00  0.00     0.154 A 
ENDROOT
BRANCH   5   9
HETATM    9  N   UNK N   1      22.348  14.157   4.611  0.00  0.00    -0.263 N 
HETATM   10  H   UNK N   1      21.705  13.917   3.906  0.00  0.00     0.180 HD
BRANCH   9  11
HETATM   11  S   UNK N   1      24.056  14.204   4.245  0.00  0.00     0.264 S 
HETATM   12  O   UNK N   1      24.687  13.148   5.164  0.00  0.00    -0.200 OA
HETATM   13  O   UNK N   1      24.162  13.545   2.861  0.00  0.00    -0.200 OA
BRANCH  11  14
HETATM   14  C   UNK N   1      24.844  15.794   4.335  0.00  0.00     0.079 A 
HETATM   15  C   UNK N   1      24.328  16.859   3.597  0.00  0.00     0.026 A 
HETATM   16  C   UNK N   1      24.932  18.114   3.669  0.00  0.00     0.009 A 
HETATM   17  C   UNK N   1      26.061  18.316   4.483  0.00  0.00    -0.051 A 
HETATM   18  C   UNK N   1      26.572  17.232   5.220  0.00  0.00     0.009 A 
HETATM   19  C   UNK N   1      25.964  15.977   5.147  0.00  0.00     0.026 A 
BRANCH  17  20
HETATM   20  C   UNK N   1      26.695  19.689   4.551  0.00  0.00    -0.024 C 
HETATM   21  C   UNK N   1      26.318  20.490   3.317  0.00  0.00     0.019 C 
HETATM   22  C   UNK N   1      28.214  19.633   4.628  0.00  0.00     0.019 C 
HETATM   23  C   UNK N   1      26.193  20.422   5.783  0.00  0.00     0.019 C 
ENDBRANCH  17  20
ENDBRANCH  11  14
ENDBRANCH   9  11
ENDBRANCH   5   9
BRANCH   6  24
HETATM   24  O   UNK N   1      20.447  16.003   4.889  0.00  0.00    -0.300 OA
BRANCH  24  25
HETATM   25  C   UNK N   1      20.660  17.132   4.165  0.00  0.00     0.109 A 
HETATM   26  C   UNK N   1      20.399  17.075   2.783  0.00  0.00     0.102 A 
HETATM   27  C   UNK N   1      20.580  18.223   1.990  0.00  0.00     0.039 A 
HETATM   28  C   UNK N   1      21.017  19.415   2.565  0.00  0.00     0.003 A 
HETATM   29  C   UNK N   1      21.269  19.474   3.935  0.00  0.00     0.003 A 
HETATM   30  C   UNK N   1      21.088  18.339   4.727  0.00  0.00     0.040 A 
BRANCH  26  31
HETATM   31  O   UNK N   1      19.957  15.912   2.244  0.00  0.00    -0.353 OA
HETATM   32  C   UNK N   1      20.649  15.209   1.284  0.00  0.00     0.210 C 
ENDBRANCH  26  31
ENDBRANCH  24  25
ENDBRANCH   6  24
BRANCH   8  33
HETATM   33  C   UNK N   1      22.396  13.308   9.399  0.00  0.00     0.150 A 
HETATM   34  N   UNK N   1      21.540  12.905  10.378  0.00  0.00    -0.349 N 
HETATM   35  C   UNK N   1      21.996  12.229  11.467  0.00  0.00     0.091 A 
ATOM     36  HN  UNK N   1      20.546  13.112  10.294  1.00  0.00     0.167 HD
HETATM   37  C   UNK N   1      23.354  11.941  11.590  0.00  0.00     0.034 A 
HETATM   38  C   UNK N   1      24.216  12.359  10.580  0.00  0.00     0.091 A 
HETATM   39  N   UNK N   1      23.726  13.034   9.508  0.00  0.00    -0.349 N 
ATOM     40  HN  UNK N   1      24.364  13.339   8.773  1.00  0.00     0.167 HD
ENDBRANCH   8  33
BRANCH   7  41
HETATM   41  O   UNK N   1      19.501  16.660   7.606  0.00  0.00    -0.331 OA
BRANCH  41  42
HETATM   42  C   UNK N   1      19.067  16.956   8.879  0.00  0.00     0.203 C 
BRANCH  42  43
HETATM   43  C   UNK N   1      19.506  18.353   9.258  0.00  0.00     0.191 C 
BRANCH  43  44
HETATM   44  O   UNK N   1      20.298  18.877   8.239  0.00  0.00    -0.399 OA
HETATM   45  H   UNK N   1      21.266  18.882   8.297  0.00  0.00     0.209 HD
ENDBRANCH  43  44
ENDBRANCH  42  43
ENDBRANCH  41  42
ENDBRANCH   7  41
TORSDOF 12
ENDMDL
MODEL 5
REMARK VINA RESULT:      -6.7      6.127      9.707
REMARK  12 active torsions:
REMARK  status: ('A' for Active; 'I' for Inactive)
REMARK    1  A    between atoms: S_1  and  N_8 
REMARK    2  A    between atoms: S_1  and  C_24 
REMARK    3  A    between atoms: O_4  and  C_28 
REMARK    4  A    between atoms: O_4  and  C_31 
REMARK    5  A    between atoms: O_5  and  C_29 
REMARK    6  A    between atoms: O_5  and  C_33 
REMARK    7  A    between atoms: O_6  and  C_34 
REMARK    8  A    between atoms: O_7  and  C_37 
REMARK    9  A    between atoms: N_8  and  C_27 
REMARK   10  A    between atoms: C_17  and  C_18 
REMARK   11  A    between atoms: C_30  and  C_32 
REMARK   12  A    between atoms: C_33  and  C_37 
ROOT
HETATM    1  N   UNK N   1      22.122  16.165   4.316  0.00  0.00    -0.323 N 
ATOM      2  HN  UNK N   1      22.433  16.104   3.346  1.00  0.00     0.169 HD
HETATM    3  N   UNK N   1      21.192  17.415   6.071  0.00  0.00    -0.318 N 
ATOM      4  HN  UNK N   1      20.793  18.292   6.406  1.00  0.00     0.169 HD
HETATM    5  C   UNK N   1      22.231  15.081   5.127  0.00  0.00     0.155 A 
HETATM    6  C   UNK N   1      21.842  15.143   6.468  0.00  0.00     0.171 A 
HETATM    7  C   UNK N   1      21.296  16.365   6.933  0.00  0.00     0.182 A 
HETATM    8  C   UNK N   1      21.604  17.331   4.781  0.00  0.00     0.154 A 
ENDROOT
BRANCH   5   9
HETATM    9  N   UNK N   1      22.786  13.877   4.639  0.00  0.00    -0.263 N 
HETATM   10  H   UNK N   1      22.335  13.022   4.823  0.00  0.00     0.180 HD
BRANCH   9  11
HETATM   11  S   UNK N   1      24.266  13.891   3.710  0.00  0.00     0.264 S 
HETATM   12  O   UNK N   1      24.790  12.448   3.776  0.00  0.00    -0.200 OA
HETATM   13  O   UNK N   1      23.794  14.005   2.252  0.00  0.00    -0.200 OA
BRANCH  11  14
HETATM   14  C   UNK N   1      25.476  15.112   4.161  0.00  0.00     0.079 A 
HETATM   15  C   UNK N   1      26.300  14.890   5.263  0.00  0.00     0.026 A 
HETATM   16  C   UNK N   1      27.259  15.836   5.619  0.00  0.00     0.009 A 
HETATM   17  C   UNK N   1      27.406  17.018   4.871  0.00  0.00    -0.051 A 
HETATM   18  C   UNK N   1      26.567  17.231   3.761  0.00  0.00     0.009 A 
HETATM   19  C   UNK N   1      25.607  16.281   3.408  0.00  0.00     0.026 A 
BRANCH  17  20
HETATM   20  C   UNK N   1      28.461  18.028   5.271  0.00  0.00    -0.024 C 
HETATM   21  C   UNK N   1      28.535  18.121   6.784  0.00  0.00     0.019 C 
HETATM   22  C   UNK N   1      28.177  19.422   4.729  0.00  0.00     0.019 C 
HETATM   23  C   UNK N   1      29.814  17.589   4.740  0.00  0.00     0.019 C 
ENDBRANCH  17  20
ENDBRANCH  11  14
ENDBRANCH   9  11
ENDBRANCH   5   9
BRANCH   6  24
HETATM   24  O   UNK N   1      22.069  14.012   7.201  0.00  0.00    -0.300 OA
BRANCH  24  25
HETATM   25  C   UNK N   1      22.905  13.600   8.189  0.00  0.00     0.109 A 
HETATM   26  C   UNK N   1      22.325  12.985   9.315  0.00  0.00     0.102 A 
HETATM   27  C   UNK N   1      23.147  12.516  10.356  0.00  0.00     0.039 A 
HETATM   28  C   UNK N   1      24.532  12.658  10.278  0.00  0.00     0.003 A 
HETATM   29  C   UNK N   1      25.107  13.261   9.160  0.00  0.00     0.003 A 
HETATM   30  C   UNK N   1      24.296  13.724   8.123  0.00  0.00     0.040 A 
BRANCH  26  31
HETATM   31  O   UNK N   1      20.978  12.839   9.364  0.00  0.00    -0.353 OA
HETATM   32  C   UNK N   1      20.165  13.570  10.202  0.00  0.00     0.210 C 
ENDBRANCH  26  31
ENDBRANCH  24  25
ENDBRANCH   6  24
BRANCH   8  33
HETATM   33  C   UNK N   1      21.502  18.510   3.907  0.00  0.00     0.150 A 
HETATM   34  N   UNK N   1      22.603  19.262   3.631  0.00  0.00    -0.349 N 
HETATM   35  C   UNK N   1      22.514  20.364   2.840  0.00  0.00     0.091 A 
ATOM     36  HN  UNK N   1      23.505  18.994   4.023  1.00  0.00     0.167 HD
HETATM   37  C   UNK N   1      21.284  20.736   2.300  0.00  0.00     0.034 A 
HETATM   38  C   UNK N   1      20.168  19.957   2.590  0.00  0.00     0.091 A 
HETATM   39  N   UNK N   1      20.293  18.863   3.386  0.00  0.00    -0.349 N 
ATOM     40  HN  UNK N   1      19.470  18.298   3.597  1.00  0.00     0.167 HD
ENDBRANCH   8  33
BRANCH   7  41
HETATM   41  O   UNK N   1      20.877  16.518   8.205  0.00  0.00    -0.331 OA
BRANCH  41  42
HETATM   42  C   UNK N   1      19.569  16.815   8.518  0.00  0.00     0.203 C 
BRANCH  42  43
HETATM   43  C   UNK N   1      19.496  18.175   9.176  0.00  0.00     0.191 C 
BRANCH  43  44
HETATM   44  O   UNK N   1      20.302  19.068   8.473  0.00  0.00    -0.399 OA
HETATM   45  H   UNK N   1      19.939  19.656   7.793  0.00  0.00     0.209 HD
ENDBRANCH  43  44
ENDBRANCH  42  43
ENDBRANCH  41  42
ENDBRANCH   7  41
TORSDOF 12
ENDMDL
MODEL 6
REMARK VINA RESULT:      -6.7      6.477     10.512
REMARK  12 active torsions:
REMARK  status: ('A' for Active; 'I' for Inactive)
REMARK    1  A    between atoms: S_1  and  N_8 
REMARK    2  A    between atoms: S_1  and  C_24 
REMARK    3  A    between atoms: O_4  and  C_28 
REMARK    4  A    between atoms: O_4  and  C_31 
REMARK    5  A    between atoms: O_5  and  C_29 
REMARK    6  A    between atoms: O_5  and  C_33 
REMARK    7  A    between atoms: O_6  and  C_34 
REMARK    8  A    between atoms: O_7  and  C_37 
REMARK    9  A    between atoms: N_8  and  C_27 
REMARK   10  A    between atoms: C_17  and  C_18 
REMARK   11  A    between atoms: C_30  and  C_32 
REMARK   12  A    between atoms: C_33  and  C_37 
ROOT
HETATM    1  N   UNK N   1      21.847  14.814   4.647  0.00  0.00    -0.323 N 
ATOM      2  HN  UNK N   1      22.495  14.561   3.901  1.00  0.00     0.169 HD
HETATM    3  N   UNK N   1      19.792  15.720   5.326  0.00  0.00    -0.318 N 
ATOM      4  HN  UNK N   1      18.893  16.134   5.079  1.00  0.00     0.169 HD
HETATM    5  C   UNK N   1      22.188  14.581   5.942  0.00  0.00     0.155 A 
HETATM    6  C   UNK N   1      21.335  14.944   6.987  0.00  0.00     0.171 A 
HETATM    7  C   UNK N   1      20.090  15.527   6.642  0.00  0.00     0.182 A 
HETATM    8  C   UNK N   1      20.653  15.381   4.335  0.00  0.00     0.154 A 
ENDROOT
BRANCH   5   9
HETATM    9  N   UNK N   1      23.439  14.006   6.258  0.00  0.00    -0.263 N 
HETATM   10  H   UNK N   1      23.533  13.460   7.072  0.00  0.00     0.180 HD
BRANCH   9  11
HETATM   11  S   UNK N   1      24.822  14.252   5.219  0.00  0.00     0.264 S 
HETATM   12  O   UNK N   1      25.900  13.302   5.760  0.00  0.00    -0.200 OA
HETATM   13  O   UNK N   1      24.422  13.580   3.895  0.00  0.00    -0.200 OA
BRANCH  11  14
HETATM   14  C   UNK N   1      25.378  15.928   5.021  0.00  0.00     0.079 A 
HETATM   15  C   UNK N   1      26.464  16.384   5.767  0.00  0.00     0.026 A 
HETATM   16  C   UNK N   1      26.917  17.693   5.612  0.00  0.00     0.009 A 
HETATM   17  C   UNK N   1      26.285  18.562   4.704  0.00  0.00    -0.051 A 
HETATM   18  C   UNK N   1      25.189  18.090   3.959  0.00  0.00     0.009 A 
HETATM   19  C   UNK N   1      24.739  16.778   4.117  0.00  0.00     0.026 A 
BRANCH  17  20
HETATM   20  C   UNK N   1      26.799  19.978   4.547  0.00  0.00    -0.024 C 
HETATM   21  C   UNK N   1      28.317  19.979   4.570  0.00  0.00     0.019 C 
HETATM   22  C   UNK N   1      26.313  20.907   5.650  0.00  0.00     0.019 C 
HETATM   23  C   UNK N   1      26.329  20.546   3.219  0.00  0.00     0.019 C 
ENDBRANCH  17  20
ENDBRANCH  11  14
ENDBRANCH   9  11
ENDBRANCH   5   9
BRANCH   6  24
HETATM   24  O   UNK N   1      21.819  14.728   8.247  0.00  0.00    -0.300 OA
BRANCH  24  25
HETATM   25  C   UNK N   1      21.646  13.836   9.257  0.00  0.00     0.109 A 
HETATM   26  C   UNK N   1      22.756  13.057   9.632  0.00  0.00     0.102 A 
HETATM   27  C   UNK N   1      22.638  12.136  10.689  0.00  0.00     0.039 A 
HETATM   28  C   UNK N   1      21.427  11.991  11.365  0.00  0.00     0.003 A 
HETATM   29  C   UNK N   1      20.329  12.768  10.998  0.00  0.00     0.003 A 
HETATM   30  C   UNK N   1      20.442  13.686   9.953  0.00  0.00     0.040 A 
BRANCH  26  31
HETATM   31  O   UNK N   1      23.930  13.224   8.975  0.00  0.00    -0.353 OA
HETATM   32  C   UNK N   1      25.136  13.417   9.612  0.00  0.00     0.210 C 
ENDBRANCH  26  31
ENDBRANCH  24  25
ENDBRANCH   6  24
BRANCH   8  33
HETATM   33  C   UNK N   1      20.292  15.648   2.934  0.00  0.00     0.150 A 
HETATM   34  N   UNK N   1      20.378  16.909   2.428  0.00  0.00    -0.349 N 
HETATM   35  C   UNK N   1      20.028  17.169   1.141  0.00  0.00     0.091 A 
ATOM     36  HN  UNK N   1      20.710  17.668   3.023  1.00  0.00     0.167 HD
HETATM   37  C   UNK N   1      19.574  16.138   0.321  0.00  0.00     0.034 A 
HETATM   38  C   UNK N   1      19.493  14.853   0.852  0.00  0.00     0.091 A 
HETATM   39  N   UNK N   1      19.849  14.631   2.144  0.00  0.00    -0.349 N 
ATOM     40  HN  UNK N   1      19.784  13.688   2.527  1.00  0.00     0.167 HD
ENDBRANCH   8  33
BRANCH   7  41
HETATM   41  O   UNK N   1      19.193  15.895   7.578  0.00  0.00    -0.331 OA
BRANCH  41  42
HETATM   42  C   UNK N   1      19.323  17.057   8.305  0.00  0.00     0.203 C 
BRANCH  42  43
HETATM   43  C   UNK N   1      18.266  17.106   9.386  0.00  0.00     0.191 C 
BRANCH  43  44
HETATM   44  O   UNK N   1      17.142  17.768   8.898  0.00  0.00    -0.399 OA
HETATM   45  H   UNK N   1      17.214  18.497   8.263  0.00  0.00     0.209 HD
ENDBRANCH  43  44
ENDBRANCH  42  43
ENDBRANCH  41  42
ENDBRANCH   7  41
TORSDOF 12
ENDMDL
MODEL 7
REMARK VINA RESULT:      -6.5      7.243     10.381
REMARK  12 active torsions:
REMARK  status: ('A' for Active; 'I' for Inactive)
REMARK    1  A    between atoms: S_1  and  N_8 
REMARK    2  A    between atoms: S_1  and  C_24 
REMARK    3  A    between atoms: O_4  and  C_28 
REMARK    4  A    between atoms: O_4  and  C_31 
REMARK    5  A    between atoms: O_5  and  C_29 
REMARK    6  A    between atoms: O_5  and  C_33 
REMARK    7  A    between atoms: O_6  and  C_34 
REMARK    8  A    between atoms: O_7  and  C_37 
REMARK    9  A    between atoms: N_8  and  C_27 
REMARK   10  A    between atoms: C_17  and  C_18 
REMARK   11  A    between atoms: C_30  and  C_32 
REMARK   12  A    between atoms: C_33  and  C_37 
ROOT
HETATM    1  N   UNK N   1      20.951  16.268   8.019  0.00  0.00    -0.323 N 
ATOM      2  HN  UNK N   1      20.700  15.653   8.793  1.00  0.00     0.169 HD
HETATM    3  N   UNK N   1      20.724  18.321   6.905  0.00  0.00    -0.318 N 
ATOM      4  HN  UNK N   1      20.307  19.251   6.860  1.00  0.00     0.169 HD
HETATM    5  C   UNK N   1      21.841  15.844   7.084  0.00  0.00     0.155 A 
HETATM    6  C   UNK N   1      22.183  16.652   5.996  0.00  0.00     0.171 A 
HETATM    7  C   UNK N   1      21.595  17.940   5.930  0.00  0.00     0.182 A 
HETATM    8  C   UNK N   1      20.392  17.503   7.935  0.00  0.00     0.154 A 
ENDROOT
BRANCH   5   9
HETATM    9  N   UNK N   1      22.406  14.552   7.171  0.00  0.00    -0.263 N 
HETATM   10  H   UNK N   1      23.370  14.452   7.344  0.00  0.00     0.180 HD
BRANCH   9  11
HETATM   11  S   UNK N   1      21.411  13.129   6.973  0.00  0.00     0.264 S 
HETATM   12  O   UNK N   1      22.294  11.960   7.436  0.00  0.00    -0.200 OA
HETATM   13  O   UNK N   1      20.378  13.233   8.106  0.00  0.00    -0.200 OA
BRANCH  11  14
HETATM   14  C   UNK N   1      20.682  12.886   5.371  0.00  0.00     0.079 A 
HETATM   15  C   UNK N   1      19.745  13.802   4.896  0.00  0.00     0.026 A 
HETATM   16  C   UNK N   1      19.175  13.627   3.636  0.00  0.00     0.009 A 
HETATM   17  C   UNK N   1      19.540  12.530   2.835  0.00  0.00    -0.051 A 
HETATM   18  C   UNK N   1      20.486  11.612   3.328  0.00  0.00     0.009 A 
HETATM   19  C   UNK N   1      21.054  11.790   4.590  0.00  0.00     0.026 A 
BRANCH  17  20
HETATM   20  C   UNK N   1      18.914  12.365   1.466  0.00  0.00    -0.024 C 
HETATM   21  C   UNK N   1      17.599  11.615   1.590  0.00  0.00     0.019 C 
HETATM   22  C   UNK N   1      19.803  11.594   0.501  0.00  0.00     0.019 C 
HETATM   23  C   UNK N   1      18.644  13.731   0.860  0.00  0.00     0.019 C 
ENDBRANCH  17  20
ENDBRANCH  11  14
ENDBRANCH   9  11
ENDBRANCH   5   9
BRANCH   6  24
HETATM   24  O   UNK N   1      23.030  16.087   5.084  0.00  0.00    -0.300 OA
BRANCH  24  25
HETATM   25  C   UNK N   1      22.944  15.411   3.910  0.00  0.00     0.109 A 
HETATM   26  C   UNK N   1      23.713  14.240   3.778  0.00  0.00     0.102 A 
HETATM   27  C   UNK N   1      23.643  13.487   2.591  0.00  0.00     0.039 A 
HETATM   28  C   UNK N   1      22.817  13.897   1.545  0.00  0.00     0.003 A 
HETATM   29  C   UNK N   1      22.051  15.054   1.678  0.00  0.00     0.003 A 
HETATM   30  C   UNK N   1      22.113  15.801   2.855  0.00  0.00     0.040 A 
BRANCH  26  31
HETATM   31  O   UNK N   1      24.497  13.847   4.813  0.00  0.00    -0.353 OA
HETATM   32  C   UNK N   1      25.868  13.752   4.733  0.00  0.00     0.210 C 
ENDBRANCH  26  31
ENDBRANCH  24  25
ENDBRANCH   6  24
BRANCH   8  33
HETATM   33  C   UNK N   1      19.416  17.955   8.938  0.00  0.00     0.150 A 
HETATM   34  N   UNK N   1      19.696  19.016   9.744  0.00  0.00    -0.349 N 
HETATM   35  C   UNK N   1      18.807  19.429  10.687  0.00  0.00     0.091 A 
ATOM     36  HN  UNK N   1      20.583  19.507   9.639  1.00  0.00     0.167 HD
HETATM   37  C   UNK N   1      17.592  18.763  10.837  0.00  0.00     0.034 A 
HETATM   38  C   UNK N   1      17.319  17.681  10.005  0.00  0.00     0.091 A 
HETATM   39  N   UNK N   1      18.232  17.295   9.075  0.00  0.00    -0.349 N 
ATOM     40  HN  UNK N   1      18.026  16.500   8.470  1.00  0.00     0.167 HD
ENDBRANCH   8  33
BRANCH   7  41
HETATM   41  O   UNK N   1      21.875  18.798   4.929  0.00  0.00    -0.331 OA
BRANCH  41  42
HETATM   42  C   UNK N   1      20.943  19.148   3.978  0.00  0.00     0.203 C 
BRANCH  42  43
HETATM   43  C   UNK N   1      21.587  20.026   2.928  0.00  0.00     0.191 C 
BRANCH  43  44
HETATM   44  O   UNK N   1      22.907  20.284   3.293  0.00  0.00    -0.399 OA
HETATM   45  H   UNK N   1      23.139  20.588   4.184  0.00  0.00     0.209 HD
ENDBRANCH  43  44
ENDBRANCH  42  43
ENDBRANCH  41  42
ENDBRANCH   7  41
TORSDOF 12
ENDMDL
MODEL 8
REMARK VINA RESULT:      -6.5     12.306     15.104
REMARK  12 active torsions:
REMARK  status: ('A' for Active; 'I' for Inactive)
REMARK    1  A    between atoms: S_1  and  N_8 
REMARK    2  A    between atoms: S_1  and  C_24 
REMARK    3  A    between atoms: O_4  and  C_28 
REMARK    4  A    between atoms: O_4  and  C_31 
REMARK    5  A    between atoms: O_5  and  C_29 
REMARK    6  A    between atoms: O_5  and  C_33 
REMARK    7  A    between atoms: O_6  and  C_34 
REMARK    8  A    between atoms: O_7  and  C_37 
REMARK    9  A    between atoms: N_8  and  C_27 
REMARK   10  A    between atoms: C_17  and  C_18 
REMARK   11  A    between atoms: C_30  and  C_32 
REMARK   12  A    between atoms: C_33  and  C_37 
ROOT
HETATM    1  N   UNK N   1      31.550  20.632  -4.828  0.00  0.00    -0.323 N 
ATOM      2  HN  UNK N   1      31.965  20.517  -3.903  1.00  0.00     0.169 HD
HETATM    3  N   UNK N   1      31.647  20.298  -7.149  0.00  0.00    -0.318 N 
ATOM      4  HN  UNK N   1      32.136  19.917  -7.958  1.00  0.00     0.169 HD
HETATM    5  C   UNK N   1      30.358  21.271  -4.955  0.00  0.00     0.155 A 
HETATM    6  C   UNK N   1      29.779  21.471  -6.212  0.00  0.00     0.171 A 
HETATM    7  C   UNK N   1      30.464  20.947  -7.337  0.00  0.00     0.182 A 
HETATM    8  C   UNK N   1      32.197  20.144  -5.918  0.00  0.00     0.154 A 
ENDROOT
BRANCH   5   9
HETATM    9  N   UNK N   1      29.701  21.790  -3.818  0.00  0.00    -0.263 N 
HETATM   10  H   UNK N   1      28.978  21.273  -3.395  0.00  0.00     0.180 HD
BRANCH   9  11
HETATM   11  S   UNK N   1      30.158  23.340  -3.153  0.00  0.00     0.264 S 
HETATM   12  O   UNK N   1      30.268  23.105  -1.639  0.00  0.00    -0.200 OA
HETATM   13  O   UNK N   1      31.628  23.508  -3.570  0.00  0.00    -0.200 OA
BRANCH  11  14
HETATM   14  C   UNK N   1      29.135  24.725  -3.591  0.00  0.00     0.079 A 
HETATM   15  C   UNK N   1      27.748  24.592  -3.559  0.00  0.00     0.026 A 
HETATM   16  C   UNK N   1      26.936  25.676  -3.890  0.00  0.00     0.009 A 
HETATM   17  C   UNK N   1      27.506  26.908  -4.256  0.00  0.00    -0.051 A 
HETATM   18  C   UNK N   1      28.908  27.028  -4.287  0.00  0.00     0.009 A 
HETATM   19  C   UNK N   1      29.718  25.940  -3.954  0.00  0.00     0.026 A 
BRANCH  17  20
HETATM   20  C   UNK N   1      26.604  28.074  -4.603  0.00  0.00    -0.024 C 
HETATM   21  C   UNK N   1      27.225  28.887  -5.725  0.00  0.00     0.019 C 
HETATM   22  C   UNK N   1      26.367  29.006  -3.424  0.00  0.00     0.019 C 
HETATM   23  C   UNK N   1      25.254  27.554  -5.065  0.00  0.00     0.019 C 
ENDBRANCH  17  20
ENDBRANCH  11  14
ENDBRANCH   9  11
ENDBRANCH   5   9
BRANCH   6  24
HETATM   24  O   UNK N   1      28.618  22.191  -6.219  0.00  0.00    -0.300 OA
BRANCH  24  25
HETATM   25  C   UNK N   1      28.147  23.344  -6.762  0.00  0.00     0.109 A 
HETATM   26  C   UNK N   1      26.754  23.466  -6.918  0.00  0.00     0.102 A 
HETATM   27  C   UNK N   1      26.211  24.648  -7.452  0.00  0.00     0.039 A 
HETATM   28  C   UNK N   1      27.047  25.700  -7.828  0.00  0.00     0.003 A 
HETATM   29  C   UNK N   1      28.426  25.582  -7.667  0.00  0.00     0.003 A 
HETATM   30  C   UNK N   1      28.969  24.412  -7.134  0.00  0.00     0.040 A 
BRANCH  26  31
HETATM   31  O   UNK N   1      25.956  22.440  -6.529  0.00  0.00    -0.353 OA
HETATM   32  C   UNK N   1      25.142  21.742  -7.393  0.00  0.00     0.210 C 
ENDBRANCH  26  31
ENDBRANCH  24  25
ENDBRANCH   6  24
BRANCH   8  33
HETATM   33  C   UNK N   1      33.496  19.467  -5.781  0.00  0.00     0.150 A 
HETATM   34  N   UNK N   1      34.402  19.502  -6.796  0.00  0.00    -0.349 N 
HETATM   35  C   UNK N   1      35.597  18.863  -6.685  0.00  0.00     0.091 A 
ATOM     36  HN  UNK N   1      34.182  20.014  -7.650  1.00  0.00     0.167 HD
HETATM   37  C   UNK N   1      35.906  18.161  -5.522  0.00  0.00     0.034 A 
HETATM   38  C   UNK N   1      34.970  18.136  -4.492  0.00  0.00     0.091 A 
HETATM   39  N   UNK N   1      33.785  18.784  -4.638  0.00  0.00    -0.349 N 
ATOM     40  HN  UNK N   1      33.102  18.759  -3.880  1.00  0.00     0.167 HD
ENDBRANCH   8  33
BRANCH   7  41
HETATM   41  O   UNK N   1      29.978  21.074  -8.587  0.00  0.00    -0.331 OA
BRANCH  41  42
HETATM   42  C   UNK N   1      28.963  20.277  -9.067  0.00  0.00     0.203 C 
BRANCH  42  43
HETATM   43  C   UNK N   1      27.988  21.114  -9.866  0.00  0.00     0.191 C 
BRANCH  43  44
HETATM   44  O   UNK N   1      28.503  22.400 -10.015  0.00  0.00    -0.399 OA
HETATM   45  H   UNK N   1      29.055  22.643 -10.774  0.00  0.00     0.209 HD
ENDBRANCH  43  44
ENDBRANCH  42  43
ENDBRANCH  41  42
ENDBRANCH   7  41
TORSDOF 12
ENDMDL
MODEL 9
REMARK VINA RESULT:      -6.5      6.321     10.024
REMARK  12 active torsions:
REMARK  status: ('A' for Active; 'I' for Inactive)
REMARK    1  A    between atoms: S_1  and  N_8 
REMARK    2  A    between atoms: S_1  and  C_24 
REMARK    3  A    between atoms: O_4  and  C_28 
REMARK    4  A    between atoms: O_4  and  C_31 
REMARK    5  A    between atoms: O_5  and  C_29 
REMARK    6  A    between atoms: O_5  and  C_33 
REMARK    7  A    between atoms: O_6  and  C_34 
REMARK    8  A    between atoms: O_7  and  C_37 
REMARK    9  A    between atoms: N_8  and  C_27 
REMARK   10  A    between atoms: C_17  and  C_18 
REMARK   11  A    between atoms: C_30  and  C_32 
REMARK   12  A    between atoms: C_33  and  C_37 
ROOT
HETATM    1  N   UNK N   1      22.158  15.797   4.626  0.00  0.00    -0.323 N 
ATOM      2  HN  UNK N   1      22.846  15.863   3.875  1.00  0.00     0.169 HD
HETATM    3  N   UNK N   1      20.450  16.777   5.901  0.00  0.00    -0.318 N 
ATOM      4  HN  UNK N   1      19.849  17.579   6.091  1.00  0.00     0.169 HD
HETATM    5  C   UNK N   1      22.048  14.645   5.338  0.00  0.00     0.155 A 
HETATM    6  C   UNK N   1      21.137  14.534   6.391  0.00  0.00     0.171 A 
HETATM    7  C   UNK N   1      20.310  15.654   6.659  0.00  0.00     0.182 A 
HETATM    8  C   UNK N   1      21.363  16.862   4.902  0.00  0.00     0.154 A 
ENDROOT
BRANCH   5   9
HETATM    9  N   UNK N   1      22.891  13.547   5.054  0.00  0.00    -0.263 N 
HETATM   10  H   UNK N   1      22.583  12.633   5.249  0.00  0.00     0.180 HD
BRANCH   9  11
HETATM   11  S   UNK N   1      24.475  13.795   4.359  0.00  0.00     0.264 S 
HETATM   12  O   UNK N   1      25.041  12.383   4.148  0.00  0.00    -0.200 OA
HETATM   13  O   UNK N   1      24.187  14.255   2.921  0.00  0.00    -0.200 OA
BRANCH  11  14
HETATM   14  C   UNK N   1      25.568  14.881   5.244  0.00  0.00     0.079 A 
HETATM   15  C   UNK N   1      25.614  14.825   6.636  0.00  0.00     0.026 A 
HETATM   16  C   UNK N   1      26.477  15.664   7.340  0.00  0.00     0.009 A 
HETATM   17  C   UNK N   1      27.307  16.570   6.654  0.00  0.00    -0.051 A 
HETATM   18  C   UNK N   1      27.249  16.617   5.249  0.00  0.00     0.009 A 
HETATM   19  C   UNK N   1      26.384  15.775   4.548  0.00  0.00     0.026 A 
BRANCH  17  20
HETATM   20  C   UNK N   1      28.242  17.466   7.439  0.00  0.00    -0.024 C 
HETATM   21  C   UNK N   1      29.682  17.071   7.164  0.00  0.00     0.019 C 
HETATM   22  C   UNK N   1      28.013  17.384   8.941  0.00  0.00     0.019 C 
HETATM   23  C   UNK N   1      28.040  18.910   7.015  0.00  0.00     0.019 C 
ENDBRANCH  17  20
ENDBRANCH  11  14
ENDBRANCH   9  11
ENDBRANCH   5   9
BRANCH   6  24
HETATM   24  O   UNK N   1      21.171  13.354   7.080  0.00  0.00    -0.300 OA
BRANCH  24  25
HETATM   25  C   UNK N   1      21.568  12.907   8.299  0.00  0.00     0.109 A 
HETATM   26  C   UNK N   1      22.665  12.026   8.342  0.00  0.00     0.102 A 
HETATM   27  C   UNK N   1      23.133  11.552   9.580  0.00  0.00     0.039 A 
HETATM   28  C   UNK N   1      22.515  11.949  10.766  0.00  0.00     0.003 A 
HETATM   29  C   UNK N   1      21.433  12.826  10.724  0.00  0.00     0.003 A 
HETATM   30  C   UNK N   1      20.967  13.303   9.498  0.00  0.00     0.040 A 
BRANCH  26  31
HETATM   31  O   UNK N   1      23.265  11.666   7.180  0.00  0.00    -0.353 OA
HETATM   32  C   UNK N   1      23.470  10.356   6.806  0.00  0.00     0.210 C 
ENDBRANCH  26  31
ENDBRANCH  24  25
ENDBRANCH   6  24
BRANCH   8  33
HETATM   33  C   UNK N   1      21.494  18.115   4.142  0.00  0.00     0.150 A 
HETATM   34  N   UNK N   1      20.394  18.721   3.615  0.00  0.00    -0.349 N 
HETATM   35  C   UNK N   1      20.508  19.868   2.895  0.00  0.00     0.091 A 
ATOM     36  HN  UNK N   1      19.473  18.309   3.764  1.00  0.00     0.167 HD
HETATM   37  C   UNK N   1      21.763  20.439   2.689  0.00  0.00     0.034 A 
HETATM   38  C   UNK N   1      22.878  19.809   3.234  0.00  0.00     0.091 A 
HETATM   39  N   UNK N   1      22.727  18.662   3.946  0.00  0.00    -0.349 N 
ATOM     40  HN  UNK N   1      23.548  18.204   4.341  1.00  0.00     0.167 HD
ENDBRANCH   8  33
BRANCH   7  41
HETATM   41  O   UNK N   1      19.389  15.638   7.643  0.00  0.00    -0.331 OA
BRANCH  41  42
HETATM   42  C   UNK N   1      19.373  16.576   8.651  0.00  0.00     0.203 C 
BRANCH  42  43
HETATM   43  C   UNK N   1      17.954  17.040   8.896  0.00  0.00     0.191 C 
BRANCH  43  44
HETATM   44  O   UNK N   1      17.979  18.225   9.628  0.00  0.00    -0.399 OA
HETATM   45  H   UNK N   1      17.168  18.718   9.828  0.00  0.00     0.209 HD
ENDBRANCH  43  44
ENDBRANCH  42  43
ENDBRANCH  41  42
ENDBRANCH   7  41
TORSDOF 12
ENDMDL
