MODEL 1
REMARK VINA RESULT:      -6.9      0.000      0.000
REMARK  0 active torsions:
REMARK  status: ('A' for Active; 'I' for Inactive)
REMARK       I    between atoms: N_2  and  C_14 
REMARK       I    between atoms: N_3  and  C_14 
ROOT
HETATM    1  O   UNK N   1      34.368  17.680   6.630  0.00  0.00    -0.247 OA
HETATM    2  N   UNK N   1      32.087  17.293   6.752  0.00  0.00    -0.263 N 
HETATM    3  N   UNK N   1      33.415  18.537   8.380  0.00  0.00    -0.351 N 
HETATM    4  C   UNK N   1      32.133  16.527   5.468  0.00  0.00     0.054 A 
HETATM    5  C   UNK N   1      30.853  17.533   7.557  0.00  0.00     0.054 A 
HETATM    6  C   UNK N   1      31.039  15.907   4.767  0.00  0.00    -0.009 A 
HETATM    7  C   UNK N   1      29.514  17.082   7.281  0.00  0.00    -0.009 A 
HETATM    8  C   UNK N   1      29.651  15.845   5.131  0.00  0.00     0.014 A 
HETATM    9  C   UNK N   1      29.028  16.320   6.165  0.00  0.00     0.014 A 
HETATM   10  C   UNK N   1      33.390  16.369   4.824  0.00  0.00     0.031 A 
HETATM   11  C   UNK N   1      30.965  18.292   8.751  0.00  0.00     0.031 A 
HETATM   12  C   UNK N   1      31.267  15.235   3.552  0.00  0.00     0.014 A 
HETATM   13  C   UNK N   1      28.466  17.390   8.167  0.00  0.00     0.014 A 
HETATM   14  C   UNK N   1      33.321  17.831   7.233  0.00  0.00     0.325 C 
HETATM   15  C   UNK N   1      33.596  15.698   3.629  0.00  0.00     0.002 A 
HETATM   16  C   UNK N   1      29.919  18.591   9.610  0.00  0.00     0.002 A 
HETATM   17  C   UNK N   1      32.523  15.131   2.983  0.00  0.00     0.001 A 
HETATM   18  C   UNK N   1      28.658  18.131   9.319  0.00  0.00     0.001 A 
HETATM   19  H   UNK N   1      32.611  18.702   8.924  0.00  0.00     0.160 HD
HETATM   20  H   UNK N   1      34.288  18.887   8.672  0.00  0.00     0.160 HD
ENDROOT
TORSDOF 0
ENDMDL
MODEL 2
REMARK VINA RESULT:      -6.8      8.069     10.467
REMARK  0 active torsions:
REMARK  status: ('A' for Active; 'I' for Inactive)
REMARK       I    between atoms: N_2  and  C_14 
REMARK       I    between atoms: N_3  and  C_14 
ROOT
HETATM    1  O   UNK N   1      19.795  14.433   8.898  0.00  0.00    -0.247 OA
HETATM    2  N   UNK N   1      21.982  14.474   8.135  0.00  0.00    -0.263 N 
HETATM    3  N   UNK N   1      20.096  15.655   7.131  0.00  0.00    -0.351 N 
HETATM    4  C   UNK N   1      22.401  13.559   9.242  0.00  0.00     0.054 A 
HETATM    5  C   UNK N   1      22.899  15.026   7.093  0.00  0.00     0.054 A 
HETATM    6  C   UNK N   1      23.721  13.061   9.526  0.00  0.00    -0.009 A 
HETATM    7  C   UNK N   1      24.310  14.788   6.939  0.00  0.00    -0.009 A 
HETATM    8  C   UNK N   1      24.948  13.291   8.816  0.00  0.00     0.014 A 
HETATM    9  C   UNK N   1      25.187  13.992   7.751  0.00  0.00     0.014 A 
HETATM   10  C   UNK N   1      21.408  13.103  10.149  0.00  0.00     0.031 A 
HETATM   11  C   UNK N   1      22.355  15.895   6.111  0.00  0.00     0.031 A 
HETATM   12  C   UNK N   1      23.935  12.214  10.630  0.00  0.00     0.014 A 
HETATM   13  C   UNK N   1      25.017  15.384   5.879  0.00  0.00     0.014 A 
HETATM   14  C   UNK N   1      20.601  14.840   8.081  0.00  0.00     0.325 C 
HETATM   15  C   UNK N   1      21.637  12.264  11.228  0.00  0.00     0.002 A 
HETATM   16  C   UNK N   1      23.069  16.478   5.076  0.00  0.00     0.002 A 
HETATM   17  C   UNK N   1      22.914  11.820  11.475  0.00  0.00     0.001 A 
HETATM   18  C   UNK N   1      24.412  16.215   4.955  0.00  0.00     0.001 A 
HETATM   19  H   UNK N   1      20.686  16.025   6.435  0.00  0.00     0.160 HD
HETATM   20  H   UNK N   1      19.137  15.879   7.134  0.00  0.00     0.160 HD
ENDROOT
TORSDOF 0
ENDMDL
MODEL 3
REMARK VINA RESULT:      -6.6      2.374      4.349
REMARK  0 active torsions:
REMARK  status: ('A' for Active; 'I' for Inactive)
REMARK       I    between atoms: N_2  and  C_14 
REMARK       I    between atoms: N_3  and  C_14 
ROOT
HETATM    1  O   UNK N   1      28.175  17.777   8.738  0.00  0.00    -0.247 OA
HETATM    2  N   UNK N   1      29.999  17.561   7.327  0.00  0.00    -0.263 N 
HETATM    3  N   UNK N   1      30.092  17.840   9.751  0.00  0.00    -0.351 N 
HETATM    4  C   UNK N   1      29.090  17.454   6.144  0.00  0.00     0.054 A 
HETATM    5  C   UNK N   1      31.490  17.506   7.263  0.00  0.00     0.054 A 
HETATM    6  C   UNK N   1      29.452  17.266   4.763  0.00  0.00    -0.009 A 
HETATM    7  C   UNK N   1      32.322  17.360   6.098  0.00  0.00    -0.009 A 
HETATM    8  C   UNK N   1      30.759  17.160   4.177  0.00  0.00     0.014 A 
HETATM    9  C   UNK N   1      31.935  17.207   4.723  0.00  0.00     0.014 A 
HETATM   10  C   UNK N   1      27.689  17.541   6.362  0.00  0.00     0.031 A 
HETATM   11  C   UNK N   1      32.219  17.609   8.476  0.00  0.00     0.031 A 
HETATM   12  C   UNK N   1      28.454  17.170   3.777  0.00  0.00     0.014 A 
HETATM   13  C   UNK N   1      33.723  17.345   6.225  0.00  0.00     0.014 A 
HETATM   14  C   UNK N   1      29.384  17.727   8.607  0.00  0.00     0.325 C 
HETATM   15  C   UNK N   1      26.720  17.451   5.376  0.00  0.00     0.002 A 
HETATM   16  C   UNK N   1      33.601  17.586   8.583  0.00  0.00     0.002 A 
HETATM   17  C   UNK N   1      27.105  17.257   4.071  0.00  0.00     0.001 A 
HETATM   18  C   UNK N   1      34.361  17.459   7.446  0.00  0.00     0.001 A 
HETATM   19  H   UNK N   1      31.076  17.808   9.726  0.00  0.00     0.160 HD
HETATM   20  H   UNK N   1      29.625  17.954  10.609  0.00  0.00     0.160 HD
ENDROOT
TORSDOF 0
ENDMDL
MODEL 4
REMARK VINA RESULT:      -6.6      3.016      4.656
REMARK  0 active torsions:
REMARK  status: ('A' for Active; 'I' for Inactive)
REMARK       I    between atoms: N_2  and  C_14 
REMARK       I    between atoms: N_3  and  C_14 
ROOT
HETATM    1  O   UNK N   1      30.706  15.977   4.106  0.00  0.00    -0.247 OA
HETATM    2  N   UNK N   1      29.465  17.481   5.356  0.00  0.00    -0.263 N 
HETATM    3  N   UNK N   1      29.289  17.139   2.945  0.00  0.00    -0.351 N 
HETATM    4  C   UNK N   1      30.172  17.051   6.603  0.00  0.00     0.054 A 
HETATM    5  C   UNK N   1      28.398  18.524   5.299  0.00  0.00     0.054 A 
HETATM    6  C   UNK N   1      29.963  17.523   7.946  0.00  0.00    -0.009 A 
HETATM    7  C   UNK N   1      27.865  19.306   6.383  0.00  0.00    -0.009 A 
HETATM    8  C   UNK N   1      29.054  18.529   8.421  0.00  0.00     0.014 A 
HETATM    9  C   UNK N   1      28.200  19.265   7.779  0.00  0.00     0.014 A 
HETATM   10  C   UNK N   1      31.179  16.056   6.495  0.00  0.00     0.031 A 
HETATM   11  C   UNK N   1      27.809  18.816   4.040  0.00  0.00     0.031 A 
HETATM   12  C   UNK N   1      30.715  16.989   9.009  0.00  0.00     0.014 A 
HETATM   13  C   UNK N   1      26.864  20.265   6.140  0.00  0.00     0.014 A 
HETATM   14  C   UNK N   1      29.847  16.839   4.137  0.00  0.00     0.325 C 
HETATM   15  C   UNK N   1      31.915  15.546   7.553  0.00  0.00     0.002 A 
HETATM   16  C   UNK N   1      26.819  19.760   3.821  0.00  0.00     0.002 A 
HETATM   17  C   UNK N   1      31.676  16.012   8.823  0.00  0.00     0.001 A 
HETATM   18  C   UNK N   1      26.346  20.497   4.879  0.00  0.00     0.001 A 
HETATM   19  H   UNK N   1      28.586  17.826   2.890  0.00  0.00     0.160 HD
HETATM   20  H   UNK N   1      29.585  16.670   2.131  0.00  0.00     0.160 HD
ENDROOT
TORSDOF 0
ENDMDL
MODEL 5
REMARK VINA RESULT:      -6.6     11.432     12.919
REMARK  0 active torsions:
REMARK  status: ('A' for Active; 'I' for Inactive)
REMARK       I    between atoms: N_2  and  C_14 
REMARK       I    between atoms: N_3  and  C_14 
ROOT
HETATM    1  O   UNK N   1      34.572  13.227  14.169  0.00  0.00    -0.247 OA
HETATM    2  N   UNK N   1      35.087  11.104  14.938  0.00  0.00    -0.263 N 
HETATM    3  N   UNK N   1      34.656  11.716  12.614  0.00  0.00    -0.351 N 
HETATM    4  C   UNK N   1      35.172  11.615  16.341  0.00  0.00     0.054 A 
HETATM    5  C   UNK N   1      35.313   9.683  14.535  0.00  0.00     0.054 A 
HETATM    6  C   UNK N   1      35.492  10.878  17.535  0.00  0.00    -0.009 A 
HETATM    7  C   UNK N   1      35.629   8.562  15.380  0.00  0.00    -0.009 A 
HETATM    8  C   UNK N   1      35.783   9.480  17.683  0.00  0.00     0.014 A 
HETATM    9  C   UNK N   1      35.832   8.530  16.801  0.00  0.00     0.014 A 
HETATM   10  C   UNK N   1      34.913  12.994  16.570  0.00  0.00     0.031 A 
HETATM   11  C   UNK N   1      35.210   9.350  13.159  0.00  0.00     0.031 A 
HETATM   12  C   UNK N   1      35.542  11.533  18.779  0.00  0.00     0.014 A 
HETATM   13  C   UNK N   1      35.793   7.280  14.825  0.00  0.00     0.014 A 
HETATM   14  C   UNK N   1      34.766  12.051  13.917  0.00  0.00     0.325 C 
HETATM   15  C   UNK N   1      34.961  13.620  17.805  0.00  0.00     0.002 A 
HETATM   16  C   UNK N   1      35.380   8.081  12.629  0.00  0.00     0.002 A 
HETATM   17  C   UNK N   1      35.285  12.885  18.920  0.00  0.00     0.001 A 
HETATM   18  C   UNK N   1      35.668   7.034  13.470  0.00  0.00     0.001 A 
HETATM   19  H   UNK N   1      34.799  10.784  12.332  0.00  0.00     0.160 HD
HETATM   20  H   UNK N   1      34.432  12.404  11.947  0.00  0.00     0.160 HD
ENDROOT
TORSDOF 0
ENDMDL
MODEL 6
REMARK VINA RESULT:      -6.5     12.207     13.704
REMARK  0 active torsions:
REMARK  status: ('A' for Active; 'I' for Inactive)
REMARK       I    between atoms: N_2  and  C_14 
REMARK       I    between atoms: N_3  and  C_14 
ROOT
HETATM    1  O   UNK N   1      34.938  13.215  19.922  0.00  0.00    -0.247 OA
HETATM    2  N   UNK N   1      35.347  12.121  17.922  0.00  0.00    -0.263 N 
HETATM    3  N   UNK N   1      35.546  14.524  18.302  0.00  0.00    -0.351 N 
HETATM    4  C   UNK N   1      35.004  10.808  18.552  0.00  0.00     0.054 A 
HETATM    5  C   UNK N   1      35.763  12.298  16.499  0.00  0.00     0.054 A 
HETATM    6  C   UNK N   1      35.023   9.503  17.946  0.00  0.00    -0.009 A 
HETATM    7  C   UNK N   1      35.900  11.288  15.482  0.00  0.00    -0.009 A 
HETATM    8  C   UNK N   1      35.346   9.137  16.595  0.00  0.00     0.014 A 
HETATM    9  C   UNK N   1      35.698   9.870  15.584  0.00  0.00     0.014 A 
HETATM   10  C   UNK N   1      34.607  10.801  19.916  0.00  0.00     0.031 A 
HETATM   11  C   UNK N   1      36.070  13.609  16.046  0.00  0.00     0.031 A 
HETATM   12  C   UNK N   1      34.682   8.367  18.702  0.00  0.00     0.014 A 
HETATM   13  C   UNK N   1      36.290  11.643  14.178  0.00  0.00     0.014 A 
HETATM   14  C   UNK N   1      35.266  13.282  18.751  0.00  0.00     0.325 C 
HETATM   15  C   UNK N   1      34.269   9.672  20.644  0.00  0.00     0.002 A 
HETATM   16  C   UNK N   1      36.459  13.939  14.758  0.00  0.00     0.002 A 
HETATM   17  C   UNK N   1      34.313   8.441  20.033  0.00  0.00     0.001 A 
HETATM   18  C   UNK N   1      36.565  12.948  13.813  0.00  0.00     0.001 A 
HETATM   19  H   UNK N   1      35.820  14.659  17.366  0.00  0.00     0.160 HD
HETATM   20  H   UNK N   1      35.476  15.295  18.911  0.00  0.00     0.160 HD
ENDROOT
TORSDOF 0
ENDMDL
MODEL 7
REMARK VINA RESULT:      -6.4      7.989      9.540
REMARK  0 active torsions:
REMARK  status: ('A' for Active; 'I' for Inactive)
REMARK       I    between atoms: N_2  and  C_14 
REMARK       I    between atoms: N_3  and  C_14 
ROOT
HETATM    1  O   UNK N   1      22.742  21.304   2.688  0.00  0.00    -0.247 OA
HETATM    2  N   UNK N   1      22.744  19.122   3.464  0.00  0.00    -0.263 N 
HETATM    3  N   UNK N   1      20.775  20.394   2.782  0.00  0.00    -0.351 N 
HETATM    4  C   UNK N   1      24.231  19.165   3.626  0.00  0.00     0.054 A 
HETATM    5  C   UNK N   1      21.888  17.940   3.779  0.00  0.00     0.054 A 
HETATM    6  C   UNK N   1      25.102  18.115   4.083  0.00  0.00    -0.009 A 
HETATM    7  C   UNK N   1      22.298  16.661   4.296  0.00  0.00    -0.009 A 
HETATM    8  C   UNK N   1      24.769  16.787   4.516  0.00  0.00     0.014 A 
HETATM    9  C   UNK N   1      23.619  16.194   4.610  0.00  0.00     0.014 A 
HETATM   10  C   UNK N   1      24.908  20.371   3.299  0.00  0.00     0.031 A 
HETATM   11  C   UNK N   1      20.489  18.046   3.560  0.00  0.00     0.031 A 
HETATM   12  C   UNK N   1      26.491  18.330   4.158  0.00  0.00     0.014 A 
HETATM   13  C   UNK N   1      21.343  15.660   4.551  0.00  0.00     0.014 A 
HETATM   14  C   UNK N   1      22.109  20.303   2.970  0.00  0.00     0.325 C 
HETATM   15  C   UNK N   1      26.277  20.566   3.386  0.00  0.00     0.002 A 
HETATM   16  C   UNK N   1      19.563  17.046   3.812  0.00  0.00     0.002 A 
HETATM   17  C   UNK N   1      27.077  19.534   3.813  0.00  0.00     0.001 A 
HETATM   18  C   UNK N   1      19.992  15.844   4.318  0.00  0.00     0.001 A 
HETATM   19  H   UNK N   1      20.196  19.625   2.987  0.00  0.00     0.160 HD
HETATM   20  H   UNK N   1      20.382  21.230   2.441  0.00  0.00     0.160 HD
ENDROOT
TORSDOF 0
ENDMDL
MODEL 8
REMARK VINA RESULT:      -6.4      3.174      5.121
REMARK  0 active torsions:
REMARK  status: ('A' for Active; 'I' for Inactive)
REMARK       I    between atoms: N_2  and  C_14 
REMARK       I    between atoms: N_3  and  C_14 
ROOT
HETATM    1  O   UNK N   1      28.920  16.952   3.012  0.00  0.00    -0.247 OA
HETATM    2  N   UNK N   1      29.222  17.419   5.261  0.00  0.00    -0.263 N 
HETATM    3  N   UNK N   1      30.429  15.729   3.978  0.00  0.00    -0.351 N 
HETATM    4  C   UNK N   1      28.167  18.479   5.198  0.00  0.00     0.054 A 
HETATM    5  C   UNK N   1      29.992  17.057   6.487  0.00  0.00     0.054 A 
HETATM    6  C   UNK N   1      27.713  19.340   6.257  0.00  0.00    -0.009 A 
HETATM    7  C   UNK N   1      29.872  17.618   7.807  0.00  0.00    -0.009 A 
HETATM    8  C   UNK N   1      28.132  19.383   7.630  0.00  0.00     0.014 A 
HETATM    9  C   UNK N   1      29.011  18.672   8.267  0.00  0.00     0.014 A 
HETATM   10  C   UNK N   1      27.508  18.698   3.958  0.00  0.00     0.031 A 
HETATM   11  C   UNK N   1      30.973  16.035   6.389  0.00  0.00     0.031 A 
HETATM   12  C   UNK N   1      26.714  20.299   6.011  0.00  0.00     0.014 A 
HETATM   13  C   UNK N   1      30.675  17.138   8.858  0.00  0.00     0.014 A 
HETATM   14  C   UNK N   1      29.504  16.709   4.053  0.00  0.00     0.325 C 
HETATM   15  C   UNK N   1      26.521  19.644   3.735  0.00  0.00     0.002 A 
HETATM   16  C   UNK N   1      31.760  15.579   7.434  0.00  0.00     0.002 A 
HETATM   17  C   UNK N   1      26.124  20.458   4.770  0.00  0.00     0.001 A 
HETATM   18  C   UNK N   1      31.606  16.131   8.682  0.00  0.00     0.001 A 
HETATM   19  H   UNK N   1      30.944  15.476   4.778  0.00  0.00     0.160 HD
HETATM   20  H   UNK N   1      30.588  15.267   3.123  0.00  0.00     0.160 HD
ENDROOT
TORSDOF 0
ENDMDL
MODEL 9
REMARK VINA RESULT:      -6.4      2.205      5.731
REMARK  0 active torsions:
REMARK  status: ('A' for Active; 'I' for Inactive)
REMARK       I    between atoms: N_2  and  C_14 
REMARK       I    between atoms: N_3  and  C_14 
ROOT
HETATM    1  O   UNK N   1      27.913  17.924   4.893  0.00  0.00    -0.247 OA
HETATM    2  N   UNK N   1      30.076  17.323   5.463  0.00  0.00    -0.263 N 
HETATM    3  N   UNK N   1      29.106  17.218   3.224  0.00  0.00    -0.351 N 
HETATM    4  C   UNK N   1      29.813  17.675   6.893  0.00  0.00     0.054 A 
HETATM    5  C   UNK N   1      31.374  16.805   4.938  0.00  0.00     0.054 A 
HETATM    6  C   UNK N   1      30.725  17.604   8.004  0.00  0.00    -0.009 A 
HETATM    7  C   UNK N   1      32.582  16.533   5.673  0.00  0.00    -0.009 A 
HETATM    8  C   UNK N   1      32.091  17.161   8.026  0.00  0.00     0.014 A 
HETATM    9  C   UNK N   1      32.849  16.715   7.072  0.00  0.00     0.014 A 
HETATM   10  C   UNK N   1      28.518  18.142   7.243  0.00  0.00     0.031 A 
HETATM   11  C   UNK N   1      31.477  16.527   3.550  0.00  0.00     0.031 A 
HETATM   12  C   UNK N   1      30.306  17.994   9.289  0.00  0.00     0.014 A 
HETATM   13  C   UNK N   1      33.715  16.026   5.012  0.00  0.00     0.014 A 
HETATM   14  C   UNK N   1      28.999  17.502   4.540  0.00  0.00     0.325 C 
HETATM   15  C   UNK N   1      28.121  18.516   8.517  0.00  0.00     0.002 A 
HETATM   16  C   UNK N   1      32.605  16.033   2.914  0.00  0.00     0.002 A 
HETATM   17  C   UNK N   1      29.026  18.447   9.549  0.00  0.00     0.001 A 
HETATM   18  C   UNK N   1      33.733  15.775   3.653  0.00  0.00     0.001 A 
HETATM   19  H   UNK N   1      29.955  16.873   2.863  0.00  0.00     0.160 HD
HETATM   20  H   UNK N   1      28.336  17.357   2.627  0.00  0.00     0.160 HD
ENDROOT
TORSDOF 0
ENDMDL
