MODEL 1
REMARK VINA RESULT:      -6.6      0.000      0.000
REMARK  7 active torsions:
REMARK  status: ('A' for Active; 'I' for Inactive)
REMARK    1  A    between atoms: O_1  and  C_7 
REMARK    2  A    between atoms: O_1  and  C_10 
REMARK    3  A    between atoms: O_2  and  C_4 
REMARK    4  A    between atoms: N_3  and  C_5 
REMARK    5  A    between atoms: N_3  and  C_6 
REMARK    6  A    between atoms: C_4  and  C_5 
REMARK    7  A    between atoms: C_4  and  C_7 
ROOT
HETATM    1  O   UNK N   1      36.730  13.725  12.948  0.00  0.00    -0.348 OA
ENDROOT
BRANCH   1   2
HETATM    2  C   UNK N   1      36.176  13.985  11.717  0.00  0.00     0.209 C 
BRANCH   2   3
HETATM    3  C   UNK N   1      35.990  15.485  11.542  0.00  0.00     0.159 C 
BRANCH   3   4
HETATM    4  O   UNK N   1      37.097  16.053  10.907  0.00  0.00    -0.392 OA
HETATM    5  H   UNK N   1      37.606  16.790  11.280  0.00  0.00     0.210 HD
ENDBRANCH   3   4
BRANCH   3   6
HETATM    6  C   UNK N   1      34.772  15.706  10.675  0.00  0.00     0.147 C 
BRANCH   6   7
HETATM    7  N   UNK N   1      34.718  17.087  10.237  0.00  0.00    -0.415 N 
HETATM    8  H   UNK N   1      35.039  17.905  10.755  0.00  0.00     0.153 HD
BRANCH   7   9
HETATM    9  C   UNK N   1      34.120  17.080   8.912  0.00  0.00     0.068 C 
HETATM   10  C   UNK N   1      34.478  18.360   8.175  0.00  0.00     0.031 C 
HETATM   11  C   UNK N   1      34.638  15.894   8.129  0.00  0.00     0.031 C 
ENDBRANCH   7   9
ENDBRANCH   6   7
ENDBRANCH   3   6
ENDBRANCH   2   3
ENDBRANCH   1   2
BRANCH   1  12
HETATM   12  C   UNK N   1      36.026  13.306  14.025  0.00  0.00     0.080 A 
HETATM   13  C   UNK N   1      36.208  13.966  15.250  0.00  0.00     0.007 A 
HETATM   14  C   UNK N   1      35.484  13.547  16.391  0.00  0.00    -0.023 A 
HETATM   15  C   UNK N   1      37.113  15.030  15.358  0.00  0.00     0.015 A 
HETATM   16  C   UNK N   1      34.586  12.482  16.296  0.00  0.00     0.012 A 
HETATM   17  C   UNK N   1      35.673  14.200  17.611  0.00  0.00     0.012 A 
HETATM   18  C   UNK N   1      34.408  11.824  15.075  0.00  0.00     0.004 A 
HETATM   19  C   UNK N   1      35.125  12.230  13.945  0.00  0.00     0.037 A 
HETATM   20  C   UNK N   1      36.579  15.261  17.707  0.00  0.00     0.001 A 
HETATM   21  C   UNK N   1      37.298  15.674  16.582  0.00  0.00     0.001 A 
ENDBRANCH   1  12
TORSDOF 7
ENDMDL
MODEL 2
REMARK VINA RESULT:      -6.5      7.590     10.365
REMARK  7 active torsions:
REMARK  status: ('A' for Active; 'I' for Inactive)
REMARK    1  A    between atoms: O_1  and  C_7 
REMARK    2  A    between atoms: O_1  and  C_10 
REMARK    3  A    between atoms: O_2  and  C_4 
REMARK    4  A    between atoms: N_3  and  C_5 
REMARK    5  A    between atoms: N_3  and  C_6 
REMARK    6  A    between atoms: C_4  and  C_5 
REMARK    7  A    between atoms: C_4  and  C_7 
ROOT
HETATM    1  O   UNK N   1      30.433  17.218   8.382  0.00  0.00    -0.348 OA
ENDROOT
BRANCH   1   2
HETATM    2  C   UNK N   1      29.701  18.278   8.860  0.00  0.00     0.209 C 
BRANCH   2   3
HETATM    3  C   UNK N   1      28.262  18.172   8.377  0.00  0.00     0.159 C 
BRANCH   3   4
HETATM    4  O   UNK N   1      27.371  18.213   9.452  0.00  0.00    -0.392 OA
HETATM    5  H   UNK N   1      26.830  18.989   9.668  0.00  0.00     0.210 HD
ENDBRANCH   3   4
BRANCH   3   6
HETATM    6  C   UNK N   1      27.984  19.352   7.476  0.00  0.00     0.147 C 
BRANCH   6   7
HETATM    7  N   UNK N   1      27.029  18.979   6.449  0.00  0.00    -0.415 N 
HETATM    8  H   UNK N   1      26.534  18.091   6.370  0.00  0.00     0.153 HD
BRANCH   7   9
HETATM    9  C   UNK N   1      26.914  20.119   5.555  0.00  0.00     0.068 C 
HETATM   10  C   UNK N   1      27.443  21.368   6.238  0.00  0.00     0.031 C 
HETATM   11  C   UNK N   1      27.719  19.860   4.300  0.00  0.00     0.031 C 
ENDBRANCH   7   9
ENDBRANCH   6   7
ENDBRANCH   3   6
ENDBRANCH   2   3
ENDBRANCH   1   2
BRANCH   1  12
HETATM   12  C   UNK N   1      31.625  17.339   7.752  0.00  0.00     0.080 A 
HETATM   13  C   UNK N   1      31.661  17.252   6.352  0.00  0.00     0.007 A 
HETATM   14  C   UNK N   1      32.894  17.376   5.670  0.00  0.00    -0.023 A 
HETATM   15  C   UNK N   1      30.486  17.029   5.622  0.00  0.00     0.015 A 
HETATM   16  C   UNK N   1      34.072  17.591   6.389  0.00  0.00     0.012 A 
HETATM   17  C   UNK N   1      32.929  17.281   4.276  0.00  0.00     0.012 A 
HETATM   18  C   UNK N   1      34.034  17.675   7.784  0.00  0.00     0.004 A 
HETATM   19  C   UNK N   1      32.818  17.548   8.464  0.00  0.00     0.037 A 
HETATM   20  C   UNK N   1      31.750  17.058   3.558  0.00  0.00     0.001 A 
HETATM   21  C   UNK N   1      30.531  16.931   4.231  0.00  0.00     0.001 A 
ENDBRANCH   1  12
TORSDOF 7
ENDMDL
MODEL 3
REMARK VINA RESULT:      -6.3      2.879      3.658
REMARK  7 active torsions:
REMARK  status: ('A' for Active; 'I' for Inactive)
REMARK    1  A    between atoms: O_1  and  C_7 
REMARK    2  A    between atoms: O_1  and  C_10 
REMARK    3  A    between atoms: O_2  and  C_4 
REMARK    4  A    between atoms: N_3  and  C_5 
REMARK    5  A    between atoms: N_3  and  C_6 
REMARK    6  A    between atoms: C_4  and  C_5 
REMARK    7  A    between atoms: C_4  and  C_7 
ROOT
HETATM    1  O   UNK N   1      34.729  13.105  14.353  0.00  0.00    -0.348 OA
ENDROOT
BRANCH   1   2
HETATM    2  C   UNK N   1      35.031  13.138  13.013  0.00  0.00     0.209 C 
BRANCH   2   3
HETATM    3  C   UNK N   1      35.902  14.348  12.708  0.00  0.00     0.159 C 
BRANCH   3   4
HETATM    4  O   UNK N   1      36.801  14.589  13.750  0.00  0.00    -0.392 OA
HETATM    5  H   UNK N   1      37.690  14.203  13.788  0.00  0.00     0.210 HD
ENDBRANCH   3   4
BRANCH   3   6
HETATM    6  C   UNK N   1      36.688  14.054  11.452  0.00  0.00     0.147 C 
BRANCH   6   7
HETATM    7  N   UNK N   1      37.758  13.119  11.744  0.00  0.00    -0.415 N 
HETATM    8  H   UNK N   1      37.899  12.603  12.613  0.00  0.00     0.153 HD
BRANCH   7   9
HETATM    9  C   UNK N   1      38.591  13.056  10.554  0.00  0.00     0.068 C 
HETATM   10  C   UNK N   1      38.439  11.700   9.886  0.00  0.00     0.031 C 
HETATM   11  C   UNK N   1      38.170  14.138   9.584  0.00  0.00     0.031 C 
ENDBRANCH   7   9
ENDBRANCH   6   7
ENDBRANCH   3   6
ENDBRANCH   2   3
ENDBRANCH   1   2
BRANCH   1  12
HETATM   12  C   UNK N   1      34.866  12.010  15.137  0.00  0.00     0.080 A 
HETATM   13  C   UNK N   1      35.016  12.184  16.521  0.00  0.00     0.007 A 
HETATM   14  C   UNK N   1      35.161  11.056  17.362  0.00  0.00    -0.023 A 
HETATM   15  C   UNK N   1      35.038  13.469  17.079  0.00  0.00     0.015 A 
HETATM   16  C   UNK N   1      35.149   9.771  16.814  0.00  0.00     0.012 A 
HETATM   17  C   UNK N   1      35.318  11.231  18.739  0.00  0.00     0.012 A 
HETATM   18  C   UNK N   1      35.002   9.600  15.434  0.00  0.00     0.004 A 
HETATM   19  C   UNK N   1      34.863  10.712  14.598  0.00  0.00     0.037 A 
HETATM   20  C   UNK N   1      35.339  12.519  19.284  0.00  0.00     0.001 A 
HETATM   21  C   UNK N   1      35.199  13.636  18.455  0.00  0.00     0.001 A 
ENDBRANCH   1  12
TORSDOF 7
ENDMDL
MODEL 4
REMARK VINA RESULT:      -6.1      1.901      2.602
REMARK  7 active torsions:
REMARK  status: ('A' for Active; 'I' for Inactive)
REMARK    1  A    between atoms: O_1  and  C_7 
REMARK    2  A    between atoms: O_1  and  C_10 
REMARK    3  A    between atoms: O_2  and  C_4 
REMARK    4  A    between atoms: N_3  and  C_5 
REMARK    5  A    between atoms: N_3  and  C_6 
REMARK    6  A    between atoms: C_4  and  C_5 
REMARK    7  A    between atoms: C_4  and  C_7 
ROOT
HETATM    1  O   UNK N   1      34.922  13.464  14.155  0.00  0.00    -0.348 OA
ENDROOT
BRANCH   1   2
HETATM    2  C   UNK N   1      36.010  13.996  13.506  0.00  0.00     0.209 C 
BRANCH   2   3
HETATM    3  C   UNK N   1      35.546  14.922  12.392  0.00  0.00     0.159 C 
BRANCH   3   4
HETATM    4  O   UNK N   1      36.637  15.440  11.689  0.00  0.00    -0.392 OA
HETATM    5  H   UNK N   1      36.599  16.262  11.174  0.00  0.00     0.210 HD
ENDBRANCH   3   4
BRANCH   3   6
HETATM    6  C   UNK N   1      34.697  14.116  11.438  0.00  0.00     0.147 C 
BRANCH   6   7
HETATM    7  N   UNK N   1      33.576  14.913  10.976  0.00  0.00    -0.415 N 
HETATM    8  H   UNK N   1      32.906  15.419  11.556  0.00  0.00     0.153 HD
BRANCH   7   9
HETATM    9  C   UNK N   1      33.593  14.852   9.524  0.00  0.00     0.068 C 
HETATM   10  C   UNK N   1      33.619  13.404   9.067  0.00  0.00     0.031 C 
HETATM   11  C   UNK N   1      32.354  15.524   8.975  0.00  0.00     0.031 C 
ENDBRANCH   7   9
ENDBRANCH   6   7
ENDBRANCH   3   6
ENDBRANCH   2   3
ENDBRANCH   1   2
BRANCH   1  12
HETATM   12  C   UNK N   1      34.930  12.280  14.811  0.00  0.00     0.080 A 
HETATM   13  C   UNK N   1      35.039  12.283  16.210  0.00  0.00     0.007 A 
HETATM   14  C   UNK N   1      35.050  11.058  16.918  0.00  0.00    -0.023 A 
HETATM   15  C   UNK N   1      35.150  13.489  16.913  0.00  0.00     0.015 A 
HETATM   16  C   UNK N   1      34.948   9.850  16.226  0.00  0.00     0.012 A 
HETATM   17  C   UNK N   1      35.167  11.063  18.310  0.00  0.00     0.012 A 
HETATM   18  C   UNK N   1      34.842   9.849  14.831  0.00  0.00     0.004 A 
HETATM   19  C   UNK N   1      34.836  11.057  14.126  0.00  0.00     0.037 A 
HETATM   20  C   UNK N   1      35.278  12.273  19.001  0.00  0.00     0.001 A 
HETATM   21  C   UNK N   1      35.270  13.484  18.303  0.00  0.00     0.001 A 
ENDBRANCH   1  12
TORSDOF 7
ENDMDL
MODEL 5
REMARK VINA RESULT:      -6.1      1.658      3.134
REMARK  7 active torsions:
REMARK  status: ('A' for Active; 'I' for Inactive)
REMARK    1  A    between atoms: O_1  and  C_7 
REMARK    2  A    between atoms: O_1  and  C_10 
REMARK    3  A    between atoms: O_2  and  C_4 
REMARK    4  A    between atoms: N_3  and  C_5 
REMARK    5  A    between atoms: N_3  and  C_6 
REMARK    6  A    between atoms: C_4  and  C_5 
REMARK    7  A    between atoms: C_4  and  C_7 
ROOT
HETATM    1  O   UNK N   1      35.161  13.534  12.040  0.00  0.00    -0.348 OA
ENDROOT
BRANCH   1   2
HETATM    2  C   UNK N   1      35.354  14.561  11.149  0.00  0.00     0.209 C 
BRANCH   2   3
HETATM    3  C   UNK N   1      34.115  14.734  10.282  0.00  0.00     0.159 C 
BRANCH   3   4
HETATM    4  O   UNK N   1      33.003  15.060  11.062  0.00  0.00    -0.392 OA
HETATM    5  H   UNK N   1      32.088  14.919  10.773  0.00  0.00     0.210 HD
ENDBRANCH   3   4
BRANCH   3   6
HETATM    6  C   UNK N   1      34.375  15.865   9.316  0.00  0.00     0.147 C 
BRANCH   6   7
HETATM    7  N   UNK N   1      33.410  16.929   9.526  0.00  0.00    -0.415 N 
HETATM    8  H   UNK N   1      33.230  17.426  10.398  0.00  0.00     0.153 HD
BRANCH   7   9
HETATM    9  C   UNK N   1      32.751  17.150   8.249  0.00  0.00     0.068 C 
HETATM   10  C   UNK N   1      31.478  17.952   8.457  0.00  0.00     0.031 C 
HETATM   11  C   UNK N   1      33.676  17.914   7.328  0.00  0.00     0.031 C 
ENDBRANCH   7   9
ENDBRANCH   6   7
ENDBRANCH   3   6
ENDBRANCH   2   3
ENDBRANCH   1   2
BRANCH   1  12
HETATM   12  C   UNK N   1      35.585  13.552  13.326  0.00  0.00     0.080 A 
HETATM   13  C   UNK N   1      35.173  12.525  14.188  0.00  0.00     0.007 A 
HETATM   14  C   UNK N   1      35.603  12.521  15.536  0.00  0.00    -0.023 A 
HETATM   15  C   UNK N   1      34.327  11.507  13.730  0.00  0.00     0.015 A 
HETATM   16  C   UNK N   1      36.440  13.536  16.005  0.00  0.00     0.012 A 
HETATM   17  C   UNK N   1      35.185  11.502  16.395  0.00  0.00     0.012 A 
HETATM   18  C   UNK N   1      36.847  14.561  15.144  0.00  0.00     0.004 A 
HETATM   19  C   UNK N   1      36.421  14.571  13.812  0.00  0.00     0.037 A 
HETATM   20  C   UNK N   1      34.340  10.491  15.927  0.00  0.00     0.001 A 
HETATM   21  C   UNK N   1      33.911  10.494  14.596  0.00  0.00     0.001 A 
ENDBRANCH   1  12
TORSDOF 7
ENDMDL
MODEL 6
REMARK VINA RESULT:      -6.1      7.718     10.394
REMARK  7 active torsions:
REMARK  status: ('A' for Active; 'I' for Inactive)
REMARK    1  A    between atoms: O_1  and  C_7 
REMARK    2  A    between atoms: O_1  and  C_10 
REMARK    3  A    between atoms: O_2  and  C_4 
REMARK    4  A    between atoms: N_3  and  C_5 
REMARK    5  A    between atoms: N_3  and  C_6 
REMARK    6  A    between atoms: C_4  and  C_5 
REMARK    7  A    between atoms: C_4  and  C_7 
ROOT
HETATM    1  O   UNK N   1      29.339  16.716   6.283  0.00  0.00    -0.348 OA
ENDROOT
BRANCH   1   2
HETATM    2  C   UNK N   1      28.372  15.876   5.784  0.00  0.00     0.209 C 
BRANCH   2   3
HETATM    3  C   UNK N   1      26.991  16.412   6.132  0.00  0.00     0.159 C 
BRANCH   3   4
HETATM    4  O   UNK N   1      26.811  16.462   7.516  0.00  0.00    -0.392 OA
HETATM    5  H   UNK N   1      27.388  16.003   8.147  0.00  0.00     0.210 HD
ENDBRANCH   3   4
BRANCH   3   6
HETATM    6  C   UNK N   1      26.883  17.814   5.581  0.00  0.00     0.147 C 
BRANCH   6   7
HETATM    7  N   UNK N   1      27.143  18.782   6.631  0.00  0.00    -0.415 N 
HETATM    8  H   UNK N   1      26.900  18.692   7.617  0.00  0.00     0.153 HD
BRANCH   7   9
HETATM    9  C   UNK N   1      27.819  19.905   6.003  0.00  0.00     0.068 C 
HETATM   10  C   UNK N   1      27.952  19.660   4.509  0.00  0.00     0.031 C 
HETATM   11  C   UNK N   1      27.018  21.168   6.230  0.00  0.00     0.031 C 
ENDBRANCH   7   9
ENDBRANCH   6   7
ENDBRANCH   3   6
ENDBRANCH   2   3
ENDBRANCH   1   2
BRANCH   1  12
HETATM   12  C   UNK N   1      30.520  16.964   5.671  0.00  0.00     0.080 A 
HETATM   13  C   UNK N   1      31.651  17.217   6.463  0.00  0.00     0.007 A 
HETATM   14  C   UNK N   1      32.898  17.479   5.847  0.00  0.00    -0.023 A 
HETATM   15  C   UNK N   1      31.554  17.226   7.860  0.00  0.00     0.015 A 
HETATM   16  C   UNK N   1      33.003  17.481   4.455  0.00  0.00     0.012 A 
HETATM   17  C   UNK N   1      34.021  17.739   6.636  0.00  0.00     0.012 A 
HETATM   18  C   UNK N   1      31.874  17.230   3.668  0.00  0.00     0.004 A 
HETATM   19  C   UNK N   1      30.638  16.976   4.271  0.00  0.00     0.037 A 
HETATM   20  C   UNK N   1      33.912  17.746   8.031  0.00  0.00     0.001 A 
HETATM   21  C   UNK N   1      32.681  17.490   8.641  0.00  0.00     0.001 A 
ENDBRANCH   1  12
TORSDOF 7
ENDMDL
MODEL 7
REMARK VINA RESULT:      -6.0      3.006      4.837
REMARK  7 active torsions:
REMARK  status: ('A' for Active; 'I' for Inactive)
REMARK    1  A    between atoms: O_1  and  C_7 
REMARK    2  A    between atoms: O_1  and  C_10 
REMARK    3  A    between atoms: O_2  and  C_4 
REMARK    4  A    between atoms: N_3  and  C_5 
REMARK    5  A    between atoms: N_3  and  C_6 
REMARK    6  A    between atoms: C_4  and  C_5 
REMARK    7  A    between atoms: C_4  and  C_7 
ROOT
HETATM    1  O   UNK N   1      35.633  12.866  15.105  0.00  0.00    -0.348 OA
ENDROOT
BRANCH   1   2
HETATM    2  C   UNK N   1      36.384  13.870  14.543  0.00  0.00     0.209 C 
BRANCH   2   3
HETATM    3  C   UNK N   1      35.812  14.243  13.183  0.00  0.00     0.159 C 
BRANCH   3   4
HETATM    4  O   UNK N   1      36.544  15.282  12.603  0.00  0.00    -0.392 OA
HETATM    5  H   UNK N   1      36.135  16.039  12.155  0.00  0.00     0.210 HD
ENDBRANCH   3   4
BRANCH   3   6
HETATM    6  C   UNK N   1      35.905  13.030  12.288  0.00  0.00     0.147 C 
BRANCH   6   7
HETATM    7  N   UNK N   1      34.590  12.445  12.106  0.00  0.00    -0.415 N 
HETATM    8  H   UNK N   1      33.702  12.944  12.057  0.00  0.00     0.153 HD
BRANCH   7   9
HETATM    9  C   UNK N   1      34.785  11.008  12.004  0.00  0.00     0.068 C 
HETATM   10  C   UNK N   1      36.209  10.650  12.393  0.00  0.00     0.031 C 
HETATM   11  C   UNK N   1      33.823  10.300  12.933  0.00  0.00     0.031 C 
ENDBRANCH   7   9
ENDBRANCH   6   7
ENDBRANCH   3   6
ENDBRANCH   2   3
ENDBRANCH   1   2
BRANCH   1  12
HETATM   12  C   UNK N   1      35.475  12.691  16.438  0.00  0.00     0.080 A 
HETATM   13  C   UNK N   1      35.418  11.385  16.946  0.00  0.00     0.007 A 
HETATM   14  C   UNK N   1      35.253  11.175  18.336  0.00  0.00    -0.023 A 
HETATM   15  C   UNK N   1      35.509  10.282  16.087  0.00  0.00     0.015 A 
HETATM   16  C   UNK N   1      35.152  12.268  19.200  0.00  0.00     0.012 A 
HETATM   17  C   UNK N   1      35.188   9.874  18.839  0.00  0.00     0.012 A 
HETATM   18  C   UNK N   1      35.207  13.570  18.691  0.00  0.00     0.004 A 
HETATM   19  C   UNK N   1      35.365  13.782  17.318  0.00  0.00     0.037 A 
HETATM   20  C   UNK N   1      35.280   8.781  17.971  0.00  0.00     0.001 A 
HETATM   21  C   UNK N   1      35.440   8.985  16.598  0.00  0.00     0.001 A 
ENDBRANCH   1  12
TORSDOF 7
ENDMDL
MODEL 8
REMARK VINA RESULT:      -5.9      2.955      4.491
REMARK  7 active torsions:
REMARK  status: ('A' for Active; 'I' for Inactive)
REMARK    1  A    between atoms: O_1  and  C_7 
REMARK    2  A    between atoms: O_1  and  C_10 
REMARK    3  A    between atoms: O_2  and  C_4 
REMARK    4  A    between atoms: N_3  and  C_5 
REMARK    5  A    between atoms: N_3  and  C_6 
REMARK    6  A    between atoms: C_4  and  C_5 
REMARK    7  A    between atoms: C_4  and  C_7 
ROOT
HETATM    1  O   UNK N   1      34.760  12.910  14.816  0.00  0.00    -0.348 OA
ENDROOT
BRANCH   1   2
HETATM    2  C   UNK N   1      35.614  13.653  14.037  0.00  0.00     0.209 C 
BRANCH   2   3
HETATM    3  C   UNK N   1      35.358  13.359  12.566  0.00  0.00     0.159 C 
BRANCH   3   4
HETATM    4  O   UNK N   1      34.182  13.975  12.131  0.00  0.00    -0.392 OA
HETATM    5  H   UNK N   1      33.568  13.568  11.500  0.00  0.00     0.210 HD
ENDBRANCH   3   4
BRANCH   3   6
HETATM    6  C   UNK N   1      36.515  13.916  11.770  0.00  0.00     0.147 C 
BRANCH   6   7
HETATM    7  N   UNK N   1      37.706  13.121  12.003  0.00  0.00    -0.415 N 
HETATM    8  H   UNK N   1      38.069  12.815  12.906  0.00  0.00     0.153 HD
BRANCH   7   9
HETATM    9  C   UNK N   1      38.283  12.843  10.698  0.00  0.00     0.068 C 
HETATM   10  C   UNK N   1      37.564  11.670  10.054  0.00  0.00     0.031 C 
HETATM   11  C   UNK N   1      38.140  14.061   9.813  0.00  0.00     0.031 C 
ENDBRANCH   7   9
ENDBRANCH   6   7
ENDBRANCH   3   6
ENDBRANCH   2   3
ENDBRANCH   1   2
BRANCH   1  12
HETATM   12  C   UNK N   1      34.951  12.668  16.135  0.00  0.00     0.080 A 
HETATM   13  C   UNK N   1      35.124  11.342  16.560  0.00  0.00     0.007 A 
HETATM   14  C   UNK N   1      35.325  11.063  17.932  0.00  0.00    -0.023 A 
HETATM   15  C   UNK N   1      35.086  10.288  15.639  0.00  0.00     0.015 A 
HETATM   16  C   UNK N   1      35.357  12.107  18.860  0.00  0.00     0.012 A 
HETATM   17  C   UNK N   1      35.489   9.742  18.356  0.00  0.00     0.012 A 
HETATM   18  C   UNK N   1      35.182  13.427  18.434  0.00  0.00     0.004 A 
HETATM   19  C   UNK N   1      34.978  13.708  17.079  0.00  0.00     0.037 A 
HETATM   20  C   UNK N   1      35.449   8.698  17.427  0.00  0.00     0.001 A 
HETATM   21  C   UNK N   1      35.247   8.970  16.071  0.00  0.00     0.001 A 
ENDBRANCH   1  12
TORSDOF 7
ENDMDL
MODEL 9
REMARK VINA RESULT:      -5.9      8.332     11.070
REMARK  7 active torsions:
REMARK  status: ('A' for Active; 'I' for Inactive)
REMARK    1  A    between atoms: O_1  and  C_7 
REMARK    2  A    between atoms: O_1  and  C_10 
REMARK    3  A    between atoms: O_2  and  C_4 
REMARK    4  A    between atoms: N_3  and  C_5 
REMARK    5  A    between atoms: N_3  and  C_6 
REMARK    6  A    between atoms: C_4  and  C_5 
REMARK    7  A    between atoms: C_4  and  C_7 
ROOT
HETATM    1  O   UNK N   1      28.720  17.543   6.378  0.00  0.00    -0.348 OA
ENDROOT
BRANCH   1   2
HETATM    2  C   UNK N   1      27.778  16.625   6.778  0.00  0.00     0.209 C 
BRANCH   2   3
HETATM    3  C   UNK N   1      26.668  16.540   5.741  0.00  0.00     0.159 C 
BRANCH   3   4
HETATM    4  O   UNK N   1      25.423  16.389   6.356  0.00  0.00    -0.392 OA
HETATM    5  H   UNK N   1      25.006  15.527   6.513  0.00  0.00     0.210 HD
ENDBRANCH   3   4
BRANCH   3   6
HETATM    6  C   UNK N   1      26.663  17.830   4.955  0.00  0.00     0.147 C 
BRANCH   6   7
HETATM    7  N   UNK N   1      26.068  18.891   5.745  0.00  0.00    -0.415 N 
HETATM    8  H   UNK N   1      25.420  18.781   6.525  0.00  0.00     0.153 HD
BRANCH   7   9
HETATM    9  C   UNK N   1      26.577  20.143   5.209  0.00  0.00     0.068 C 
HETATM   10  C   UNK N   1      27.428  20.844   6.254  0.00  0.00     0.031 C 
HETATM   11  C   UNK N   1      27.421  19.864   3.986  0.00  0.00     0.031 C 
ENDBRANCH   7   9
ENDBRANCH   6   7
ENDBRANCH   3   6
ENDBRANCH   2   3
ENDBRANCH   1   2
BRANCH   1  12
HETATM   12  C   UNK N   1      30.026  17.495   6.732  0.00  0.00     0.080 A 
HETATM   13  C   UNK N   1      30.992  17.326   5.730  0.00  0.00     0.007 A 
HETATM   14  C   UNK N   1      32.364  17.273   6.074  0.00  0.00    -0.023 A 
HETATM   15  C   UNK N   1      30.611  17.194   4.388  0.00  0.00     0.015 A 
HETATM   16  C   UNK N   1      32.754  17.395   7.410  0.00  0.00     0.012 A 
HETATM   17  C   UNK N   1      33.324  17.096   5.075  0.00  0.00     0.012 A 
HETATM   18  C   UNK N   1      31.788  17.562   8.408  0.00  0.00     0.004 A 
HETATM   19  C   UNK N   1      30.431  17.609   8.073  0.00  0.00     0.037 A 
HETATM   20  C   UNK N   1      32.932  16.966   3.739  0.00  0.00     0.001 A 
HETATM   21  C   UNK N   1      31.577  17.014   3.397  0.00  0.00     0.001 A 
ENDBRANCH   1  12
TORSDOF 7
ENDMDL
