MODEL 1
REMARK VINA RESULT:      -6.5      0.000      0.000
REMARK  9 active torsions:
REMARK  status: ('A' for Active; 'I' for Inactive)
REMARK    1  A    between atoms: O_1  and  C_17 
REMARK    2  A    between atoms: O_1  and  C_20 
REMARK    3  A    between atoms: O_2  and  C_19 
REMARK    4  A    between atoms: O_2  and  C_22 
REMARK    5  A    between atoms: N_5  and  C_19 
REMARK    6  A    between atoms: C_14  and  N_6 
REMARK       I    between atoms: N_12  and  C_25 
REMARK    7  A    between atoms: C_13  and  C_14 
REMARK    8  A    between atoms: C_14  and  C_17 
REMARK    9  A    between atoms: C_20  and  C_22 
ROOT
HETATM    1  O   UNK N   1      33.825  11.831  14.946  0.00  0.00    -0.265 OA
HETATM    2  N   UNK N   1      36.133  13.150  11.366  0.00  0.00    -0.305 N 
HETATM    3  N   UNK N   1      36.846  14.013  13.512  0.00  0.00    -0.174 N 
HETATM    4  N   UNK N   1      34.422  11.906  12.129  0.00  0.00    -0.345 N 
ATOM      5  HN  UNK N   1      33.620  11.278  12.165  1.00  0.00     0.167 HD
HETATM    6  N   UNK N   1      35.541  13.241  15.350  0.00  0.00    -0.154 N 
ATOM      7  HN  UNK N   1      35.356  13.235  16.353  1.00  0.00     0.187 HD
HETATM    8  N   UNK N   1      37.380  14.745  15.739  0.00  0.00    -0.234 N 
HETATM    9  C   UNK N   1      36.056  13.276  12.696  0.00  0.00     0.158 A 
HETATM   10  C   UNK N   1      35.030  12.530  13.153  0.00  0.00     0.147 A 
HETATM   11  C   UNK N   1      35.125  12.305  11.030  0.00  0.00     0.187 A 
HETATM   12  C   UNK N   1      34.747  12.497  14.508  0.00  0.00     0.290 A 
HETATM   13  C   UNK N   1      36.583  13.993  14.857  0.00  0.00     0.680 A 
HETATM   14  H   UNK N   1      37.589  14.548  13.149  0.00  0.00     0.186 HD
HETATM   15  H   UNK N   1      38.126  15.284  15.390  0.00  0.00     0.174 HD
HETATM   16  H   UNK N   1      37.192  14.734  16.705  0.00  0.00     0.174 HD
ENDROOT
BRANCH   2  17
HETATM   17  C   UNK N   1      37.098  13.783  10.469  0.00  0.00     0.301 C 
BRANCH  17  18
HETATM   18  O   UNK N   1      36.473  14.808   9.753  0.00  0.00    -0.369 OA
BRANCH  18  19
HETATM   19  C   UNK N   1      36.337  15.880  10.634  0.00  0.00     0.196 C 
BRANCH  19  20
HETATM   20  C   UNK N   1      35.115  16.669  10.208  0.00  0.00     0.205 C 
BRANCH  20  21
HETATM   21  O   UNK N   1      35.108  16.901   8.851  0.00  0.00    -0.318 OA
BRANCH  21  22
HETATM   22  C   UNK N   1      34.599  18.054   8.339  0.00  0.00     0.281 C 
HETATM   23  O   UNK N   1      35.190  19.111   8.510  0.00  0.00    -0.263 OA
BRANCH  22  24
HETATM   24  C   UNK N   1      33.252  18.054   7.651  0.00  0.00     0.178 C 
BRANCH  24  25
HETATM   25  N   UNK N   1      32.190  17.958   8.644  0.00  0.00    -0.418 N 
HETATM   26  H   UNK N   1      31.309  18.459   8.530  0.00  0.00     0.150 HD
HETATM   27  H   UNK N   1      32.331  17.378   9.471  0.00  0.00     0.150 HD
ENDBRANCH  24  25
BRANCH  24  28
HETATM   28  C   UNK N   1      33.087  16.955   6.587  0.00  0.00     0.009 C 
HETATM   29  C   UNK N   1      32.990  17.555   5.193  0.00  0.00     0.012 C 
HETATM   30  C   UNK N   1      31.800  16.183   6.825  0.00  0.00     0.012 C 
ENDBRANCH  24  28
ENDBRANCH  22  24
ENDBRANCH  21  22
ENDBRANCH  20  21
ENDBRANCH  19  20
ENDBRANCH  18  19
ENDBRANCH  17  18
ENDBRANCH   2  17
TORSDOF 9
ENDMDL
MODEL 2
REMARK VINA RESULT:      -6.3      6.610      8.991
REMARK  9 active torsions:
REMARK  status: ('A' for Active; 'I' for Inactive)
REMARK    1  A    between atoms: O_1  and  C_17 
REMARK    2  A    between atoms: O_1  and  C_20 
REMARK    3  A    between atoms: O_2  and  C_19 
REMARK    4  A    between atoms: O_2  and  C_22 
REMARK    5  A    between atoms: N_5  and  C_19 
REMARK    6  A    between atoms: C_14  and  N_6 
REMARK       I    between atoms: N_12  and  C_25 
REMARK    7  A    between atoms: C_13  and  C_14 
REMARK    8  A    between atoms: C_14  and  C_17 
REMARK    9  A    between atoms: C_20  and  C_22 
ROOT
HETATM    1  O   UNK N   1      29.367  18.561  10.360  0.00  0.00    -0.265 OA
HETATM    2  N   UNK N   1      31.451  17.051   6.719  0.00  0.00    -0.305 N 
HETATM    3  N   UNK N   1      29.041  16.836   6.774  0.00  0.00    -0.174 N 
HETATM    4  N   UNK N   1      31.682  18.026   8.732  0.00  0.00    -0.345 N 
ATOM      5  HN  UNK N   1      32.093  18.457   9.560  1.00  0.00     0.167 HD
HETATM    6  N   UNK N   1      28.037  17.676   8.765  0.00  0.00    -0.154 N 
ATOM      7  HN  UNK N   1      27.198  17.853   9.317  1.00  0.00     0.187 HD
HETATM    8  N   UNK N   1      26.654  16.724   7.039  0.00  0.00    -0.234 N 
HETATM    9  C   UNK N   1      30.244  17.194   7.279  0.00  0.00     0.158 A 
HETATM   10  C   UNK N   1      30.383  17.779   8.487  0.00  0.00     0.147 A 
HETATM   11  C   UNK N   1      32.326  17.566   7.621  0.00  0.00     0.187 A 
HETATM   12  C   UNK N   1      29.268  18.035   9.265  0.00  0.00     0.290 A 
HETATM   13  C   UNK N   1      27.923  17.082   7.529  0.00  0.00     0.680 A 
HETATM   14  H   UNK N   1      28.971  16.411   5.888  0.00  0.00     0.186 HD
HETATM   15  H   UNK N   1      26.569  16.300   6.155  0.00  0.00     0.174 HD
HETATM   16  H   UNK N   1      25.850  16.899   7.580  0.00  0.00     0.174 HD
ENDROOT
BRANCH   2  17
HETATM   17  C   UNK N   1      31.760  16.469   5.415  0.00  0.00     0.301 C 
BRANCH  17  18
HETATM   18  O   UNK N   1      30.889  16.983   4.450  0.00  0.00    -0.369 OA
BRANCH  18  19
HETATM   19  C   UNK N   1      30.542  15.917   3.621  0.00  0.00     0.196 C 
BRANCH  19  20
HETATM   20  C   UNK N   1      29.167  16.208   3.056  0.00  0.00     0.205 C 
BRANCH  20  21
HETATM   21  O   UNK N   1      28.304  16.665   4.027  0.00  0.00    -0.318 OA
BRANCH  21  22
HETATM   22  C   UNK N   1      27.251  17.465   3.709  0.00  0.00     0.281 C 
HETATM   23  O   UNK N   1      26.251  16.983   3.196  0.00  0.00    -0.263 OA
BRANCH  22  24
HETATM   24  C   UNK N   1      27.350  18.964   3.889  0.00  0.00     0.178 C 
BRANCH  24  25
HETATM   25  N   UNK N   1      28.666  19.314   4.408  0.00  0.00    -0.418 N 
HETATM   26  H   UNK N   1      29.496  19.280   3.817  0.00  0.00     0.150 HD
HETATM   27  H   UNK N   1      28.759  19.598   5.383  0.00  0.00     0.150 HD
ENDBRANCH  24  25
BRANCH  24  28
HETATM   28  C   UNK N   1      26.249  19.566   4.780  0.00  0.00     0.009 C 
HETATM   29  C   UNK N   1      25.201  20.283   3.943  0.00  0.00     0.012 C 
HETATM   30  C   UNK N   1      26.843  20.599   5.722  0.00  0.00     0.012 C 
ENDBRANCH  24  28
ENDBRANCH  22  24
ENDBRANCH  21  22
ENDBRANCH  20  21
ENDBRANCH  19  20
ENDBRANCH  18  19
ENDBRANCH  17  18
ENDBRANCH   2  17
TORSDOF 9
ENDMDL
MODEL 3
REMARK VINA RESULT:      -6.2     11.751     15.835
REMARK  9 active torsions:
REMARK  status: ('A' for Active; 'I' for Inactive)
REMARK    1  A    between atoms: O_1  and  C_17 
REMARK    2  A    between atoms: O_1  and  C_20 
REMARK    3  A    between atoms: O_2  and  C_19 
REMARK    4  A    between atoms: O_2  and  C_22 
REMARK    5  A    between atoms: N_5  and  C_19 
REMARK    6  A    between atoms: C_14  and  N_6 
REMARK       I    between atoms: N_12  and  C_25 
REMARK    7  A    between atoms: C_13  and  C_14 
REMARK    8  A    between atoms: C_14  and  C_17 
REMARK    9  A    between atoms: C_20  and  C_22 
ROOT
HETATM    1  O   UNK N   1      22.835  21.170   2.761  0.00  0.00    -0.265 OA
HETATM    2  N   UNK N   1      22.884  17.166   4.723  0.00  0.00    -0.305 N 
HETATM    3  N   UNK N   1      20.842  17.813   3.598  0.00  0.00    -0.174 N 
HETATM    4  N   UNK N   1      24.046  19.039   4.276  0.00  0.00    -0.345 N 
ATOM      5  HN  UNK N   1      24.794  19.731   4.237  1.00  0.00     0.167 HD
HETATM    6  N   UNK N   1      20.932  19.969   2.587  0.00  0.00    -0.154 N 
ATOM      7  HN  UNK N   1      20.475  20.705   2.048  1.00  0.00     0.187 HD
HETATM    8  N   UNK N   1      18.920  18.656   2.423  0.00  0.00    -0.234 N 
HETATM    9  C   UNK N   1      22.116  18.001   4.014  0.00  0.00     0.158 A 
HETATM   10  C   UNK N   1      22.813  19.124   3.745  0.00  0.00     0.147 A 
HETATM   11  C   UNK N   1      24.067  17.815   4.878  0.00  0.00     0.187 A 
HETATM   12  C   UNK N   1      22.228  20.145   3.017  0.00  0.00     0.290 A 
HETATM   13  C   UNK N   1      20.244  18.812   2.874  0.00  0.00     0.680 A 
HETATM   14  H   UNK N   1      20.359  16.981   3.809  0.00  0.00     0.186 HD
HETATM   15  H   UNK N   1      18.426  17.829   2.627  0.00  0.00     0.174 HD
HETATM   16  H   UNK N   1      18.489  19.372   1.905  0.00  0.00     0.174 HD
ENDROOT
BRANCH   2  17
HETATM   17  C   UNK N   1      22.528  15.841   5.223  0.00  0.00     0.301 C 
BRANCH  17  18
HETATM   18  O   UNK N   1      21.293  15.900   5.876  0.00  0.00    -0.369 OA
BRANCH  18  19
HETATM   19  C   UNK N   1      21.499  15.395   7.160  0.00  0.00     0.196 C 
BRANCH  19  20
HETATM   20  C   UNK N   1      22.706  14.480   7.101  0.00  0.00     0.205 C 
BRANCH  20  21
HETATM   21  O   UNK N   1      22.433  13.244   7.643  0.00  0.00    -0.318 OA
BRANCH  21  22
HETATM   22  C   UNK N   1      23.323  12.627   8.466  0.00  0.00     0.281 C 
HETATM   23  O   UNK N   1      24.031  11.727   8.035  0.00  0.00    -0.263 OA
BRANCH  22  24
HETATM   24  C   UNK N   1      23.368  12.973   9.938  0.00  0.00     0.178 C 
BRANCH  24  25
HETATM   25  N   UNK N   1      24.751  13.138  10.365  0.00  0.00    -0.418 N 
HETATM   26  H   UNK N   1      25.182  12.497  11.030  0.00  0.00     0.150 HD
HETATM   27  H   UNK N   1      25.300  13.912   9.990  0.00  0.00     0.150 HD
ENDBRANCH  24  25
BRANCH  24  28
HETATM   28  C   UNK N   1      22.648  11.961  10.846  0.00  0.00     0.009 C 
HETATM   29  C   UNK N   1      21.177  12.315  11.000  0.00  0.00     0.012 C 
HETATM   30  C   UNK N   1      23.254  11.981  12.239  0.00  0.00     0.012 C 
ENDBRANCH  24  28
ENDBRANCH  22  24
ENDBRANCH  21  22
ENDBRANCH  20  21
ENDBRANCH  19  20
ENDBRANCH  18  19
ENDBRANCH  17  18
ENDBRANCH   2  17
TORSDOF 9
ENDMDL
MODEL 4
REMARK VINA RESULT:      -6.2      1.267      1.506
REMARK  9 active torsions:
REMARK  status: ('A' for Active; 'I' for Inactive)
REMARK    1  A    between atoms: O_1  and  C_17 
REMARK    2  A    between atoms: O_1  and  C_20 
REMARK    3  A    between atoms: O_2  and  C_19 
REMARK    4  A    between atoms: O_2  and  C_22 
REMARK    5  A    between atoms: N_5  and  C_19 
REMARK    6  A    between atoms: C_14  and  N_6 
REMARK       I    between atoms: N_12  and  C_25 
REMARK    7  A    between atoms: C_13  and  C_14 
REMARK    8  A    between atoms: C_14  and  C_17 
REMARK    9  A    between atoms: C_20  and  C_22 
ROOT
HETATM    1  O   UNK N   1      35.012  11.645  15.522  0.00  0.00    -0.265 OA
HETATM    2  N   UNK N   1      35.602  14.098  11.845  0.00  0.00    -0.305 N 
HETATM    3  N   UNK N   1      36.629  14.906  13.881  0.00  0.00    -0.174 N 
HETATM    4  N   UNK N   1      34.673  12.249  12.725  0.00  0.00    -0.345 N 
ATOM      5  HN  UNK N   1      34.153  11.377  12.824  1.00  0.00     0.167 HD
HETATM    6  N   UNK N   1      36.248  13.516  15.779  0.00  0.00    -0.154 N 
ATOM      7  HN  UNK N   1      36.387  13.330  16.772  1.00  0.00     0.187 HD
HETATM    8  N   UNK N   1      37.562  15.521  16.012  0.00  0.00    -0.234 N 
HETATM    9  C   UNK N   1      35.897  14.036  13.149  0.00  0.00     0.158 A 
HETATM   10  C   UNK N   1      35.339  12.927  13.677  0.00  0.00     0.147 A 
HETATM   11  C   UNK N   1      34.850  12.995  11.597  0.00  0.00     0.187 A 
HETATM   12  C   UNK N   1      35.505  12.640  15.021  0.00  0.00     0.290 A 
HETATM   13  C   UNK N   1      36.806  14.640  15.215  0.00  0.00     0.680 A 
HETATM   14  H   UNK N   1      37.024  15.708  13.468  0.00  0.00     0.186 HD
HETATM   15  H   UNK N   1      37.963  16.325  15.611  0.00  0.00     0.174 HD
HETATM   16  H   UNK N   1      37.689  15.332  16.969  0.00  0.00     0.174 HD
ENDROOT
BRANCH   2  17
HETATM   17  C   UNK N   1      36.004  15.130  10.893  0.00  0.00     0.301 C 
BRANCH  17  18
HETATM   18  O   UNK N   1      35.556  16.379  11.334  0.00  0.00    -0.369 OA
BRANCH  18  19
HETATM   19  C   UNK N   1      35.336  17.147  10.191  0.00  0.00     0.196 C 
BRANCH  19  20
HETATM   20  C   UNK N   1      34.297  16.429   9.353  0.00  0.00     0.205 C 
BRANCH  20  21
HETATM   21  O   UNK N   1      33.435  17.314   8.745  0.00  0.00    -0.318 OA
BRANCH  21  22
HETATM   22  C   UNK N   1      33.643  17.728   7.466  0.00  0.00     0.281 C 
HETATM   23  O   UNK N   1      34.652  18.361   7.186  0.00  0.00    -0.263 OA
BRANCH  22  24
HETATM   24  C   UNK N   1      32.584  17.504   6.409  0.00  0.00     0.178 C 
BRANCH  24  25
HETATM   25  N   UNK N   1      31.748  16.369   6.779  0.00  0.00    -0.418 N 
HETATM   26  H   UNK N   1      31.265  16.337   7.676  0.00  0.00     0.150 HD
HETATM   27  H   UNK N   1      31.645  15.591   6.128  0.00  0.00     0.150 HD
ENDBRANCH  24  25
BRANCH  24  28
HETATM   28  C   UNK N   1      33.142  17.314   4.988  0.00  0.00     0.009 C 
HETATM   29  C   UNK N   1      32.024  17.329   3.956  0.00  0.00     0.012 C 
HETATM   30  C   UNK N   1      33.832  15.966   4.871  0.00  0.00     0.012 C 
ENDBRANCH  24  28
ENDBRANCH  22  24
ENDBRANCH  21  22
ENDBRANCH  20  21
ENDBRANCH  19  20
ENDBRANCH  18  19
ENDBRANCH  17  18
ENDBRANCH   2  17
TORSDOF 9
ENDMDL
MODEL 5
REMARK VINA RESULT:      -6.1      6.021      8.239
REMARK  9 active torsions:
REMARK  status: ('A' for Active; 'I' for Inactive)
REMARK    1  A    between atoms: O_1  and  C_17 
REMARK    2  A    between atoms: O_1  and  C_20 
REMARK    3  A    between atoms: O_2  and  C_19 
REMARK    4  A    between atoms: O_2  and  C_22 
REMARK    5  A    between atoms: N_5  and  C_19 
REMARK    6  A    between atoms: C_14  and  N_6 
REMARK       I    between atoms: N_12  and  C_25 
REMARK    7  A    between atoms: C_13  and  C_14 
REMARK    8  A    between atoms: C_14  and  C_17 
REMARK    9  A    between atoms: C_20  and  C_22 
ROOT
HETATM    1  O   UNK N   1      34.568  18.563   7.859  0.00  0.00    -0.265 OA
HETATM    2  N   UNK N   1      31.737  16.358   5.214  0.00  0.00    -0.305 N 
HETATM    3  N   UNK N   1      30.923  17.001   7.400  0.00  0.00    -0.174 N 
HETATM    4  N   UNK N   1      33.801  17.224   5.427  0.00  0.00    -0.345 N 
ATOM      5  HN  UNK N   1      34.763  17.498   5.230  1.00  0.00     0.167 HD
HETATM    6  N   UNK N   1      32.520  18.173   8.724  0.00  0.00    -0.154 N 
ATOM      7  HN  UNK N   1      32.761  18.641   9.597  1.00  0.00     0.187 HD
HETATM    8  N   UNK N   1      30.324  17.736   9.610  0.00  0.00    -0.234 N 
HETATM    9  C   UNK N   1      31.853  16.924   6.420  0.00  0.00     0.158 A 
HETATM   10  C   UNK N   1      33.092  17.443   6.548  0.00  0.00     0.147 A 
HETATM   11  C   UNK N   1      32.940  16.549   4.613  0.00  0.00     0.187 A 
HETATM   12  C   UNK N   1      33.456  18.086   7.718  0.00  0.00     0.290 A 
HETATM   13  C   UNK N   1      31.263  17.635   8.567  0.00  0.00     0.680 A 
HETATM   14  H   UNK N   1      30.026  16.612   7.277  0.00  0.00     0.186 HD
HETATM   15  H   UNK N   1      29.424  17.353   9.500  0.00  0.00     0.174 HD
HETATM   16  H   UNK N   1      30.567  18.190  10.449  0.00  0.00     0.174 HD
ENDROOT
BRANCH   2  17
HETATM   17  C   UNK N   1      30.566  15.682   4.660  0.00  0.00     0.301 C 
BRANCH  17  18
HETATM   18  O   UNK N   1      29.872  15.028   5.683  0.00  0.00    -0.369 OA
BRANCH  18  19
HETATM   19  C   UNK N   1      28.644  14.644   5.145  0.00  0.00     0.196 C 
BRANCH  19  20
HETATM   20  C   UNK N   1      27.692  15.812   5.305  0.00  0.00     0.205 C 
BRANCH  20  21
HETATM   21  O   UNK N   1      27.950  16.524   6.455  0.00  0.00    -0.318 OA
BRANCH  21  22
HETATM   22  C   UNK N   1      27.888  17.883   6.467  0.00  0.00     0.281 C 
HETATM   23  O   UNK N   1      28.101  18.494   7.506  0.00  0.00    -0.263 OA
BRANCH  22  24
HETATM   24  C   UNK N   1      27.454  18.639   5.231  0.00  0.00     0.178 C 
BRANCH  24  25
HETATM   25  N   UNK N   1      28.624  19.147   4.526  0.00  0.00    -0.418 N 
HETATM   26  H   UNK N   1      28.531  19.728   3.694  0.00  0.00     0.150 HD
HETATM   27  H   UNK N   1      29.555  18.915   4.872  0.00  0.00     0.150 HD
ENDBRANCH  24  25
BRANCH  24  28
HETATM   28  C   UNK N   1      26.461  19.781   5.507  0.00  0.00     0.009 C 
HETATM   29  C   UNK N   1      25.398  19.855   4.422  0.00  0.00     0.012 C 
HETATM   30  C   UNK N   1      27.185  21.117   5.508  0.00  0.00     0.012 C 
ENDBRANCH  24  28
ENDBRANCH  22  24
ENDBRANCH  21  22
ENDBRANCH  20  21
ENDBRANCH  19  20
ENDBRANCH  18  19
ENDBRANCH  17  18
ENDBRANCH   2  17
TORSDOF 9
ENDMDL
MODEL 6
REMARK VINA RESULT:      -6.0     14.159     15.896
REMARK  9 active torsions:
REMARK  status: ('A' for Active; 'I' for Inactive)
REMARK    1  A    between atoms: O_1  and  C_17 
REMARK    2  A    between atoms: O_1  and  C_20 
REMARK    3  A    between atoms: O_2  and  C_19 
REMARK    4  A    between atoms: O_2  and  C_22 
REMARK    5  A    between atoms: N_5  and  C_19 
REMARK    6  A    between atoms: C_14  and  N_6 
REMARK       I    between atoms: N_12  and  C_25 
REMARK    7  A    between atoms: C_13  and  C_14 
REMARK    8  A    between atoms: C_14  and  C_17 
REMARK    9  A    between atoms: C_20  and  C_22 
ROOT
HETATM    1  O   UNK N   1      20.004  13.817   9.381  0.00  0.00    -0.265 OA
HETATM    2  N   UNK N   1      21.709  16.855   6.599  0.00  0.00    -0.305 N 
HETATM    3  N   UNK N   1      19.832  17.544   7.961  0.00  0.00    -0.174 N 
HETATM    4  N   UNK N   1      21.844  14.747   7.370  0.00  0.00    -0.345 N 
ATOM      5  HN  UNK N   1      22.145  13.783   7.511  1.00  0.00     0.167 HD
HETATM    6  N   UNK N   1      19.006  15.841   9.408  0.00  0.00    -0.154 N 
ATOM      7  HN  UNK N   1      18.340  15.542  10.121  1.00  0.00     0.187 HD
HETATM    8  N   UNK N   1      17.968  18.014   9.407  0.00  0.00    -0.234 N 
HETATM    9  C   UNK N   1      20.757  16.661   7.519  0.00  0.00     0.158 A 
HETATM   10  C   UNK N   1      20.838  15.397   7.981  0.00  0.00     0.147 A 
HETATM   11  C   UNK N   1      22.371  15.672   6.517  0.00  0.00     0.187 A 
HETATM   12  C   UNK N   1      19.952  14.954   8.948  0.00  0.00     0.290 A 
HETATM   13  C   UNK N   1      18.945  17.126   8.920  0.00  0.00     0.680 A 
HETATM   14  H   UNK N   1      19.797  18.462   7.605  0.00  0.00     0.186 HD
HETATM   15  H   UNK N   1      17.923  18.934   9.060  0.00  0.00     0.174 HD
HETATM   16  H   UNK N   1      17.330  17.715  10.094  0.00  0.00     0.174 HD
ENDROOT
BRANCH   2  17
HETATM   17  C   UNK N   1      21.980  18.078   5.847  0.00  0.00     0.301 C 
BRANCH  17  18
HETATM   18  O   UNK N   1      21.682  17.876   4.496  0.00  0.00    -0.369 OA
BRANCH  18  19
HETATM   19  C   UNK N   1      20.983  19.005   4.072  0.00  0.00     0.196 C 
BRANCH  19  20
HETATM   20  C   UNK N   1      21.031  19.030   2.557  0.00  0.00     0.205 C 
BRANCH  20  21
HETATM   21  O   UNK N   1      19.982  18.332   2.004  0.00  0.00    -0.318 OA
BRANCH  21  22
HETATM   22  C   UNK N   1      20.201  17.270   1.182  0.00  0.00     0.281 C 
HETATM   23  O   UNK N   1      20.376  17.451  -0.015  0.00  0.00    -0.263 OA
BRANCH  22  24
HETATM   24  C   UNK N   1      20.122  15.859   1.721  0.00  0.00     0.178 C 
BRANCH  24  25
HETATM   25  N   UNK N   1      19.627  15.880   3.091  0.00  0.00    -0.418 N 
HETATM   26  H   UNK N   1      20.216  15.594   3.873  0.00  0.00     0.150 HD
HETATM   27  H   UNK N   1      18.672  16.187   3.272  0.00  0.00     0.150 HD
ENDBRANCH  24  25
BRANCH  24  28
HETATM   28  C   UNK N   1      21.447  15.080   1.645  0.00  0.00     0.009 C 
HETATM   29  C   UNK N   1      21.312  13.858   0.750  0.00  0.00     0.012 C 
HETATM   30  C   UNK N   1      21.840  14.577   3.023  0.00  0.00     0.012 C 
ENDBRANCH  24  28
ENDBRANCH  22  24
ENDBRANCH  21  22
ENDBRANCH  20  21
ENDBRANCH  19  20
ENDBRANCH  18  19
ENDBRANCH  17  18
ENDBRANCH   2  17
TORSDOF 9
ENDMDL
MODEL 7
REMARK VINA RESULT:      -6.0     11.282     13.292
REMARK  9 active torsions:
REMARK  status: ('A' for Active; 'I' for Inactive)
REMARK    1  A    between atoms: O_1  and  C_17 
REMARK    2  A    between atoms: O_1  and  C_20 
REMARK    3  A    between atoms: O_2  and  C_19 
REMARK    4  A    between atoms: O_2  and  C_22 
REMARK    5  A    between atoms: N_5  and  C_19 
REMARK    6  A    between atoms: C_14  and  N_6 
REMARK       I    between atoms: N_12  and  C_25 
REMARK    7  A    between atoms: C_13  and  C_14 
REMARK    8  A    between atoms: C_14  and  C_17 
REMARK    9  A    between atoms: C_20  and  C_22 
ROOT
HETATM    1  O   UNK N   1      20.068  11.931  11.916  0.00  0.00    -0.265 OA
HETATM    2  N   UNK N   1      23.943  12.865   9.916  0.00  0.00    -0.305 N 
HETATM    3  N   UNK N   1      22.020  14.173   9.250  0.00  0.00    -0.174 N 
HETATM    4  N   UNK N   1      22.886  11.579  11.427  0.00  0.00    -0.345 N 
ATOM      5  HN  UNK N   1      22.698  10.875  12.141  1.00  0.00     0.167 HD
HETATM    6  N   UNK N   1      20.008  13.588  10.384  0.00  0.00    -0.154 N 
ATOM      7  HN  UNK N   1      19.010  13.738  10.534  1.00  0.00     0.187 HD
HETATM    8  N   UNK N   1      19.984  15.350   8.743  0.00  0.00    -0.234 N 
HETATM    9  C   UNK N   1      22.652  13.213   9.964  0.00  0.00     0.158 A 
HETATM   10  C   UNK N   1      22.018  12.442  10.871  0.00  0.00     0.147 A 
HETATM   11  C   UNK N   1      24.074  11.859  10.820  0.00  0.00     0.187 A 
HETATM   12  C   UNK N   1      20.664  12.615  11.103  0.00  0.00     0.290 A 
HETATM   13  C   UNK N   1      20.679  14.362   9.465  0.00  0.00     0.680 A 
HETATM   14  H   UNK N   1      22.510  14.722   8.594  0.00  0.00     0.186 HD
HETATM   15  H   UNK N   1      20.462  15.906   8.086  0.00  0.00     0.174 HD
HETATM   16  H   UNK N   1      19.022  15.486   8.895  0.00  0.00     0.174 HD
ENDROOT
BRANCH   2  17
HETATM   17  C   UNK N   1      24.987  13.442   9.073  0.00  0.00     0.301 C 
BRANCH  17  18
HETATM   18  O   UNK N   1      24.633  13.313   7.727  0.00  0.00    -0.369 OA
BRANCH  18  19
HETATM   19  C   UNK N   1      24.905  14.541   7.126  0.00  0.00     0.196 C 
BRANCH  19  20
HETATM   20  C   UNK N   1      23.737  14.875   6.220  0.00  0.00     0.205 C 
BRANCH  20  21
HETATM   21  O   UNK N   1      22.773  15.602   6.880  0.00  0.00    -0.318 OA
BRANCH  21  22
HETATM   22  C   UNK N   1      22.213  16.704   6.312  0.00  0.00     0.281 C 
HETATM   23  O   UNK N   1      21.432  17.392   6.955  0.00  0.00    -0.263 OA
BRANCH  22  24
HETATM   24  C   UNK N   1      22.468  17.025   4.856  0.00  0.00     0.178 C 
BRANCH  24  25
HETATM   25  N   UNK N   1      23.070  18.347   4.740  0.00  0.00    -0.418 N 
HETATM   26  H   UNK N   1      23.270  18.913   5.564  0.00  0.00     0.150 HD
HETATM   27  H   UNK N   1      23.297  18.713   3.815  0.00  0.00     0.150 HD
ENDBRANCH  24  25
BRANCH  24  28
HETATM   28  C   UNK N   1      21.220  16.928   3.961  0.00  0.00     0.009 C 
HETATM   29  C   UNK N   1      21.489  16.058   2.743  0.00  0.00     0.012 C 
HETATM   30  C   UNK N   1      20.836  18.304   3.445  0.00  0.00     0.012 C 
ENDBRANCH  24  28
ENDBRANCH  22  24
ENDBRANCH  21  22
ENDBRANCH  20  21
ENDBRANCH  19  20
ENDBRANCH  18  19
ENDBRANCH  17  18
ENDBRANCH   2  17
TORSDOF 9
ENDMDL
MODEL 8
REMARK VINA RESULT:      -6.0     13.572     17.013
REMARK  9 active torsions:
REMARK  status: ('A' for Active; 'I' for Inactive)
REMARK    1  A    between atoms: O_1  and  C_17 
REMARK    2  A    between atoms: O_1  and  C_20 
REMARK    3  A    between atoms: O_2  and  C_19 
REMARK    4  A    between atoms: O_2  and  C_22 
REMARK    5  A    between atoms: N_5  and  C_19 
REMARK    6  A    between atoms: C_14  and  N_6 
REMARK       I    between atoms: N_12  and  C_25 
REMARK    7  A    between atoms: C_13  and  C_14 
REMARK    8  A    between atoms: C_14  and  C_17 
REMARK    9  A    between atoms: C_20  and  C_22 
ROOT
HETATM    1  O   UNK N   1      20.086  17.029   0.433  0.00  0.00    -0.265 OA
HETATM    2  N   UNK N   1      20.998  17.655   4.752  0.00  0.00    -0.305 N 
HETATM    3  N   UNK N   1      20.865  19.630   3.361  0.00  0.00    -0.174 N 
HETATM    4  N   UNK N   1      20.562  16.154   3.136  0.00  0.00    -0.345 N 
ATOM      5  HN  UNK N   1      20.399  15.274   2.647  1.00  0.00     0.167 HD
HETATM    6  N   UNK N   1      20.373  19.174   1.074  0.00  0.00    -0.154 N 
ATOM      7  HN  UNK N   1      20.208  19.516   0.127  1.00  0.00     0.187 HD
HETATM    8  N   UNK N   1      20.686  21.450   1.798  0.00  0.00    -0.234 N 
HETATM    9  C   UNK N   1      20.814  18.298   3.594  0.00  0.00     0.158 A 
HETATM   10  C   UNK N   1      20.552  17.397   2.624  0.00  0.00     0.147 A 
HETATM   11  C   UNK N   1      20.840  16.339   4.458  0.00  0.00     0.187 A 
HETATM   12  C   UNK N   1      20.324  17.822   1.327  0.00  0.00     0.290 A 
HETATM   13  C   UNK N   1      20.641  20.072   2.082  0.00  0.00     0.680 A 
HETATM   14  H   UNK N   1      21.058  20.264   4.089  0.00  0.00     0.186 HD
HETATM   15  H   UNK N   1      20.877  22.094   2.517  0.00  0.00     0.174 HD
HETATM   16  H   UNK N   1      20.526  21.769   0.881  0.00  0.00     0.174 HD
ENDROOT
BRANCH   2  17
HETATM   17  C   UNK N   1      21.301  18.243   6.055  0.00  0.00     0.301 C 
BRANCH  17  18
HETATM   18  O   UNK N   1      21.130  17.283   7.057  0.00  0.00    -0.369 OA
BRANCH  18  19
HETATM   19  C   UNK N   1      20.227  17.824   7.972  0.00  0.00     0.196 C 
BRANCH  19  20
HETATM   20  C   UNK N   1      19.458  16.672   8.588  0.00  0.00     0.205 C 
BRANCH  20  21
HETATM   21  O   UNK N   1      19.862  15.460   8.077  0.00  0.00    -0.318 OA
BRANCH  21  22
HETATM   22  C   UNK N   1      20.298  14.464   8.894  0.00  0.00     0.281 C 
HETATM   23  O   UNK N   1      19.578  14.055   9.794  0.00  0.00    -0.263 OA
BRANCH  22  24
HETATM   24  C   UNK N   1      21.709  13.933   8.766  0.00  0.00     0.178 C 
BRANCH  24  25
HETATM   25  N   UNK N   1      22.393  14.608   7.672  0.00  0.00    -0.418 N 
HETATM   26  H   UNK N   1      22.179  15.575   7.428  0.00  0.00     0.150 HD
HETATM   27  H   UNK N   1      23.101  14.104   7.138  0.00  0.00     0.150 HD
ENDBRANCH  24  25
BRANCH  24  28
HETATM   28  C   UNK N   1      21.795  12.407   8.587  0.00  0.00     0.009 C 
HETATM   29  C   UNK N   1      23.203  11.903   8.860  0.00  0.00     0.012 C 
HETATM   30  C   UNK N   1      21.459  12.027   7.155  0.00  0.00     0.012 C 
ENDBRANCH  24  28
ENDBRANCH  22  24
ENDBRANCH  21  22
ENDBRANCH  20  21
ENDBRANCH  19  20
ENDBRANCH  18  19
ENDBRANCH  17  18
ENDBRANCH   2  17
TORSDOF 9
ENDMDL
MODEL 9
REMARK VINA RESULT:      -6.0      2.355      7.553
REMARK  9 active torsions:
REMARK  status: ('A' for Active; 'I' for Inactive)
REMARK    1  A    between atoms: O_1  and  C_17 
REMARK    2  A    between atoms: O_1  and  C_20 
REMARK    3  A    between atoms: O_2  and  C_19 
REMARK    4  A    between atoms: O_2  and  C_22 
REMARK    5  A    between atoms: N_5  and  C_19 
REMARK    6  A    between atoms: C_14  and  N_6 
REMARK       I    between atoms: N_12  and  C_25 
REMARK    7  A    between atoms: C_13  and  C_14 
REMARK    8  A    between atoms: C_14  and  C_17 
REMARK    9  A    between atoms: C_20  and  C_22 
ROOT
HETATM    1  O   UNK N   1      29.319  16.791   5.813  0.00  0.00    -0.265 OA
HETATM    2  N   UNK N   1      33.456  17.475   7.327  0.00  0.00    -0.305 N 
HETATM    3  N   UNK N   1      31.636  17.970   8.842  0.00  0.00    -0.174 N 
HETATM    4  N   UNK N   1      32.191  16.801   5.595  0.00  0.00    -0.345 N 
ATOM      5  HN  UNK N   1      31.905  16.457   4.678  1.00  0.00     0.167 HD
HETATM    6  N   UNK N   1      29.474  17.567   7.927  0.00  0.00    -0.154 N 
ATOM      7  HN  UNK N   1      28.460  17.574   8.036  1.00  0.00     0.187 HD
HETATM    8  N   UNK N   1      29.682  18.395  10.178  0.00  0.00    -0.234 N 
HETATM    9  C   UNK N   1      32.165  17.559   7.667  0.00  0.00     0.158 A 
HETATM   10  C   UNK N   1      31.406  17.154   6.628  0.00  0.00     0.147 A 
HETATM   11  C   UNK N   1      33.460  17.008   6.052  0.00  0.00     0.187 A 
HETATM   12  C   UNK N   1      30.027  17.150   6.737  0.00  0.00     0.290 A 
HETATM   13  C   UNK N   1      30.271  17.973   8.972  0.00  0.00     0.680 A 
HETATM   14  H   UNK N   1      32.216  18.260   9.584  0.00  0.00     0.186 HD
HETATM   15  H   UNK N   1      30.250  18.685  10.928  0.00  0.00     0.174 HD
HETATM   16  H   UNK N   1      28.702  18.399  10.273  0.00  0.00     0.174 HD
ENDROOT
BRANCH   2  17
HETATM   17  C   UNK N   1      34.615  17.811   8.152  0.00  0.00     0.301 C 
BRANCH  17  18
HETATM   18  O   UNK N   1      34.351  17.493   9.488  0.00  0.00    -0.369 OA
BRANCH  18  19
HETATM   19  C   UNK N   1      34.997  16.284   9.742  0.00  0.00     0.196 C 
BRANCH  19  20
HETATM   20  C   UNK N   1      33.942  15.281  10.162  0.00  0.00     0.205 C 
BRANCH  20  21
HETATM   21  O   UNK N   1      34.454  14.006  10.239  0.00  0.00    -0.318 OA
BRANCH  21  22
HETATM   22  C   UNK N   1      35.120  13.583  11.347  0.00  0.00     0.281 C 
HETATM   23  O   UNK N   1      34.676  13.835  12.459  0.00  0.00    -0.263 OA
BRANCH  22  24
HETATM   24  C   UNK N   1      36.461  12.895  11.216  0.00  0.00     0.178 C 
BRANCH  24  25
HETATM   25  N   UNK N   1      37.396  13.448  12.188  0.00  0.00    -0.418 N 
HETATM   26  H   UNK N   1      38.110  14.122  11.913  0.00  0.00     0.150 HD
HETATM   27  H   UNK N   1      37.335  13.154  13.162  0.00  0.00     0.150 HD
ENDBRANCH  24  25
BRANCH  24  28
HETATM   28  C   UNK N   1      37.065  12.954   9.802  0.00  0.00     0.009 C 
HETATM   29  C   UNK N   1      37.524  11.577   9.347  0.00  0.00     0.012 C 
HETATM   30  C   UNK N   1      38.289  13.854   9.791  0.00  0.00     0.012 C 
ENDBRANCH  24  28
ENDBRANCH  22  24
ENDBRANCH  21  22
ENDBRANCH  20  21
ENDBRANCH  19  20
ENDBRANCH  18  19
ENDBRANCH  17  18
ENDBRANCH   2  17
TORSDOF 9
ENDMDL
