MODEL 1
REMARK VINA RESULT:      -7.1      0.000      0.000
REMARK  4 active torsions:
REMARK  status: ('A' for Active; 'I' for Inactive)
REMARK    1  A    between atoms: S_1  and  N_7 
REMARK    2  A    between atoms: S_1  and  C_12 
REMARK    3  A    between atoms: C_8  and  C_9 
REMARK    4  A    between atoms: C_10  and  C_15 
ROOT
HETATM    1  O   UNK N   1      28.465  18.041   6.899  0.00  0.00    -0.241 OA
HETATM    2  N   UNK N   1      28.985  17.579   5.801  0.00  0.00    -0.259 N 
ATOM      3  HN  UNK N   1      28.531  17.550   4.887  1.00  0.00     0.195 HD
HETATM    4  C   UNK N   1      30.461  17.336   7.447  0.00  0.00     0.035 A 
HETATM    5  C   UNK N   1      30.232  17.144   6.083  0.00  0.00     0.078 A 
HETATM    6  C   UNK N   1      29.305  17.937   7.907  0.00  0.00     0.086 A 
HETATM    7  C   UNK N   1      28.995  18.362   9.298  0.00  0.00     0.079 C 
ENDROOT
BRANCH   4   8
HETATM    8  C   UNK N   1      31.674  16.985   8.224  0.00  0.00    -0.021 A 
HETATM    9  C   UNK N   1      31.731  15.760   8.893  0.00  0.00     0.014 A 
HETATM   10  C   UNK N   1      32.902  15.328   9.498  0.00  0.00     0.026 A 
HETATM   11  C   UNK N   1      34.073  16.129   9.445  0.00  0.00     0.079 A 
HETATM   12  C   UNK N   1      33.986  17.393   8.840  0.00  0.00     0.026 A 
HETATM   13  C   UNK N   1      32.791  17.827   8.245  0.00  0.00     0.014 A 
BRANCH  11  14
HETATM   14  S   UNK N   1      35.732  15.594  10.062  0.00  0.00     0.256 S 
HETATM   15  O   UNK N   1      34.740  14.903  11.017  0.00  0.00    -0.201 OA
HETATM   16  O   UNK N   1      35.607  17.078  10.441  0.00  0.00    -0.201 OA
BRANCH  14  17
HETATM   17  N   UNK N   1      36.505  15.713  11.644  0.00  0.00    -0.324 N 
HETATM   18  H   UNK N   1      36.071  15.487  12.539  0.00  0.00     0.169 HD
HETATM   19  H   UNK N   1      37.472  16.037  11.665  0.00  0.00     0.169 HD
ENDBRANCH  14  17
ENDBRANCH  11  14
ENDBRANCH   4   8
BRANCH   5  20
HETATM   20  C   UNK N   1      31.176  16.673   5.031  0.00  0.00    -0.007 A 
HETATM   21  C   UNK N   1      31.873  17.601   4.245  0.00  0.00     0.014 A 
HETATM   22  C   UNK N   1      32.791  17.163   3.280  0.00  0.00     0.001 A 
HETATM   23  C   UNK N   1      33.033  15.797   3.106  0.00  0.00     0.000 A 
HETATM   24  C   UNK N   1      32.369  14.868   3.904  0.00  0.00     0.001 A 
HETATM   25  C   UNK N   1      31.457  15.309   4.861  0.00  0.00     0.014 A 
ENDBRANCH   5  20
TORSDOF 4
ENDMDL
MODEL 2
REMARK VINA RESULT:      -7.0      3.050      4.919
REMARK  4 active torsions:
REMARK  status: ('A' for Active; 'I' for Inactive)
REMARK    1  A    between atoms: S_1  and  N_7 
REMARK    2  A    between atoms: S_1  and  C_12 
REMARK    3  A    between atoms: C_8  and  C_9 
REMARK    4  A    between atoms: C_10  and  C_15 
ROOT
HETATM    1  O   UNK N   1      27.749  15.809   2.662  0.00  0.00    -0.241 OA
HETATM    2  N   UNK N   1      27.318  16.931   3.160  0.00  0.00    -0.259 N 
ATOM      3  HN  UNK N   1      26.451  17.406   2.907  1.00  0.00     0.195 HD
HETATM    4  C   UNK N   1      29.273  16.437   4.099  0.00  0.00     0.035 A 
HETATM    5  C   UNK N   1      28.220  17.355   4.071  0.00  0.00     0.078 A 
HETATM    6  C   UNK N   1      28.899  15.460   3.197  0.00  0.00     0.086 A 
HETATM    7  C   UNK N   1      29.655  14.236   2.820  0.00  0.00     0.079 C 
ENDROOT
BRANCH   4   8
HETATM    8  C   UNK N   1      30.506  16.493   4.920  0.00  0.00    -0.021 A 
HETATM    9  C   UNK N   1      31.585  17.269   4.488  0.00  0.00     0.014 A 
HETATM   10  C   UNK N   1      32.690  17.472   5.299  0.00  0.00     0.026 A 
HETATM   11  C   UNK N   1      32.746  16.892   6.594  0.00  0.00     0.079 A 
HETATM   12  C   UNK N   1      31.694  16.050   6.990  0.00  0.00     0.026 A 
HETATM   13  C   UNK N   1      30.587  15.838   6.154  0.00  0.00     0.014 A 
BRANCH  11  14
HETATM   14  S   UNK N   1      34.081  17.223   7.830  0.00  0.00     0.256 S 
HETATM   15  O   UNK N   1      32.876  18.020   8.363  0.00  0.00    -0.201 OA
HETATM   16  O   UNK N   1      34.484  17.999   6.566  0.00  0.00    -0.201 OA
BRANCH  14  17
HETATM   17  N   UNK N   1      34.792  18.719   8.437  0.00  0.00    -0.324 N 
HETATM   18  H   UNK N   1      35.123  18.879   9.389  0.00  0.00     0.169 HD
HETATM   19  H   UNK N   1      34.878  19.493   7.779  0.00  0.00     0.169 HD
ENDBRANCH  14  17
ENDBRANCH  11  14
ENDBRANCH   4   8
BRANCH   5  20
HETATM   20  C   UNK N   1      27.987  18.541   4.942  0.00  0.00    -0.007 A 
HETATM   21  C   UNK N   1      27.576  19.757   4.378  0.00  0.00     0.014 A 
HETATM   22  C   UNK N   1      27.318  20.865   5.198  0.00  0.00     0.001 A 
HETATM   23  C   UNK N   1      27.451  20.761   6.585  0.00  0.00     0.000 A 
HETATM   24  C   UNK N   1      27.828  19.549   7.158  0.00  0.00     0.001 A 
HETATM   25  C   UNK N   1      28.084  18.450   6.338  0.00  0.00     0.014 A 
ENDBRANCH   5  20
TORSDOF 4
ENDMDL
MODEL 3
REMARK VINA RESULT:      -6.7     13.186     15.521
REMARK  4 active torsions:
REMARK  status: ('A' for Active; 'I' for Inactive)
REMARK    1  A    between atoms: S_1  and  N_7 
REMARK    2  A    between atoms: S_1  and  C_12 
REMARK    3  A    between atoms: C_8  and  C_9 
REMARK    4  A    between atoms: C_10  and  C_15 
ROOT
HETATM    1  O   UNK N   1      25.096  27.730  -4.672  0.00  0.00    -0.241 OA
HETATM    2  N   UNK N   1      24.788  26.826  -5.555  0.00  0.00    -0.259 N 
ATOM      3  HN  UNK N   1      23.968  26.834  -6.162  1.00  0.00     0.195 HD
HETATM    4  C   UNK N   1      26.674  26.221  -4.542  0.00  0.00     0.035 A 
HETATM    5  C   UNK N   1      25.746  25.874  -5.527  0.00  0.00     0.078 A 
HETATM    6  C   UNK N   1      26.217  27.429  -4.052  0.00  0.00     0.086 A 
HETATM    7  C   UNK N   1      26.821  28.258  -2.974  0.00  0.00     0.079 C 
ENDROOT
BRANCH   4   8
HETATM    8  C   UNK N   1      27.881  25.468  -4.124  0.00  0.00    -0.021 A 
HETATM    9  C   UNK N   1      27.742  24.341  -3.311  0.00  0.00     0.014 A 
HETATM   10  C   UNK N   1      28.825  23.524  -3.029  0.00  0.00     0.026 A 
HETATM   11  C   UNK N   1      30.105  23.818  -3.568  0.00  0.00     0.079 A 
HETATM   12  C   UNK N   1      30.254  24.996  -4.319  0.00  0.00     0.026 A 
HETATM   13  C   UNK N   1      29.153  25.825  -4.585  0.00  0.00     0.014 A 
BRANCH  11  14
HETATM   14  S   UNK N   1      31.584  22.721  -3.406  0.00  0.00     0.256 S 
HETATM   15  O   UNK N   1      30.643  21.939  -4.342  0.00  0.00    -0.201 OA
HETATM   16  O   UNK N   1      30.866  22.653  -2.049  0.00  0.00    -0.201 OA
BRANCH  14  17
HETATM   17  N   UNK N   1      31.766  21.042  -2.893  0.00  0.00    -0.324 N 
HETATM   18  H   UNK N   1      31.620  20.688  -1.948  0.00  0.00     0.169 HD
HETATM   19  H   UNK N   1      32.043  20.367  -3.605  0.00  0.00     0.169 HD
ENDBRANCH  14  17
ENDBRANCH  11  14
ENDBRANCH   4   8
BRANCH   5  20
HETATM   20  C   UNK N   1      25.791  24.750  -6.503  0.00  0.00    -0.007 A 
HETATM   21  C   UNK N   1      25.716  23.424  -6.053  0.00  0.00     0.014 A 
HETATM   22  C   UNK N   1      25.720  22.365  -6.971  0.00  0.00     0.001 A 
HETATM   23  C   UNK N   1      25.779  22.622  -8.344  0.00  0.00     0.000 A 
HETATM   24  C   UNK N   1      25.822  23.936  -8.802  0.00  0.00     0.001 A 
HETATM   25  C   UNK N   1      25.819  24.986  -7.885  0.00  0.00     0.014 A 
ENDBRANCH   5  20
TORSDOF 4
ENDMDL
MODEL 4
REMARK VINA RESULT:      -6.5     14.748     17.591
REMARK  4 active torsions:
REMARK  status: ('A' for Active; 'I' for Inactive)
REMARK    1  A    between atoms: S_1  and  N_7 
REMARK    2  A    between atoms: S_1  and  C_12 
REMARK    3  A    between atoms: C_8  and  C_9 
REMARK    4  A    between atoms: C_10  and  C_15 
ROOT
HETATM    1  O   UNK N   1      26.262  23.855  -8.603  0.00  0.00    -0.241 OA
HETATM    2  N   UNK N   1      26.741  23.255  -7.552  0.00  0.00    -0.259 N 
ATOM      3  HN  UNK N   1      26.965  22.263  -7.477  1.00  0.00     0.195 HD
HETATM    4  C   UNK N   1      26.444  25.407  -7.073  0.00  0.00     0.035 A 
HETATM    5  C   UNK N   1      26.889  24.180  -6.578  0.00  0.00     0.078 A 
HETATM    6  C   UNK N   1      26.082  25.139  -8.379  0.00  0.00     0.086 A 
HETATM    7  C   UNK N   1      25.530  26.090  -9.381  0.00  0.00     0.079 C 
ENDROOT
BRANCH   4   8
HETATM    8  C   UNK N   1      26.385  26.707  -6.362  0.00  0.00    -0.021 A 
HETATM    9  C   UNK N   1      25.357  26.942  -5.445  0.00  0.00     0.014 A 
HETATM   10  C   UNK N   1      25.356  28.076  -4.648  0.00  0.00     0.026 A 
HETATM   11  C   UNK N   1      26.407  29.025  -4.748  0.00  0.00     0.079 A 
HETATM   12  C   UNK N   1      27.394  28.821  -5.727  0.00  0.00     0.026 A 
HETATM   13  C   UNK N   1      27.377  27.678  -6.540  0.00  0.00     0.014 A 
BRANCH  11  14
HETATM   14  S   UNK N   1      26.607  30.484  -3.631  0.00  0.00     0.256 S 
HETATM   15  O   UNK N   1      27.915  30.458  -4.444  0.00  0.00    -0.201 OA
HETATM   16  O   UNK N   1      26.731  29.248  -2.726  0.00  0.00    -0.201 OA
BRANCH  14  17
HETATM   17  N   UNK N   1      27.851  30.919  -2.457  0.00  0.00    -0.324 N 
HETATM   18  H   UNK N   1      27.759  31.621  -1.723  0.00  0.00     0.169 HD
HETATM   19  H   UNK N   1      28.740  30.424  -2.518  0.00  0.00     0.169 HD
ENDBRANCH  14  17
ENDBRANCH  11  14
ENDBRANCH   4   8
BRANCH   5  20
HETATM   20  C   UNK N   1      27.543  23.875  -5.275  0.00  0.00    -0.007 A 
HETATM   21  C   UNK N   1      28.868  23.420  -5.242  0.00  0.00     0.014 A 
HETATM   22  C   UNK N   1      29.500  23.169  -4.016  0.00  0.00     0.001 A 
HETATM   23  C   UNK N   1      28.819  23.388  -2.815  0.00  0.00     0.000 A 
HETATM   24  C   UNK N   1      27.512  23.870  -2.836  0.00  0.00     0.001 A 
HETATM   25  C   UNK N   1      26.889  24.118  -4.058  0.00  0.00     0.014 A 
ENDBRANCH   5  20
TORSDOF 4
ENDMDL
MODEL 5
REMARK VINA RESULT:      -6.5      1.620      3.943
REMARK  4 active torsions:
REMARK  status: ('A' for Active; 'I' for Inactive)
REMARK    1  A    between atoms: S_1  and  N_7 
REMARK    2  A    between atoms: S_1  and  C_12 
REMARK    3  A    between atoms: C_8  and  C_9 
REMARK    4  A    between atoms: C_10  and  C_15 
ROOT
HETATM    1  O   UNK N   1      31.711  16.833   4.294  0.00  0.00    -0.241 OA
HETATM    2  N   UNK N   1      30.743  17.339   5.000  0.00  0.00    -0.259 N 
ATOM      3  HN  UNK N   1      29.908  17.796   4.633  1.00  0.00     0.195 HD
HETATM    4  C   UNK N   1      32.278  16.513   6.382  0.00  0.00     0.035 A 
HETATM    5  C   UNK N   1      31.038  17.151   6.305  0.00  0.00     0.078 A 
HETATM    6  C   UNK N   1      32.643  16.313   5.064  0.00  0.00     0.086 A 
HETATM    7  C   UNK N   1      33.886  15.676   4.554  0.00  0.00     0.079 C 
ENDROOT
BRANCH   4   8
HETATM    8  C   UNK N   1      33.028  16.128   7.601  0.00  0.00    -0.021 A 
HETATM    9  C   UNK N   1      32.766  14.898   8.209  0.00  0.00     0.014 A 
HETATM   10  C   UNK N   1      33.551  14.434   9.253  0.00  0.00     0.026 A 
HETATM   11  C   UNK N   1      34.646  15.205   9.725  0.00  0.00     0.079 A 
HETATM   12  C   UNK N   1      34.855  16.475   9.162  0.00  0.00     0.026 A 
HETATM   13  C   UNK N   1      34.043  16.942   8.117  0.00  0.00     0.014 A 
BRANCH  11  14
HETATM   14  S   UNK N   1      35.864  14.626  10.990  0.00  0.00     0.256 S 
HETATM   15  O   UNK N   1      34.537  14.715  11.766  0.00  0.00    -0.201 OA
HETATM   16  O   UNK N   1      36.213  16.098  10.721  0.00  0.00    -0.201 OA
BRANCH  14  17
HETATM   17  N   UNK N   1      36.332  15.263  12.567  0.00  0.00    -0.324 N 
HETATM   18  H   UNK N   1      36.013  14.914  13.470  0.00  0.00     0.169 HD
HETATM   19  H   UNK N   1      36.979  16.051  12.575  0.00  0.00     0.169 HD
ENDBRANCH  14  17
ENDBRANCH  11  14
ENDBRANCH   4   8
BRANCH   5  20
HETATM   20  C   UNK N   1      30.085  17.484   7.400  0.00  0.00    -0.007 A 
HETATM   21  C   UNK N   1      28.766  17.012   7.353  0.00  0.00     0.014 A 
HETATM   22  C   UNK N   1      27.877  17.291   8.400  0.00  0.00     0.001 A 
HETATM   23  C   UNK N   1      28.304  18.026   9.510  0.00  0.00     0.000 A 
HETATM   24  C   UNK N   1      29.621  18.473   9.581  0.00  0.00     0.001 A 
HETATM   25  C   UNK N   1      30.501  18.193   8.537  0.00  0.00     0.014 A 
ENDBRANCH   5  20
TORSDOF 4
ENDMDL
MODEL 6
REMARK VINA RESULT:      -6.4     13.523     16.113
REMARK  4 active torsions:
REMARK  status: ('A' for Active; 'I' for Inactive)
REMARK    1  A    between atoms: S_1  and  N_7 
REMARK    2  A    between atoms: S_1  and  C_12 
REMARK    3  A    between atoms: C_8  and  C_9 
REMARK    4  A    between atoms: C_10  and  C_15 
ROOT
HETATM    1  O   UNK N   1      25.167  23.961  -8.039  0.00  0.00    -0.241 OA
HETATM    2  N   UNK N   1      25.220  25.226  -7.743  0.00  0.00    -0.259 N 
ATOM      3  HN  UNK N   1      24.629  25.960  -8.133  1.00  0.00     0.195 HD
HETATM    4  C   UNK N   1      26.784  24.154  -6.581  0.00  0.00     0.035 A 
HETATM    5  C   UNK N   1      26.198  25.397  -6.827  0.00  0.00     0.078 A 
HETATM    6  C   UNK N   1      26.064  23.274  -7.365  0.00  0.00     0.086 A 
HETATM    7  C   UNK N   1      26.262  21.806  -7.499  0.00  0.00     0.079 C 
ENDROOT
BRANCH   4   8
HETATM    8  C   UNK N   1      27.916  23.845  -5.674  0.00  0.00    -0.021 A 
HETATM    9  C   UNK N   1      27.774  24.056  -4.301  0.00  0.00     0.014 A 
HETATM   10  C   UNK N   1      28.747  23.635  -3.408  0.00  0.00     0.026 A 
HETATM   11  C   UNK N   1      29.914  22.975  -3.876  0.00  0.00     0.079 A 
HETATM   12  C   UNK N   1      30.086  22.838  -5.263  0.00  0.00     0.026 A 
HETATM   13  C   UNK N   1      29.102  23.282  -6.160  0.00  0.00     0.014 A 
BRANCH  11  14
HETATM   14  S   UNK N   1      31.198  22.220  -2.781  0.00  0.00     0.256 S 
HETATM   15  O   UNK N   1      32.007  22.803  -3.954  0.00  0.00    -0.201 OA
HETATM   16  O   UNK N   1      30.452  21.039  -3.422  0.00  0.00    -0.201 OA
BRANCH  14  17
HETATM   17  N   UNK N   1      32.451  21.014  -3.078  0.00  0.00    -0.324 N 
HETATM   18  H   UNK N   1      32.785  20.323  -2.406  0.00  0.00     0.169 HD
HETATM   19  H   UNK N   1      32.880  21.008  -4.003  0.00  0.00     0.169 HD
ENDBRANCH  14  17
ENDBRANCH  11  14
ENDBRANCH   4   8
BRANCH   5  20
HETATM   20  C   UNK N   1      26.451  26.702  -6.156  0.00  0.00    -0.007 A 
HETATM   21  C   UNK N   1      27.383  27.601  -6.693  0.00  0.00     0.014 A 
HETATM   22  C   UNK N   1      27.597  28.846  -6.086  0.00  0.00     0.001 A 
HETATM   23  C   UNK N   1      26.867  29.211  -4.950  0.00  0.00     0.000 A 
HETATM   24  C   UNK N   1      25.916  28.338  -4.427  0.00  0.00     0.001 A 
HETATM   25  C   UNK N   1      25.709  27.100  -5.034  0.00  0.00     0.014 A 
ENDBRANCH   5  20
TORSDOF 4
ENDMDL
MODEL 7
REMARK VINA RESULT:      -6.4     11.146     12.692
REMARK  4 active torsions:
REMARK  status: ('A' for Active; 'I' for Inactive)
REMARK    1  A    between atoms: S_1  and  N_7 
REMARK    2  A    between atoms: S_1  and  C_12 
REMARK    3  A    between atoms: C_8  and  C_9 
REMARK    4  A    between atoms: C_10  and  C_15 
ROOT
HETATM    1  O   UNK N   1      20.365  19.021   0.598  0.00  0.00    -0.241 OA
HETATM    2  N   UNK N   1      20.199  17.813   0.146  0.00  0.00    -0.259 N 
ATOM      3  HN  UNK N   1      20.027  17.554  -0.826  1.00  0.00     0.195 HD
HETATM    4  C   UNK N   1      20.509  17.715   2.346  0.00  0.00     0.035 A 
HETATM    5  C   UNK N   1      20.297  16.961   1.190  0.00  0.00     0.078 A 
HETATM    6  C   UNK N   1      20.569  19.020   1.898  0.00  0.00     0.086 A 
HETATM    7  C   UNK N   1      20.773  20.250   2.710  0.00  0.00     0.079 C 
ENDROOT
BRANCH   4   8
HETATM    8  C   UNK N   1      20.649  17.225   3.738  0.00  0.00    -0.021 A 
HETATM    9  C   UNK N   1      19.557  16.621   4.368  0.00  0.00     0.014 A 
HETATM   10  C   UNK N   1      19.692  16.011   5.605  0.00  0.00     0.026 A 
HETATM   11  C   UNK N   1      20.952  15.987   6.260  0.00  0.00     0.079 A 
HETATM   12  C   UNK N   1      22.025  16.665   5.658  0.00  0.00     0.026 A 
HETATM   13  C   UNK N   1      21.873  17.293   4.412  0.00  0.00     0.014 A 
BRANCH  11  14
HETATM   14  S   UNK N   1      21.298  15.066   7.825  0.00  0.00     0.256 S 
HETATM   15  O   UNK N   1      19.925  14.532   7.376  0.00  0.00    -0.201 OA
HETATM   16  O   UNK N   1      20.991  16.510   8.252  0.00  0.00    -0.201 OA
BRANCH  14  17
HETATM   17  N   UNK N   1      20.392  14.898   9.329  0.00  0.00    -0.324 N 
HETATM   18  H   UNK N   1      19.787  15.607   9.743  0.00  0.00     0.169 HD
HETATM   19  H   UNK N   1      20.480  14.013   9.828  0.00  0.00     0.169 HD
ENDBRANCH  14  17
ENDBRANCH  11  14
ENDBRANCH   4   8
BRANCH   5  20
HETATM   20  C   UNK N   1      20.295  15.481   1.022  0.00  0.00    -0.007 A 
HETATM   21  C   UNK N   1      19.107  14.812   0.698  0.00  0.00     0.014 A 
HETATM   22  C   UNK N   1      19.108  13.424   0.501  0.00  0.00     0.001 A 
HETATM   23  C   UNK N   1      20.298  12.698   0.609  0.00  0.00     0.000 A 
HETATM   24  C   UNK N   1      21.490  13.358   0.901  0.00  0.00     0.001 A 
HETATM   25  C   UNK N   1      21.483  14.738   1.096  0.00  0.00     0.014 A 
ENDBRANCH   5  20
TORSDOF 4
ENDMDL
MODEL 8
REMARK VINA RESULT:      -6.2      8.121     10.416
REMARK  4 active torsions:
REMARK  status: ('A' for Active; 'I' for Inactive)
REMARK    1  A    between atoms: S_1  and  N_7 
REMARK    2  A    between atoms: S_1  and  C_12 
REMARK    3  A    between atoms: C_8  and  C_9 
REMARK    4  A    between atoms: C_10  and  C_15 
ROOT
HETATM    1  O   UNK N   1      22.392  20.958   2.563  0.00  0.00    -0.241 OA
HETATM    2  N   UNK N   1      23.680  20.915   2.737  0.00  0.00    -0.259 N 
ATOM      3  HN  UNK N   1      24.358  21.586   2.375  1.00  0.00     0.195 HD
HETATM    4  C   UNK N   1      22.763  19.158   3.748  0.00  0.00     0.035 A 
HETATM    5  C   UNK N   1      23.962  19.824   3.482  0.00  0.00     0.078 A 
HETATM    6  C   UNK N   1      21.795  19.947   3.157  0.00  0.00     0.086 A 
HETATM    7  C   UNK N   1      20.327  19.709   3.123  0.00  0.00     0.079 C 
ENDROOT
BRANCH   4   8
HETATM    8  C   UNK N   1      22.572  17.897   4.503  0.00  0.00    -0.021 A 
HETATM    9  C   UNK N   1      22.206  17.951   5.851  0.00  0.00     0.014 A 
HETATM   10  C   UNK N   1      21.866  16.802   6.546  0.00  0.00     0.026 A 
HETATM   11  C   UNK N   1      21.881  15.539   5.897  0.00  0.00     0.079 A 
HETATM   12  C   UNK N   1      22.325  15.483   4.566  0.00  0.00     0.026 A 
HETATM   13  C   UNK N   1      22.683  16.651   3.876  0.00  0.00     0.014 A 
BRANCH  11  14
HETATM   14  S   UNK N   1      21.290  13.964   6.663  0.00  0.00     0.256 S 
HETATM   15  O   UNK N   1      20.129  14.949   6.898  0.00  0.00    -0.201 OA
HETATM   16  O   UNK N   1      22.392  14.491   7.596  0.00  0.00    -0.201 OA
BRANCH  14  17
HETATM   17  N   UNK N   1      20.718  13.574   8.287  0.00  0.00    -0.324 N 
HETATM   18  H   UNK N   1      20.114  12.791   8.534  0.00  0.00     0.169 HD
HETATM   19  H   UNK N   1      21.019  14.187   9.044  0.00  0.00     0.169 HD
ENDBRANCH  14  17
ENDBRANCH  11  14
ENDBRANCH   4   8
BRANCH   5  20
HETATM   20  C   UNK N   1      25.330  19.532   3.994  0.00  0.00    -0.007 A 
HETATM   21  C   UNK N   1      26.023  18.400   3.543  0.00  0.00     0.014 A 
HETATM   22  C   UNK N   1      27.325  18.142   3.992  0.00  0.00     0.001 A 
HETATM   23  C   UNK N   1      27.952  19.022   4.880  0.00  0.00     0.000 A 
HETATM   24  C   UNK N   1      27.284  20.167   5.309  0.00  0.00     0.001 A 
HETATM   25  C   UNK N   1      25.988  20.418   4.860  0.00  0.00     0.014 A 
ENDBRANCH   5  20
TORSDOF 4
ENDMDL
MODEL 9
REMARK VINA RESULT:      -6.2      4.288      6.567
REMARK  4 active torsions:
REMARK  status: ('A' for Active; 'I' for Inactive)
REMARK    1  A    between atoms: S_1  and  N_7 
REMARK    2  A    between atoms: S_1  and  C_12 
REMARK    3  A    between atoms: C_8  and  C_9 
REMARK    4  A    between atoms: C_10  and  C_15 
ROOT
HETATM    1  O   UNK N   1      30.744  13.036   5.239  0.00  0.00    -0.241 OA
HETATM    2  N   UNK N   1      31.624  13.695   5.934  0.00  0.00    -0.259 N 
ATOM      3  HN  UNK N   1      32.506  13.327   6.290  1.00  0.00     0.195 HD
HETATM    4  C   UNK N   1      29.912  15.044   5.486  0.00  0.00     0.035 A 
HETATM    5  C   UNK N   1      31.163  14.954   6.100  0.00  0.00     0.078 A 
HETATM    6  C   UNK N   1      29.713  13.794   4.931  0.00  0.00     0.086 A 
HETATM    7  C   UNK N   1      28.533  13.321   4.159  0.00  0.00     0.079 C 
ENDROOT
BRANCH   4   8
HETATM    8  C   UNK N   1      29.007  16.217   5.431  0.00  0.00    -0.021 A 
HETATM    9  C   UNK N   1      27.929  16.295   6.315  0.00  0.00     0.014 A 
HETATM   10  C   UNK N   1      27.156  17.443   6.401  0.00  0.00     0.026 A 
HETATM   11  C   UNK N   1      27.451  18.569   5.588  0.00  0.00     0.079 A 
HETATM   12  C   UNK N   1      28.487  18.454   4.647  0.00  0.00     0.026 A 
HETATM   13  C   UNK N   1      29.252  17.281   4.556  0.00  0.00     0.014 A 
BRANCH  11  14
HETATM   14  S   UNK N   1      26.607  20.207   5.728  0.00  0.00     0.256 S 
HETATM   15  O   UNK N   1      27.736  20.458   4.711  0.00  0.00    -0.201 OA
HETATM   16  O   UNK N   1      27.362  20.016   7.052  0.00  0.00    -0.201 OA
BRANCH  14  17
HETATM   17  N   UNK N   1      27.201  21.818   6.135  0.00  0.00    -0.324 N 
HETATM   18  H   UNK N   1      27.202  22.628   5.515  0.00  0.00     0.169 HD
HETATM   19  H   UNK N   1      27.577  21.951   7.073  0.00  0.00     0.169 HD
ENDBRANCH  14  17
ENDBRANCH  11  14
ENDBRANCH   4   8
BRANCH   5  20
HETATM   20  C   UNK N   1      31.976  16.030   6.732  0.00  0.00    -0.007 A 
HETATM   21  C   UNK N   1      33.077  16.571   6.054  0.00  0.00     0.014 A 
HETATM   22  C   UNK N   1      33.822  17.610   6.630  0.00  0.00     0.001 A 
HETATM   23  C   UNK N   1      33.461  18.129   7.876  0.00  0.00     0.000 A 
HETATM   24  C   UNK N   1      32.350  17.620   8.544  0.00  0.00     0.001 A 
HETATM   25  C   UNK N   1      31.613  16.586   7.968  0.00  0.00     0.014 A 
ENDBRANCH   5  20
TORSDOF 4
ENDMDL
