MODEL 1
REMARK VINA RESULT:      -6.4      0.000      0.000
REMARK  6 active torsions:
REMARK  status: ('A' for Active; 'I' for Inactive)
REMARK    1  A    between atoms: C_14  and  O_4 
REMARK    2  A    between atoms: N_5  and  C_16 
REMARK    3  A    between atoms: C_14  and  C_15 
REMARK    4  A    between atoms: C_14  and  C_16 
REMARK    5  A    between atoms: C_14  and  C_17 
REMARK    6  A    between atoms: C_15  and  C_19 
ROOT
HETATM    1  C   UNK N   1      32.153  16.365   7.604  0.00  0.00     0.114 C 
ENDROOT
BRANCH   1   2
HETATM    2  O   UNK N   1      31.482  15.347   8.290  0.00  0.00    -0.382 OA
HETATM    3  H   UNK N   1      30.930  14.638   7.921  0.00  0.00     0.211 HD
ENDBRANCH   1   2
BRANCH   1   4
HETATM    4  C   UNK N   1      33.671  16.024   7.599  0.00  0.00     0.075 C 
HETATM    5  C   UNK N   1      33.975  14.822   6.712  0.00  0.00     0.020 C 
BRANCH   4   6
HETATM    6  C   UNK N   1      34.240  15.816   8.980  0.00  0.00     0.057 A 
HETATM    7  N   UNK N   1      34.048  14.641   9.639  0.00  0.00    -0.353 N 
HETATM    8  C   UNK N   1      34.508  14.469  10.907  0.00  0.00     0.180 A 
ATOM      9  HN  UNK N   1      33.556  13.878   9.175  1.00  0.00     0.166 HD
HETATM   10  N   UNK N   1      35.172  15.474  11.537  0.00  0.00    -0.359 N 
HETATM   11  C   UNK N   1      35.398  16.657  10.910  0.00  0.00     0.133 A 
ATOM     12  HN  UNK N   1      35.504  15.338  12.492  1.00  0.00     0.166 HD
HETATM   13  C   UNK N   1      34.935  16.855   9.613  0.00  0.00     0.154 A 
HETATM   14  F   UNK N   1      35.160  18.034   8.982  0.00  0.00    -0.203 F 
ENDBRANCH   4   6
ENDBRANCH   1   4
BRANCH   1  15
HETATM   15  C   UNK N   1      31.858  17.665   8.390  0.00  0.00     0.193 C 
BRANCH  15  16
HETATM   16  N   UNK N   1      30.505  17.766   8.921  0.00  0.00    -0.284 N 
HETATM   17  N   UNK N   1      30.028  17.076   9.938  0.00  0.00    -0.293 N 
HETATM   18  C   UNK N   1      28.748  17.457  10.096  0.00  0.00     0.198 A 
ATOM     19  HN  UNK N   1      30.532  16.388  10.497  1.00  0.00     0.188 HD
HETATM   20  N   UNK N   1      28.413  18.385   9.172  0.00  0.00    -0.346 N 
HETATM   21  C   UNK N   1      29.536  18.557   8.447  0.00  0.00     0.201 A 
ATOM     22  HN  UNK N   1      27.513  18.850   9.052  1.00  0.00     0.167 HD
ENDBRANCH  15  16
ENDBRANCH   1  15
BRANCH   1  23
HETATM   23  C   UNK N   1      31.621  16.502   6.171  0.00  0.00     0.017 A 
HETATM   24  C   UNK N   1      32.255  17.294   5.179  0.00  0.00     0.128 A 
HETATM   25  F   UNK N   1      33.371  18.015   5.450  0.00  0.00    -0.205 F 
HETATM   26  C   UNK N   1      31.750  17.321   3.874  0.00  0.00     0.085 A 
HETATM   27  C   UNK N   1      30.615  16.581   3.537  0.00  0.00     0.119 A 
HETATM   28  F   UNK N   1      30.148  16.595   2.266  0.00  0.00    -0.206 F 
HETATM   29  C   UNK N   1      29.969  15.819   4.507  0.00  0.00     0.043 A 
HETATM   30  C   UNK N   1      30.466  15.783   5.809  0.00  0.00     0.016 A 
ENDBRANCH   1  23
TORSDOF 6
ENDMDL
MODEL 2
REMARK VINA RESULT:      -6.2      6.930     10.611
REMARK  6 active torsions:
REMARK  status: ('A' for Active; 'I' for Inactive)
REMARK    1  A    between atoms: C_14  and  O_4 
REMARK    2  A    between atoms: N_5  and  C_16 
REMARK    3  A    between atoms: C_14  and  C_15 
REMARK    4  A    between atoms: C_14  and  C_16 
REMARK    5  A    between atoms: C_14  and  C_17 
REMARK    6  A    between atoms: C_15  and  C_19 
ROOT
HETATM    1  C   UNK N   1      35.883  12.235  14.541  0.00  0.00     0.114 C 
ENDROOT
BRANCH   1   2
HETATM    2  O   UNK N   1      37.068  11.605  14.145  0.00  0.00    -0.382 OA
HETATM    3  H   UNK N   1      37.205  10.669  13.928  0.00  0.00     0.211 HD
ENDBRANCH   1   2
BRANCH   1   4
HETATM    4  C   UNK N   1      34.705  11.575  13.767  0.00  0.00     0.075 C 
HETATM    5  C   UNK N   1      33.654  11.011  14.715  0.00  0.00     0.020 C 
BRANCH   4   6
HETATM    6  C   UNK N   1      35.151  10.519  12.788  0.00  0.00     0.057 A 
HETATM    7  N   UNK N   1      35.688   9.348  13.228  0.00  0.00    -0.353 N 
HETATM    8  C   UNK N   1      36.147   8.418  12.350  0.00  0.00     0.180 A 
ATOM      9  HN  UNK N   1      35.744   9.166  14.230  1.00  0.00     0.166 HD
HETATM   10  N   UNK N   1      36.073   8.644  11.011  0.00  0.00    -0.359 N 
HETATM   11  C   UNK N   1      35.532   9.791  10.530  0.00  0.00     0.133 A 
ATOM     12  HN  UNK N   1      36.430   7.943  10.361  1.00  0.00     0.166 HD
HETATM   13  C   UNK N   1      35.057  10.758  11.411  0.00  0.00     0.154 A 
HETATM   14  F   UNK N   1      34.513  11.906  10.934  0.00  0.00    -0.203 F 
ENDBRANCH   4   6
ENDBRANCH   1   4
BRANCH   1  15
HETATM   15  C   UNK N   1      36.054  13.726  14.164  0.00  0.00     0.193 C 
BRANCH  15  16
HETATM   16  N   UNK N   1      36.312  13.974  12.752  0.00  0.00    -0.284 N 
HETATM   17  N   UNK N   1      37.302  13.456  12.051  0.00  0.00    -0.293 N 
HETATM   18  C   UNK N   1      37.188  13.945  10.803  0.00  0.00     0.198 A 
ATOM     19  HN  UNK N   1      38.015  12.810  12.390  1.00  0.00     0.188 HD
HETATM   20  N   UNK N   1      36.128  14.779  10.716  0.00  0.00    -0.346 N 
HETATM   21  C   UNK N   1      35.599  14.780  11.955  0.00  0.00     0.201 A 
ATOM     22  HN  UNK N   1      35.803  15.291   9.896  1.00  0.00     0.167 HD
ENDBRANCH  15  16
ENDBRANCH   1  15
BRANCH   1  23
HETATM   23  C   UNK N   1      35.677  12.111  16.056  0.00  0.00     0.017 A 
HETATM   24  C   UNK N   1      35.971  10.930  16.785  0.00  0.00     0.128 A 
HETATM   25  F   UNK N   1      36.429   9.810  16.173  0.00  0.00    -0.205 F 
HETATM   26  C   UNK N   1      35.819  10.909  18.177  0.00  0.00     0.085 A 
HETATM   27  C   UNK N   1      35.371  12.041  18.859  0.00  0.00     0.119 A 
HETATM   28  F   UNK N   1      35.250  12.019  20.208  0.00  0.00    -0.206 F 
HETATM   29  C   UNK N   1      35.056  13.199  18.152  0.00  0.00     0.043 A 
HETATM   30  C   UNK N   1      35.205  13.231  16.767  0.00  0.00     0.016 A 
ENDBRANCH   1  23
TORSDOF 6
ENDMDL
MODEL 3
REMARK VINA RESULT:      -6.1      2.251      5.666
REMARK  6 active torsions:
REMARK  status: ('A' for Active; 'I' for Inactive)
REMARK    1  A    between atoms: C_14  and  O_4 
REMARK    2  A    between atoms: N_5  and  C_16 
REMARK    3  A    between atoms: C_14  and  C_15 
REMARK    4  A    between atoms: C_14  and  C_16 
REMARK    5  A    between atoms: C_14  and  C_17 
REMARK    6  A    between atoms: C_15  and  C_19 
ROOT
HETATM    1  C   UNK N   1      32.825  16.389   7.757  0.00  0.00     0.114 C 
ENDROOT
BRANCH   1   2
HETATM    2  O   UNK N   1      32.807  17.750   7.433  0.00  0.00    -0.382 OA
HETATM    3  H   UNK N   1      33.545  18.380   7.451  0.00  0.00     0.211 HD
ENDBRANCH   1   2
BRANCH   1   4
HETATM    4  C   UNK N   1      33.353  15.606   6.520  0.00  0.00     0.075 C 
HETATM    5  C   UNK N   1      34.872  15.678   6.415  0.00  0.00     0.020 C 
BRANCH   4   6
HETATM    6  C   UNK N   1      32.715  16.036   5.224  0.00  0.00     0.057 A 
HETATM    7  N   UNK N   1      33.037  17.231   4.656  0.00  0.00    -0.353 N 
HETATM    8  C   UNK N   1      32.421  17.651   3.519  0.00  0.00     0.180 A 
ATOM      9  HN  UNK N   1      33.752  17.816   5.087  1.00  0.00     0.166 HD
HETATM   10  N   UNK N   1      31.471  16.878   2.929  0.00  0.00    -0.359 N 
HETATM   11  C   UNK N   1      31.130  15.674   3.455  0.00  0.00     0.133 A 
ATOM     12  HN  UNK N   1      31.008  17.207   2.082  1.00  0.00     0.166 HD
HETATM   13  C   UNK N   1      31.748  15.225   4.619  0.00  0.00     0.154 A 
HETATM   14  F   UNK N   1      31.412  14.021   5.146  0.00  0.00    -0.203 F 
ENDBRANCH   4   6
ENDBRANCH   1   4
BRANCH   1  15
HETATM   15  C   UNK N   1      31.360  16.018   8.089  0.00  0.00     0.193 C 
BRANCH  15  16
HETATM   16  N   UNK N   1      30.519  17.140   8.483  0.00  0.00    -0.284 N 
HETATM   17  N   UNK N   1      30.701  17.900   9.544  0.00  0.00    -0.293 N 
HETATM   18  C   UNK N   1      29.707  18.805   9.548  0.00  0.00     0.198 A 
ATOM     19  HN  UNK N   1      31.453  17.817  10.230  1.00  0.00     0.188 HD
HETATM   20  N   UNK N   1      28.888  18.613   8.489  0.00  0.00    -0.346 N 
HETATM   21  C   UNK N   1      29.422  17.559   7.840  0.00  0.00     0.201 A 
ATOM     22  HN  UNK N   1      28.056  19.146   8.239  1.00  0.00     0.167 HD
ENDBRANCH  15  16
ENDBRANCH   1  15
BRANCH   1  23
HETATM   23  C   UNK N   1      33.709  16.131   8.985  0.00  0.00     0.017 A 
HETATM   24  C   UNK N   1      34.715  17.031   9.420  0.00  0.00     0.128 A 
HETATM   25  F   UNK N   1      34.982  18.179   8.751  0.00  0.00    -0.205 F 
HETATM   26  C   UNK N   1      35.440  16.762  10.587  0.00  0.00     0.085 A 
HETATM   27  C   UNK N   1      35.191  15.604  11.326  0.00  0.00     0.119 A 
HETATM   28  F   UNK N   1      35.881  15.363  12.466  0.00  0.00    -0.206 F 
HETATM   29  C   UNK N   1      34.223  14.699  10.895  0.00  0.00     0.043 A 
HETATM   30  C   UNK N   1      33.493  14.960   9.736  0.00  0.00     0.016 A 
ENDBRANCH   1  23
TORSDOF 6
ENDMDL
MODEL 4
REMARK VINA RESULT:      -6.1      3.701      5.283
REMARK  6 active torsions:
REMARK  status: ('A' for Active; 'I' for Inactive)
REMARK    1  A    between atoms: C_14  and  O_4 
REMARK    2  A    between atoms: N_5  and  C_16 
REMARK    3  A    between atoms: C_14  and  C_15 
REMARK    4  A    between atoms: C_14  and  C_16 
REMARK    5  A    between atoms: C_14  and  C_17 
REMARK    6  A    between atoms: C_15  and  C_19 
ROOT
HETATM    1  C   UNK N   1      28.017  17.747   5.505  0.00  0.00     0.114 C 
ENDROOT
BRANCH   1   2
HETATM    2  O   UNK N   1      27.581  16.605   6.184  0.00  0.00    -0.382 OA
HETATM    3  H   UNK N   1      28.119  15.890   6.562  0.00  0.00     0.211 HD
ENDBRANCH   1   2
BRANCH   1   4
HETATM    4  C   UNK N   1      29.067  17.305   4.444  0.00  0.00     0.075 C 
HETATM    5  C   UNK N   1      28.441  16.438   3.359  0.00  0.00     0.020 C 
BRANCH   4   6
HETATM    6  C   UNK N   1      30.266  16.615   5.044  0.00  0.00     0.057 A 
HETATM    7  N   UNK N   1      30.118  15.468   5.761  0.00  0.00    -0.353 N 
HETATM    8  C   UNK N   1      31.188  14.873   6.354  0.00  0.00     0.180 A 
ATOM      9  HN  UNK N   1      29.194  15.047   5.852  1.00  0.00     0.166 HD
HETATM   10  N   UNK N   1      32.427  15.418   6.235  0.00  0.00    -0.359 N 
HETATM   11  C   UNK N   1      32.621  16.553   5.516  0.00  0.00     0.133 A 
ATOM     12  HN  UNK N   1      33.221  14.969   6.692  1.00  0.00     0.166 HD
HETATM   13  C   UNK N   1      31.540  17.179   4.902  0.00  0.00     0.154 A 
HETATM   14  F   UNK N   1      31.729  18.313   4.181  0.00  0.00    -0.203 F 
ENDBRANCH   4   6
ENDBRANCH   1   4
BRANCH   1  15
HETATM   15  C   UNK N   1      28.640  18.664   6.583  0.00  0.00     0.193 C 
BRANCH  15  16
HETATM   16  N   UNK N   1      28.796  18.049   7.894  0.00  0.00    -0.284 N 
HETATM   17  N   UNK N   1      27.812  17.736   8.715  0.00  0.00    -0.293 N 
HETATM   18  C   UNK N   1      28.380  17.204   9.813  0.00  0.00     0.198 A 
ATOM     19  HN  UNK N   1      26.815  17.870   8.549  1.00  0.00     0.188 HD
HETATM   20  N   UNK N   1      29.726  17.188   9.689  0.00  0.00    -0.346 N 
HETATM   21  C   UNK N   1      29.958  17.727   8.475  0.00  0.00     0.201 A 
ATOM     22  HN  UNK N   1      30.410  16.844  10.362  1.00  0.00     0.167 HD
ENDBRANCH  15  16
ENDBRANCH   1  15
BRANCH   1  23
HETATM   23  C   UNK N   1      26.839  18.470   4.837  0.00  0.00     0.017 A 
HETATM   24  C   UNK N   1      26.985  19.669   4.093  0.00  0.00     0.128 A 
HETATM   25  F   UNK N   1      28.188  20.277   3.950  0.00  0.00    -0.205 F 
HETATM   26  C   UNK N   1      25.875  20.238   3.456  0.00  0.00     0.085 A 
HETATM   27  C   UNK N   1      24.617  19.641   3.554  0.00  0.00     0.119 A 
HETATM   28  F   UNK N   1      23.554  20.186   2.915  0.00  0.00    -0.206 F 
HETATM   29  C   UNK N   1      24.456  18.477   4.302  0.00  0.00     0.043 A 
HETATM   30  C   UNK N   1      25.555  17.901   4.937  0.00  0.00     0.016 A 
ENDBRANCH   1  23
TORSDOF 6
ENDMDL
MODEL 5
REMARK VINA RESULT:      -6.1      3.537      5.246
REMARK  6 active torsions:
REMARK  status: ('A' for Active; 'I' for Inactive)
REMARK    1  A    between atoms: C_14  and  O_4 
REMARK    2  A    between atoms: N_5  and  C_16 
REMARK    3  A    between atoms: C_14  and  C_15 
REMARK    4  A    between atoms: C_14  and  C_16 
REMARK    5  A    between atoms: C_14  and  C_17 
REMARK    6  A    between atoms: C_15  and  C_19 
ROOT
HETATM    1  C   UNK N   1      28.926  17.137   4.829  0.00  0.00     0.114 C 
ENDROOT
BRANCH   1   2
HETATM    2  O   UNK N   1      27.895  16.956   3.901  0.00  0.00    -0.382 OA
HETATM    3  H   UNK N   1      27.101  17.500   3.773  0.00  0.00     0.211 HD
ENDBRANCH   1   2
BRANCH   1   4
HETATM    4  C   UNK N   1      28.588  16.298   6.095  0.00  0.00     0.075 C 
HETATM    5  C   UNK N   1      27.145  15.808   6.077  0.00  0.00     0.020 C 
BRANCH   4   6
HETATM    6  C   UNK N   1      28.882  17.020   7.385  0.00  0.00     0.057 A 
HETATM    7  N   UNK N   1      27.891  17.662   8.062  0.00  0.00    -0.353 N 
HETATM    8  C   UNK N   1      28.160  18.365   9.194  0.00  0.00     0.180 A 
ATOM      9  HN  UNK N   1      26.932  17.614   7.716  1.00  0.00     0.166 HD
HETATM   10  N   UNK N   1      29.432  18.434   9.671  0.00  0.00    -0.359 N 
HETATM   11  C   UNK N   1      30.447  17.795   9.036  0.00  0.00     0.133 A 
ATOM     12  HN  UNK N   1      29.625  18.972  10.516  1.00  0.00     0.166 HD
HETATM   13  C   UNK N   1      30.193  17.072   7.874  0.00  0.00     0.154 A 
HETATM   14  F   UNK N   1      31.205  16.430   7.237  0.00  0.00    -0.203 F 
ENDBRANCH   4   6
ENDBRANCH   1   4
BRANCH   1  15
HETATM   15  C   UNK N   1      28.954  18.654   5.134  0.00  0.00     0.193 C 
BRANCH  15  16
HETATM   16  N   UNK N   1      27.770  19.386   4.705  0.00  0.00    -0.284 N 
HETATM   17  N   UNK N   1      27.528  19.799   3.477  0.00  0.00    -0.293 N 
HETATM   18  C   UNK N   1      26.344  20.438   3.511  0.00  0.00     0.198 A 
ATOM     19  HN  UNK N   1      28.123  19.661   2.660  1.00  0.00     0.188 HD
HETATM   20  N   UNK N   1      25.840  20.434   4.765  0.00  0.00    -0.346 N 
HETATM   21  C   UNK N   1      26.758  19.769   5.494  0.00  0.00     0.201 A 
ATOM     22  HN  UNK N   1      24.963  20.842   5.086  1.00  0.00     0.167 HD
ENDBRANCH  15  16
ENDBRANCH   1  15
BRANCH   1  23
HETATM   23  C   UNK N   1      30.276  16.710   4.237  0.00  0.00     0.017 A 
HETATM   24  C   UNK N   1      30.514  15.418   3.700  0.00  0.00     0.128 A 
HETATM   25  F   UNK N   1      29.558  14.457   3.705  0.00  0.00    -0.205 F 
HETATM   26  C   UNK N   1      31.751  15.118   3.117  0.00  0.00     0.085 A 
HETATM   27  C   UNK N   1      32.763  16.078   3.066  0.00  0.00     0.119 A 
HETATM   28  F   UNK N   1      33.948  15.786   2.479  0.00  0.00    -0.206 F 
HETATM   29  C   UNK N   1      32.550  17.342   3.612  0.00  0.00     0.043 A 
HETATM   30  C   UNK N   1      31.321  17.651   4.192  0.00  0.00     0.016 A 
ENDBRANCH   1  23
TORSDOF 6
ENDMDL
MODEL 6
REMARK VINA RESULT:      -6.1      2.031      4.558
REMARK  6 active torsions:
REMARK  status: ('A' for Active; 'I' for Inactive)
REMARK    1  A    between atoms: C_14  and  O_4 
REMARK    2  A    between atoms: N_5  and  C_16 
REMARK    3  A    between atoms: C_14  and  C_15 
REMARK    4  A    between atoms: C_14  and  C_16 
REMARK    5  A    between atoms: C_14  and  C_17 
REMARK    6  A    between atoms: C_15  and  C_19 
ROOT
HETATM    1  C   UNK N   1      32.903  16.054   7.296  0.00  0.00     0.114 C 
ENDROOT
BRANCH   1   2
HETATM    2  O   UNK N   1      34.262  16.127   7.622  0.00  0.00    -0.382 OA
HETATM    3  H   UNK N   1      34.991  15.587   7.277  0.00  0.00     0.211 HD
ENDBRANCH   1   2
BRANCH   1   4
HETATM    4  C   UNK N   1      32.299  17.483   7.423  0.00  0.00     0.075 C 
HETATM    5  C   UNK N   1      33.193  18.400   8.249  0.00  0.00     0.020 C 
BRANCH   4   6
HETATM    6  C   UNK N   1      30.892  17.490   7.966  0.00  0.00     0.057 A 
HETATM    7  N   UNK N   1      30.666  17.614   9.303  0.00  0.00    -0.353 N 
HETATM    8  C   UNK N   1      29.403  17.561   9.804  0.00  0.00     0.180 A 
ATOM      9  HN  UNK N   1      31.454  17.750   9.936  1.00  0.00     0.166 HD
HETATM   10  N   UNK N   1      28.343  17.386   8.971  0.00  0.00    -0.359 N 
HETATM   11  C   UNK N   1      28.523  17.273   7.631  0.00  0.00     0.133 A 
ATOM     12  HN  UNK N   1      27.400  17.338   9.359  1.00  0.00     0.166 HD
HETATM   13  C   UNK N   1      29.808  17.322   7.097  0.00  0.00     0.154 A 
HETATM   14  F   UNK N   1      29.992  17.212   5.757  0.00  0.00    -0.203 F 
ENDBRANCH   4   6
ENDBRANCH   1   4
BRANCH   1  15
HETATM   15  C   UNK N   1      32.279  15.073   8.316  0.00  0.00     0.193 C 
BRANCH  15  16
HETATM   16  N   UNK N   1      33.161  14.681   9.407  0.00  0.00    -0.284 N 
HETATM   17  N   UNK N   1      33.553  15.462  10.394  0.00  0.00    -0.293 N 
HETATM   18  C   UNK N   1      34.362  14.723  11.174  0.00  0.00     0.198 A 
ATOM     19  HN  UNK N   1      33.292  16.438  10.538  1.00  0.00     0.188 HD
HETATM   20  N   UNK N   1      34.488  13.473  10.675  0.00  0.00    -0.346 N 
HETATM   21  C   UNK N   1      33.725  13.477   9.564  0.00  0.00     0.201 A 
ATOM     22  HN  UNK N   1      35.037  12.702  11.054  1.00  0.00     0.167 HD
ENDBRANCH  15  16
ENDBRANCH   1  15
BRANCH   1  23
HETATM   23  C   UNK N   1      32.711  15.506   5.875  0.00  0.00     0.017 A 
HETATM   24  C   UNK N   1      33.106  16.212   4.710  0.00  0.00     0.128 A 
HETATM   25  F   UNK N   1      33.658  17.448   4.780  0.00  0.00    -0.205 F 
HETATM   26  C   UNK N   1      32.959  15.623   3.449  0.00  0.00     0.085 A 
HETATM   27  C   UNK N   1      32.415  14.343   3.322  0.00  0.00     0.119 A 
HETATM   28  F   UNK N   1      32.299  13.772   2.100  0.00  0.00    -0.206 F 
HETATM   29  C   UNK N   1      32.001  13.649   4.456  0.00  0.00     0.043 A 
HETATM   30  C   UNK N   1      32.145  14.226   5.717  0.00  0.00     0.016 A 
ENDBRANCH   1  23
TORSDOF 6
ENDMDL
MODEL 7
REMARK VINA RESULT:      -6.1      6.346      9.464
REMARK  6 active torsions:
REMARK  status: ('A' for Active; 'I' for Inactive)
REMARK    1  A    between atoms: C_14  and  O_4 
REMARK    2  A    between atoms: N_5  and  C_16 
REMARK    3  A    between atoms: C_14  and  C_15 
REMARK    4  A    between atoms: C_14  and  C_16 
REMARK    5  A    between atoms: C_14  and  C_17 
REMARK    6  A    between atoms: C_15  and  C_19 
ROOT
HETATM    1  C   UNK N   1      36.192  12.938  13.239  0.00  0.00     0.114 C 
ENDROOT
BRANCH   1   2
HETATM    2  O   UNK N   1      37.264  13.716  12.787  0.00  0.00    -0.382 OA
HETATM    3  H   UNK N   1      38.108  13.890  13.235  0.00  0.00     0.211 HD
ENDBRANCH   1   2
BRANCH   1   4
HETATM    4  C   UNK N   1      36.584  11.440  13.081  0.00  0.00     0.075 C 
HETATM    5  C   UNK N   1      37.847  11.103  13.865  0.00  0.00     0.020 C 
BRANCH   4   6
HETATM    6  C   UNK N   1      36.727  11.009  11.643  0.00  0.00     0.057 A 
HETATM    7  N   UNK N   1      37.692  11.549  10.850  0.00  0.00    -0.353 N 
HETATM    8  C   UNK N   1      37.788  11.208   9.537  0.00  0.00     0.180 A 
ATOM      9  HN  UNK N   1      38.354  12.216  11.247  1.00  0.00     0.166 HD
HETATM   10  N   UNK N   1      36.917  10.315   8.996  0.00  0.00    -0.359 N 
HETATM   11  C   UNK N   1      35.949   9.742   9.755  0.00  0.00     0.133 A 
ATOM     12  HN  UNK N   1      36.992  10.074   8.008  1.00  0.00     0.166 HD
HETATM   13  C   UNK N   1      35.833  10.077  11.101  0.00  0.00     0.154 A 
HETATM   14  F   UNK N   1      34.868   9.505  11.864  0.00  0.00    -0.203 F 
ENDBRANCH   4   6
ENDBRANCH   1   4
BRANCH   1  15
HETATM   15  C   UNK N   1      34.992  13.315  12.338  0.00  0.00     0.193 C 
BRANCH  15  16
HETATM   16  N   UNK N   1      35.227  14.443  11.446  0.00  0.00    -0.284 N 
HETATM   17  N   UNK N   1      35.479  15.680  11.825  0.00  0.00    -0.293 N 
HETATM   18  C   UNK N   1      35.621  16.407  10.703  0.00  0.00     0.198 A 
ATOM     19  HN  UNK N   1      35.553  16.020  12.785  1.00  0.00     0.188 HD
HETATM   20  N   UNK N   1      35.452  15.628   9.611  0.00  0.00    -0.346 N 
HETATM   21  C   UNK N   1      35.203  14.401  10.109  0.00  0.00     0.201 A 
ATOM     22  HN  UNK N   1      35.502  15.908   8.631  1.00  0.00     0.167 HD
ENDBRANCH  15  16
ENDBRANCH   1  15
BRANCH   1  23
HETATM   23  C   UNK N   1      35.858  13.262  14.700  0.00  0.00     0.017 A 
HETATM   24  C   UNK N   1      34.778  12.665  15.401  0.00  0.00     0.128 A 
HETATM   25  F   UNK N   1      33.943  11.781  14.803  0.00  0.00    -0.205 F 
HETATM   26  C   UNK N   1      34.571  12.961  16.754  0.00  0.00     0.085 A 
HETATM   27  C   UNK N   1      35.414  13.849  17.424  0.00  0.00     0.119 A 
HETATM   28  F   UNK N   1      35.220  14.110  18.738  0.00  0.00    -0.206 F 
HETATM   29  C   UNK N   1      36.463  14.460  16.740  0.00  0.00     0.043 A 
HETATM   30  C   UNK N   1      36.679  14.171  15.394  0.00  0.00     0.016 A 
ENDBRANCH   1  23
TORSDOF 6
ENDMDL
MODEL 8
REMARK VINA RESULT:      -6.1     13.723     16.420
REMARK  6 active torsions:
REMARK  status: ('A' for Active; 'I' for Inactive)
REMARK    1  A    between atoms: C_14  and  O_4 
REMARK    2  A    between atoms: N_5  and  C_16 
REMARK    3  A    between atoms: C_14  and  C_15 
REMARK    4  A    between atoms: C_14  and  C_16 
REMARK    5  A    between atoms: C_14  and  C_17 
REMARK    6  A    between atoms: C_15  and  C_19 
ROOT
HETATM    1  C   UNK N   1      27.929  25.280  -5.094  0.00  0.00     0.114 C 
ENDROOT
BRANCH   1   2
HETATM    2  O   UNK N   1      28.472  25.240  -6.383  0.00  0.00    -0.382 OA
HETATM    3  H   UNK N   1      28.156  25.695  -7.181  0.00  0.00     0.211 HD
ENDBRANCH   1   2
BRANCH   1   4
HETATM    4  C   UNK N   1      29.057  24.915  -4.085  0.00  0.00     0.075 C 
HETATM    5  C   UNK N   1      30.174  25.951  -4.089  0.00  0.00     0.020 C 
BRANCH   4   6
HETATM    6  C   UNK N   1      29.620  23.532  -4.296  0.00  0.00     0.057 A 
HETATM    7  N   UNK N   1      29.924  23.091  -5.548  0.00  0.00    -0.353 N 
HETATM    8  C   UNK N   1      30.377  21.826  -5.751  0.00  0.00     0.180 A 
ATOM      9  HN  UNK N   1      29.813  23.720  -6.343  1.00  0.00     0.166 HD
HETATM   10  N   UNK N   1      30.536  20.978  -4.699  0.00  0.00    -0.359 N 
HETATM   11  C   UNK N   1      30.258  21.382  -3.434  0.00  0.00     0.133 A 
ATOM     12  HN  UNK N   1      30.866  20.027  -4.864  1.00  0.00     0.166 HD
HETATM   13  C   UNK N   1      29.792  22.674  -3.204  0.00  0.00     0.154 A 
HETATM   14  F   UNK N   1      29.516  23.083  -1.940  0.00  0.00    -0.203 F 
ENDBRANCH   4   6
ENDBRANCH   1   4
BRANCH   1  15
HETATM   15  C   UNK N   1      26.789  24.234  -5.086  0.00  0.00     0.193 C 
BRANCH  15  16
HETATM   16  N   UNK N   1      26.319  23.832  -6.405  0.00  0.00    -0.284 N 
HETATM   17  N   UNK N   1      25.628  24.587  -7.235  0.00  0.00    -0.293 N 
HETATM   18  C   UNK N   1      25.387  23.841  -8.328  0.00  0.00     0.198 A 
ATOM     19  HN  UNK N   1      25.334  25.552  -7.080  1.00  0.00     0.188 HD
HETATM   20  N   UNK N   1      25.921  22.607  -8.185  0.00  0.00    -0.346 N 
HETATM   21  C   UNK N   1      26.498  22.630  -6.967  0.00  0.00     0.201 A 
ATOM     22  HN  UNK N   1      25.894  21.834  -8.849  1.00  0.00     0.167 HD
ENDBRANCH  15  16
ENDBRANCH   1  15
BRANCH   1  23
HETATM   23  C   UNK N   1      27.352  26.669  -4.786  0.00  0.00     0.017 A 
HETATM   24  C   UNK N   1      26.633  26.965  -3.599  0.00  0.00     0.128 A 
HETATM   25  F   UNK N   1      26.382  26.017  -2.663  0.00  0.00    -0.205 F 
HETATM   26  C   UNK N   1      26.192  28.271  -3.355  0.00  0.00     0.085 A 
HETATM   27  C   UNK N   1      26.442  29.290  -4.276  0.00  0.00     0.119 A 
HETATM   28  F   UNK N   1      26.032  30.554  -4.020  0.00  0.00    -0.206 F 
HETATM   29  C   UNK N   1      27.125  29.006  -5.457  0.00  0.00     0.043 A 
HETATM   30  C   UNK N   1      27.572  27.709  -5.708  0.00  0.00     0.016 A 
ENDBRANCH   1  23
TORSDOF 6
ENDMDL
MODEL 9
REMARK VINA RESULT:      -6.1      1.674      2.059
REMARK  6 active torsions:
REMARK  status: ('A' for Active; 'I' for Inactive)
REMARK    1  A    between atoms: C_14  and  O_4 
REMARK    2  A    between atoms: N_5  and  C_16 
REMARK    3  A    between atoms: C_14  and  C_15 
REMARK    4  A    between atoms: C_14  and  C_16 
REMARK    5  A    between atoms: C_14  and  C_17 
REMARK    6  A    between atoms: C_15  and  C_19 
ROOT
HETATM    1  C   UNK N   1      32.144  17.124   8.336  0.00  0.00     0.114 C 
ENDROOT
BRANCH   1   2
HETATM    2  O   UNK N   1      31.988  16.279   9.440  0.00  0.00    -0.382 OA
HETATM    3  H   UNK N   1      32.541  16.223  10.236  0.00  0.00     0.211 HD
ENDBRANCH   1   2
BRANCH   1   4
HETATM    4  C   UNK N   1      33.653  17.486   8.216  0.00  0.00     0.075 C 
HETATM    5  C   UNK N   1      34.133  17.427   6.771  0.00  0.00     0.020 C 
BRANCH   4   6
HETATM    6  C   UNK N   1      34.540  16.646   9.100  0.00  0.00     0.057 A 
HETATM    7  N   UNK N   1      34.816  17.035  10.375  0.00  0.00    -0.353 N 
HETATM    8  C   UNK N   1      35.662  16.313  11.157  0.00  0.00     0.180 A 
ATOM      9  HN  UNK N   1      34.380  17.878  10.749  1.00  0.00     0.166 HD
HETATM   10  N   UNK N   1      36.245  15.183  10.674  0.00  0.00    -0.359 N 
HETATM   11  C   UNK N   1      35.985  14.752   9.414  0.00  0.00     0.133 A 
ATOM     12  HN  UNK N   1      36.886  14.655  11.266  1.00  0.00     0.166 HD
HETATM   13  C   UNK N   1      35.123  15.477   8.596  0.00  0.00     0.154 A 
HETATM   14  F   UNK N   1      34.859  15.048   7.336  0.00  0.00    -0.203 F 
ENDBRANCH   4   6
ENDBRANCH   1   4
BRANCH   1  15
HETATM   15  C   UNK N   1      31.277  18.370   8.637  0.00  0.00     0.193 C 
BRANCH  15  16
HETATM   16  N   UNK N   1      29.891  18.082   8.981  0.00  0.00    -0.284 N 
HETATM   17  N   UNK N   1      29.489  17.179   9.852  0.00  0.00    -0.293 N 
HETATM   18  C   UNK N   1      28.145  17.224   9.865  0.00  0.00     0.198 A 
ATOM     19  HN  UNK N   1      30.084  16.565  10.410  1.00  0.00     0.188 HD
HETATM   20  N   UNK N   1      27.695  18.154   8.994  0.00  0.00    -0.346 N 
HETATM   21  C   UNK N   1      28.814  18.675   8.451  0.00  0.00     0.201 A 
ATOM     22  HN  UNK N   1      26.727  18.405   8.793  1.00  0.00     0.167 HD
ENDBRANCH  15  16
ENDBRANCH   1  15
BRANCH   1  23
HETATM   23  C   UNK N   1      31.642  16.448   7.054  0.00  0.00     0.017 A 
HETATM   24  C   UNK N   1      31.642  15.042   6.866  0.00  0.00     0.128 A 
HETATM   25  F   UNK N   1      32.124  14.197   7.810  0.00  0.00    -0.205 F 
HETATM   26  C   UNK N   1      31.109  14.491   5.695  0.00  0.00     0.085 A 
HETATM   27  C   UNK N   1      30.581  15.315   4.699  0.00  0.00     0.119 A 
HETATM   28  F   UNK N   1      30.045  14.771   3.580  0.00  0.00    -0.206 F 
HETATM   29  C   UNK N   1      30.597  16.698   4.861  0.00  0.00     0.043 A 
HETATM   30  C   UNK N   1      31.124  17.257   6.024  0.00  0.00     0.016 A 
ENDBRANCH   1  23
TORSDOF 6
ENDMDL
