MODEL 1
REMARK VINA RESULT:      -7.9      0.000      0.000
REMARK  4 active torsions:
REMARK  status: ('A' for Active; 'I' for Inactive)
REMARK    1  A    between atoms: C_17  and  O_5 
REMARK    2  A    between atoms: O_7  and  C_27 
REMARK    3  A    between atoms: C_12  and  C_22 
REMARK    4  A    between atoms: C_22  and  C_27 
ROOT
HETATM    1  F   UNK N   1      35.806  15.429  10.357  0.00  0.00    -0.238 F 
HETATM    2  F   UNK N   1      38.034  11.748   8.716  0.00  0.00    -0.245 F 
HETATM    3  O   UNK N   1      31.985  15.946   5.827  0.00  0.00    -0.334 OA
HETATM    4  O   UNK N   1      33.810  16.020   4.325  0.00  0.00    -0.347 OA
HETATM    5  O   UNK N   1      37.981  11.307  13.830  0.00  0.00    -0.289 OA
HETATM    6  C   UNK N   1      33.486  14.935   7.662  0.00  0.00     0.004 C 
HETATM    7  C   UNK N   1      35.043  14.954   7.592  0.00  0.00     0.007 C 
HETATM    8  C   UNK N   1      35.664  13.895   8.515  0.00  0.00     0.037 C 
HETATM    9  C   UNK N   1      33.210  15.905   6.489  0.00  0.00     0.160 C 
HETATM   10  C   UNK N   1      35.237  14.214   9.989  0.00  0.00     0.147 C 
HETATM   11  C   UNK N   1      34.050  15.241   5.442  0.00  0.00     0.168 C 
HETATM   12  C   UNK N   1      35.414  15.009   6.082  0.00  0.00     0.041 C 
HETATM   13  C   UNK N   1      33.071  15.341   9.076  0.00  0.00     0.048 C 
HETATM   14  C   UNK N   1      33.680  14.362  10.101  0.00  0.00     0.160 C 
HETATM   15  C   UNK N   1      35.792  13.102  10.932  0.00  0.00     0.039 C 
HETATM   16  C   UNK N   1      37.186  13.965   8.423  0.00  0.00     0.050 C 
HETATM   17  C   UNK N   1      32.872  13.544   7.389  0.00  0.00     0.019 C 
HETATM   18  C   UNK N   1      37.918  12.980   9.334  0.00  0.00     0.201 C 
HETATM   19  C   UNK N   1      32.397  16.236   4.474  0.00  0.00     0.159 C 
HETATM   20  C   UNK N   1      37.285  12.816  10.698  0.00  0.00    -0.027 C 
HETATM   21  C   UNK N   1      35.059  11.788  10.645  0.00  0.00     0.028 C 
HETATM   22  C   UNK N   1      35.532  13.409  12.399  0.00  0.00    -0.006 C 
HETATM   23  C   UNK N   1      31.642  15.335   3.511  0.00  0.00     0.078 C 
HETATM   24  C   UNK N   1      32.070  17.681   4.136  0.00  0.00     0.078 C 
HETATM   25  C   UNK N   1      37.986  12.166  11.649  0.00  0.00     0.061 C 
HETATM   26  C   UNK N   1      36.230  12.793  13.365  0.00  0.00     0.052 C 
HETATM   27  C   UNK N   1      37.415  11.996  12.998  0.00  0.00     0.172 C 
ENDROOT
BRANCH   9  28
HETATM   28  C   UNK N   1      33.597  17.355   6.861  0.00  0.00     0.188 C 
HETATM   29  O   UNK N   1      34.573  17.890   6.357  0.00  0.00    -0.292 OA
BRANCH  28  30
HETATM   30  C   UNK N   1      32.771  18.137   7.836  0.00  0.00     0.245 C 
BRANCH  30  31
HETATM   31  O   UNK N   1      31.416  17.853   7.662  0.00  0.00    -0.393 OA
HETATM   32  H   UNK N   1      30.791  18.145   6.981  0.00  0.00     0.209 HD
ENDBRANCH  30  31
ENDBRANCH  28  30
ENDBRANCH   9  28
BRANCH  14  33
HETATM   33  O   UNK N   1      33.299  14.768  11.381  0.00  0.00    -0.392 OA
HETATM   34  H   UNK N   1      33.459  14.197  12.148  0.00  0.00     0.210 HD
ENDBRANCH  14  33
TORSDOF 4
ENDMDL
MODEL 2
REMARK VINA RESULT:      -7.7      2.366      7.617
REMARK  4 active torsions:
REMARK  status: ('A' for Active; 'I' for Inactive)
REMARK    1  A    between atoms: C_17  and  O_5 
REMARK    2  A    between atoms: O_7  and  C_27 
REMARK    3  A    between atoms: C_12  and  C_22 
REMARK    4  A    between atoms: C_22  and  C_27 
ROOT
HETATM    1  F   UNK N   1      35.479  15.731   6.415  0.00  0.00    -0.238 F 
HETATM    2  F   UNK N   1      31.304  17.523   7.168  0.00  0.00    -0.245 F 
HETATM    3  O   UNK N   1      35.555  12.225  11.221  0.00  0.00    -0.334 OA
HETATM    4  O   UNK N   1      35.110  14.111  12.576  0.00  0.00    -0.347 OA
HETATM    5  O   UNK N   1      31.886  17.177   2.080  0.00  0.00    -0.289 OA
HETATM    6  C   UNK N   1      34.750  13.493   9.126  0.00  0.00     0.004 C 
HETATM    7  C   UNK N   1      34.565  15.040   9.088  0.00  0.00     0.007 C 
HETATM    8  C   UNK N   1      33.641  15.472   7.939  0.00  0.00     0.037 C 
HETATM    9  C   UNK N   1      35.497  13.403  10.477  0.00  0.00     0.160 C 
HETATM   10  C   UNK N   1      34.293  15.024   6.586  0.00  0.00     0.147 C 
HETATM   11  C   UNK N   1      34.543  14.194  11.317  0.00  0.00     0.168 C 
HETATM   12  C   UNK N   1      34.277  15.484  10.550  0.00  0.00     0.041 C 
HETATM   13  C   UNK N   1      35.473  13.071   7.847  0.00  0.00     0.048 C 
HETATM   14  C   UNK N   1      34.649  13.497   6.615  0.00  0.00     0.160 C 
HETATM   15  C   UNK N   1      33.329  15.382   5.413  0.00  0.00     0.039 C 
HETATM   16  C   UNK N   1      33.506  16.992   7.935  0.00  0.00     0.050 C 
HETATM   17  C   UNK N   1      33.418  12.712   9.174  0.00  0.00     0.019 C 
HETATM   18  C   UNK N   1      32.638  17.544   6.804  0.00  0.00     0.201 C 
HETATM   19  C   UNK N   1      35.521  12.735  12.571  0.00  0.00     0.159 C 
HETATM   20  C   UNK N   1      32.823  16.833   5.483  0.00  0.00    -0.027 C 
HETATM   21  C   UNK N   1      32.084  14.495   5.497  0.00  0.00     0.028 C 
HETATM   22  C   UNK N   1      33.948  15.098   4.052  0.00  0.00    -0.006 C 
HETATM   23  C   UNK N   1      34.547  11.912  13.397  0.00  0.00     0.078 C 
HETATM   24  C   UNK N   1      36.901  12.618  13.199  0.00  0.00     0.078 C 
HETATM   25  C   UNK N   1      32.293  17.396   4.378  0.00  0.00     0.061 C 
HETATM   26  C   UNK N   1      33.454  15.663   2.940  0.00  0.00     0.052 C 
HETATM   27  C   UNK N   1      32.462  16.746   3.065  0.00  0.00     0.172 C 
ENDROOT
BRANCH   9  28
HETATM   28  C   UNK N   1      36.934  13.962  10.360  0.00  0.00     0.188 C 
HETATM   29  O   UNK N   1      37.159  15.149  10.543  0.00  0.00    -0.292 OA
BRANCH  28  30
HETATM   30  C   UNK N   1      38.080  13.053  10.033  0.00  0.00     0.245 C 
BRANCH  30  31
HETATM   31  O   UNK N   1      39.227  13.455  10.718  0.00  0.00    -0.393 OA
HETATM   32  H   UNK N   1      39.339  14.062  11.465  0.00  0.00     0.209 HD
ENDBRANCH  30  31
ENDBRANCH  28  30
ENDBRANCH   9  28
BRANCH  14  33
HETATM   33  O   UNK N   1      35.342  13.115   5.465  0.00  0.00    -0.392 OA
HETATM   34  H   UNK N   1      36.012  12.415   5.503  0.00  0.00     0.210 HD
ENDBRANCH  14  33
TORSDOF 4
ENDMDL
MODEL 3
REMARK VINA RESULT:      -7.6     14.740     18.044
REMARK  4 active torsions:
REMARK  status: ('A' for Active; 'I' for Inactive)
REMARK    1  A    between atoms: C_17  and  O_5 
REMARK    2  A    between atoms: O_7  and  C_27 
REMARK    3  A    between atoms: C_12  and  C_22 
REMARK    4  A    between atoms: C_22  and  C_27 
ROOT
HETATM    1  F   UNK N   1      29.315  21.343  -6.281  0.00  0.00    -0.238 F 
HETATM    2  F   UNK N   1      31.827  21.845  -2.454  0.00  0.00    -0.245 F 
HETATM    3  O   UNK N   1      26.888  26.774  -6.180  0.00  0.00    -0.334 OA
HETATM    4  O   UNK N   1      26.115  26.363  -3.983  0.00  0.00    -0.347 OA
HETATM    5  O   UNK N   1      34.518  18.836  -5.624  0.00  0.00    -0.289 OA
HETATM    6  C   UNK N   1      28.588  24.846  -5.983  0.00  0.00     0.004 C 
HETATM    7  C   UNK N   1      28.512  23.757  -4.872  0.00  0.00     0.007 C 
HETATM    8  C   UNK N   1      29.861  23.048  -4.680  0.00  0.00     0.037 C 
HETATM    9  C   UNK N   1      27.200  25.486  -5.747  0.00  0.00     0.160 C 
HETATM   10  C   UNK N   1      30.245  22.345  -6.027  0.00  0.00     0.147 C 
HETATM   11  C   UNK N   1      27.308  25.727  -4.273  0.00  0.00     0.168 C 
HETATM   12  C   UNK N   1      27.778  24.409  -3.665  0.00  0.00     0.041 C 
HETATM   13  C   UNK N   1      28.868  24.147  -7.313  0.00  0.00     0.048 C 
HETATM   14  C   UNK N   1      30.192  23.360  -7.222  0.00  0.00     0.160 C 
HETATM   15  C   UNK N   1      31.652  21.688  -5.876  0.00  0.00     0.039 C 
HETATM   16  C   UNK N   1      29.730  21.982  -3.596  0.00  0.00     0.050 C 
HETATM   17  C   UNK N   1      29.720  25.875  -5.763  0.00  0.00     0.019 C 
HETATM   18  C   UNK N   1      31.005  21.178  -3.344  0.00  0.00     0.201 C 
HETATM   19  C   UNK N   1      26.015  27.229  -5.125  0.00  0.00     0.159 C 
HETATM   20  C   UNK N   1      31.776  20.838  -4.600  0.00  0.00    -0.027 C 
HETATM   21  C   UNK N   1      32.711  22.789  -5.755  0.00  0.00     0.028 C 
HETATM   22  C   UNK N   1      32.042  20.873  -7.100  0.00  0.00    -0.006 C 
HETATM   23  C   UNK N   1      26.401  28.643  -4.724  0.00  0.00     0.078 C 
HETATM   24  C   UNK N   1      24.577  27.247  -5.620  0.00  0.00     0.078 C 
HETATM   25  C   UNK N   1      32.771  19.932  -4.509  0.00  0.00     0.061 C 
HETATM   26  C   UNK N   1      33.013  19.950  -7.032  0.00  0.00     0.052 C 
HETATM   27  C   UNK N   1      33.539  19.558  -5.712  0.00  0.00     0.172 C 
ENDROOT
BRANCH   9  28
HETATM   28  C   UNK N   1      26.065  24.543  -6.207  0.00  0.00     0.188 C 
HETATM   29  O   UNK N   1      25.430  23.887  -5.394  0.00  0.00    -0.292 OA
BRANCH  28  30
HETATM   30  C   UNK N   1      25.712  24.428  -7.658  0.00  0.00     0.245 C 
BRANCH  30  31
HETATM   31  O   UNK N   1      25.054  23.222  -7.903  0.00  0.00    -0.393 OA
HETATM   32  H   UNK N   1      24.390  22.745  -7.381  0.00  0.00     0.209 HD
ENDBRANCH  30  31
ENDBRANCH  28  30
ENDBRANCH   9  28
BRANCH  14  33
HETATM   33  O   UNK N   1      30.410  22.719  -8.443  0.00  0.00    -0.392 OA
HETATM   34  H   UNK N   1      30.681  21.788  -8.470  0.00  0.00     0.210 HD
ENDBRANCH  14  33
TORSDOF 4
ENDMDL
MODEL 4
REMARK VINA RESULT:      -7.6      4.224      6.556
REMARK  4 active torsions:
REMARK  status: ('A' for Active; 'I' for Inactive)
REMARK    1  A    between atoms: C_17  and  O_5 
REMARK    2  A    between atoms: O_7  and  C_27 
REMARK    3  A    between atoms: C_12  and  C_22 
REMARK    4  A    between atoms: C_22  and  C_27 
ROOT
HETATM    1  F   UNK N   1      36.992  12.412  15.420  0.00  0.00    -0.238 F 
HETATM    2  F   UNK N   1      37.430   7.839  15.750  0.00  0.00    -0.245 F 
HETATM    3  O   UNK N   1      35.063  12.475   9.793  0.00  0.00    -0.334 OA
HETATM    4  O   UNK N   1      36.976  11.243   9.147  0.00  0.00    -0.347 OA
HETATM    5  O   UNK N   1      36.005   9.541  20.378  0.00  0.00    -0.289 OA
HETATM    6  C   UNK N   1      35.412  11.798  12.256  0.00  0.00     0.004 C 
HETATM    7  C   UNK N   1      36.746  11.196  12.790  0.00  0.00     0.007 C 
HETATM    8  C   UNK N   1      36.538  10.447  14.116  0.00  0.00     0.037 C 
HETATM    9  C   UNK N   1      35.923  12.242  10.865  0.00  0.00     0.160 C 
HETATM   10  C   UNK N   1      36.001  11.466  15.178  0.00  0.00     0.147 C 
HETATM   11  C   UNK N   1      36.541  10.950  10.427  0.00  0.00     0.168 C 
HETATM   12  C   UNK N   1      37.429  10.496  11.581  0.00  0.00     0.041 C 
HETATM   13  C   UNK N   1      34.940  12.860  13.248  0.00  0.00     0.048 C 
HETATM   14  C   UNK N   1      34.738  12.225  14.639  0.00  0.00     0.160 C 
HETATM   15  C   UNK N   1      35.706  10.707  16.510  0.00  0.00     0.039 C 
HETATM   16  C   UNK N   1      37.873   9.893  14.605  0.00  0.00     0.050 C 
HETATM   17  C   UNK N   1      34.274  10.761  12.125  0.00  0.00     0.019 C 
HETATM   18  C   UNK N   1      37.797   9.159  15.943  0.00  0.00     0.201 C 
HETATM   19  C   UNK N   1      35.860  12.018   8.680  0.00  0.00     0.159 C 
HETATM   20  C   UNK N   1      36.874   9.808  16.950  0.00  0.00    -0.027 C 
HETATM   21  C   UNK N   1      34.510   9.773  16.301  0.00  0.00     0.028 C 
HETATM   22  C   UNK N   1      35.304  11.649  17.634  0.00  0.00    -0.006 C 
HETATM   23  C   UNK N   1      35.002  11.166   7.759  0.00  0.00     0.078 C 
HETATM   24  C   UNK N   1      36.372  13.212   7.890  0.00  0.00     0.078 C 
HETATM   25  C   UNK N   1      36.928   9.382  18.228  0.00  0.00     0.061 C 
HETATM   26  C   UNK N   1      35.369  11.258  18.915  0.00  0.00     0.052 C 
HETATM   27  C   UNK N   1      36.057   9.997  19.248  0.00  0.00     0.172 C 
ENDROOT
BRANCH   9  28
HETATM   28  C   UNK N   1      36.876  13.454  10.981  0.00  0.00     0.188 C 
HETATM   29  O   UNK N   1      38.088  13.299  10.962  0.00  0.00    -0.292 OA
BRANCH  28  30
HETATM   30  C   UNK N   1      36.329  14.843  11.103  0.00  0.00     0.245 C 
BRANCH  30  31
HETATM   31  O   UNK N   1      37.279  15.777  10.687  0.00  0.00    -0.393 OA
HETATM   32  H   UNK N   1      37.793  15.834   9.867  0.00  0.00     0.209 HD
ENDBRANCH  30  31
ENDBRANCH  28  30
ENDBRANCH   9  28
BRANCH  14  33
HETATM   33  O   UNK N   1      34.326  13.221  15.525  0.00  0.00    -0.392 OA
HETATM   34  H   UNK N   1      34.978  13.774  15.983  0.00  0.00     0.210 HD
ENDBRANCH  14  33
TORSDOF 4
ENDMDL
MODEL 5
REMARK VINA RESULT:      -7.6      1.954      7.721
REMARK  4 active torsions:
REMARK  status: ('A' for Active; 'I' for Inactive)
REMARK    1  A    between atoms: C_17  and  O_5 
REMARK    2  A    between atoms: O_7  and  C_27 
REMARK    3  A    between atoms: C_12  and  C_22 
REMARK    4  A    between atoms: C_22  and  C_27 
ROOT
HETATM    1  F   UNK N   1      33.787  15.361  10.511  0.00  0.00    -0.238 F 
HETATM    2  F   UNK N   1      33.201  12.767   6.750  0.00  0.00    -0.245 F 
HETATM    3  O   UNK N   1      37.543  11.663  13.269  0.00  0.00    -0.334 OA
HETATM    4  O   UNK N   1      35.955   9.924  13.052  0.00  0.00    -0.347 OA
HETATM    5  O   UNK N   1      32.960  17.667   5.239  0.00  0.00    -0.289 OA
HETATM    6  C   UNK N   1      36.355  13.028  11.434  0.00  0.00     0.004 C 
HETATM    7  C   UNK N   1      34.911  12.714  10.941  0.00  0.00     0.007 C 
HETATM    8  C   UNK N   1      34.638  13.326   9.559  0.00  0.00     0.037 C 
HETATM    9  C   UNK N   1      36.362  12.103  12.673  0.00  0.00     0.160 C 
HETATM   10  C   UNK N   1      34.787  14.882   9.671  0.00  0.00     0.147 C 
HETATM   11  C   UNK N   1      35.917  10.835  12.012  0.00  0.00     0.168 C 
HETATM   12  C   UNK N   1      34.679  11.197  11.198  0.00  0.00     0.041 C 
HETATM   13  C   UNK N   1      36.468  14.539  11.634  0.00  0.00     0.048 C 
HETATM   14  C   UNK N   1      36.168  15.267  10.307  0.00  0.00     0.160 C 
HETATM   15  C   UNK N   1      34.593  15.516   8.259  0.00  0.00     0.039 C 
HETATM   16  C   UNK N   1      33.209  13.005   9.130  0.00  0.00     0.050 C 
HETATM   17  C   UNK N   1      37.454  12.619  10.428  0.00  0.00     0.019 C 
HETATM   18  C   UNK N   1      32.807  13.600   7.781  0.00  0.00     0.201 C 
HETATM   19  C   UNK N   1      37.174  10.333  13.693  0.00  0.00     0.159 C 
HETATM   20  C   UNK N   1      33.333  14.998   7.545  0.00  0.00    -0.027 C 
HETATM   21  C   UNK N   1      35.776  15.126   7.366  0.00  0.00     0.028 C 
HETATM   22  C   UNK N   1      34.594  17.037   8.304  0.00  0.00    -0.006 C 
HETATM   23  C   UNK N   1      38.286   9.362  13.335  0.00  0.00     0.078 C 
HETATM   24  C   UNK N   1      36.983  10.309  15.201  0.00  0.00     0.078 C 
HETATM   25  C   UNK N   1      32.835  15.697   6.504  0.00  0.00     0.061 C 
HETATM   26  C   UNK N   1      34.085  17.755   7.292  0.00  0.00     0.052 C 
HETATM   27  C   UNK N   1      33.308  17.070   6.244  0.00  0.00     0.172 C 
ENDROOT
BRANCH   9  28
HETATM   28  C   UNK N   1      35.444  12.655  13.788  0.00  0.00     0.188 C 
HETATM   29  O   UNK N   1      34.351  12.152  14.002  0.00  0.00    -0.292 OA
BRANCH  28  30
HETATM   30  C   UNK N   1      35.886  13.808  14.636  0.00  0.00     0.245 C 
BRANCH  30  31
HETATM   31  O   UNK N   1      37.238  13.684  14.955  0.00  0.00    -0.393 OA
HETATM   32  H   UNK N   1      38.032  13.885  14.436  0.00  0.00     0.209 HD
ENDBRANCH  30  31
ENDBRANCH  28  30
ENDBRANCH   9  28
BRANCH  14  33
HETATM   33  O   UNK N   1      36.261  16.642  10.526  0.00  0.00    -0.392 OA
HETATM   34  H   UNK N   1      35.999  17.271   9.835  0.00  0.00     0.210 HD
ENDBRANCH  14  33
TORSDOF 4
ENDMDL
MODEL 6
REMARK VINA RESULT:      -7.5      5.306      8.191
REMARK  4 active torsions:
REMARK  status: ('A' for Active; 'I' for Inactive)
REMARK    1  A    between atoms: C_17  and  O_5 
REMARK    2  A    between atoms: O_7  and  C_27 
REMARK    3  A    between atoms: C_12  and  C_22 
REMARK    4  A    between atoms: C_22  and  C_27 
ROOT
HETATM    1  F   UNK N   1      29.291  18.232   5.517  0.00  0.00    -0.238 F 
HETATM    2  F   UNK N   1      32.500  15.762   3.324  0.00  0.00    -0.245 F 
HETATM    3  O   UNK N   1      24.732  14.616   4.282  0.00  0.00    -0.334 OA
HETATM    4  O   UNK N   1      25.245  14.792   1.980  0.00  0.00    -0.347 OA
HETATM    5  O   UNK N   1      34.784  17.905   7.390  0.00  0.00    -0.289 OA
HETATM    6  C   UNK N   1      27.083  15.468   4.909  0.00  0.00     0.004 C 
HETATM    7  C   UNK N   1      28.029  16.176   3.894  0.00  0.00     0.007 C 
HETATM    8  C   UNK N   1      29.492  16.137   4.361  0.00  0.00     0.037 C 
HETATM    9  C   UNK N   1      25.799  15.482   4.047  0.00  0.00     0.160 C 
HETATM   10  C   UNK N   1      29.593  16.891   5.731  0.00  0.00     0.147 C 
HETATM   11  C   UNK N   1      26.357  14.875   2.798  0.00  0.00     0.168 C 
HETATM   12  C   UNK N   1      27.630  15.655   2.484  0.00  0.00     0.041 C 
HETATM   13  C   UNK N   1      27.110  16.262   6.215  0.00  0.00     0.048 C 
HETATM   14  C   UNK N   1      28.552  16.326   6.759  0.00  0.00     0.160 C 
HETATM   15  C   UNK N   1      31.057  16.791   6.261  0.00  0.00     0.039 C 
HETATM   16  C   UNK N   1      30.373  16.856   3.344  0.00  0.00     0.050 C 
HETATM   17  C   UNK N   1      27.509  14.022   5.248  0.00  0.00     0.019 C 
HETATM   18  C   UNK N   1      31.852  16.917   3.723  0.00  0.00     0.201 C 
HETATM   19  C   UNK N   1      24.266  14.362   2.939  0.00  0.00     0.159 C 
HETATM   20  C   UNK N   1      32.100  17.165   5.194  0.00  0.00    -0.027 C 
HETATM   21  C   UNK N   1      31.352  15.340   6.652  0.00  0.00     0.028 C 
HETATM   22  C   UNK N   1      31.269  17.611   7.525  0.00  0.00    -0.006 C 
HETATM   23  C   UNK N   1      24.005  12.876   2.766  0.00  0.00     0.078 C 
HETATM   24  C   UNK N   1      22.964  15.110   2.699  0.00  0.00     0.078 C 
HETATM   25  C   UNK N   1      33.353  17.477   5.583  0.00  0.00     0.061 C 
HETATM   26  C   UNK N   1      32.503  17.955   7.922  0.00  0.00     0.052 C 
HETATM   27  C   UNK N   1      33.638  17.743   7.006  0.00  0.00     0.172 C 
ENDROOT
BRANCH   9  28
HETATM   28  C   UNK N   1      25.228  16.914   3.919  0.00  0.00     0.188 C 
HETATM   29  O   UNK N   1      25.560  17.638   2.993  0.00  0.00    -0.292 OA
BRANCH  28  30
HETATM   30  C   UNK N   1      24.242  17.432   4.921  0.00  0.00     0.245 C 
BRANCH  30  31
HETATM   31  O   UNK N   1      24.630  18.693   5.374  0.00  0.00    -0.393 OA
HETATM   32  H   UNK N   1      24.609  19.081   6.263  0.00  0.00     0.209 HD
ENDBRANCH  30  31
ENDBRANCH  28  30
ENDBRANCH   9  28
BRANCH  14  33
HETATM   33  O   UNK N   1      28.547  17.071   7.939  0.00  0.00    -0.392 OA
HETATM   34  H   UNK N   1      28.544  16.629   8.802  0.00  0.00     0.210 HD
ENDBRANCH  14  33
TORSDOF 4
ENDMDL
MODEL 7
REMARK VINA RESULT:      -7.3      3.530      5.708
REMARK  4 active torsions:
REMARK  status: ('A' for Active; 'I' for Inactive)
REMARK    1  A    between atoms: C_17  and  O_5 
REMARK    2  A    between atoms: O_7  and  C_27 
REMARK    3  A    between atoms: C_12  and  C_22 
REMARK    4  A    between atoms: C_22  and  C_27 
ROOT
HETATM    1  F   UNK N   1      33.957  11.843  13.655  0.00  0.00    -0.238 F 
HETATM    2  F   UNK N   1      37.350  14.069  15.832  0.00  0.00    -0.245 F 
HETATM    3  O   UNK N   1      36.456  11.971   8.258  0.00  0.00    -0.334 OA
HETATM    4  O   UNK N   1      36.649  14.322   8.427  0.00  0.00    -0.347 OA
HETATM    5  O   UNK N   1      35.423  10.666  19.155  0.00  0.00    -0.289 OA
HETATM    6  C   UNK N   1      36.144  11.774  10.809  0.00  0.00     0.004 C 
HETATM    7  C   UNK N   1      35.798  12.991  11.719  0.00  0.00     0.007 C 
HETATM    8  C   UNK N   1      36.146  12.715  13.189  0.00  0.00     0.037 C 
HETATM    9  C   UNK N   1      35.905  12.458   9.442  0.00  0.00     0.160 C 
HETATM   10  C   UNK N   1      35.302  11.487  13.674  0.00  0.00     0.147 C 
HETATM   11  C   UNK N   1      36.757  13.673   9.644  0.00  0.00     0.168 C 
HETATM   12  C   UNK N   1      36.349  14.253  10.994  0.00  0.00     0.041 C 
HETATM   13  C   UNK N   1      35.250  10.605  11.221  0.00  0.00     0.048 C 
HETATM   14  C   UNK N   1      35.486  10.265  12.707  0.00  0.00     0.160 C 
HETATM   15  C   UNK N   1      35.701  11.141  15.142  0.00  0.00     0.039 C 
HETATM   16  C   UNK N   1      35.773  13.927  14.039  0.00  0.00     0.050 C 
HETATM   17  C   UNK N   1      37.608  11.298  10.944  0.00  0.00     0.019 C 
HETATM   18  C   UNK N   1      36.037  13.753  15.534  0.00  0.00     0.201 C 
HETATM   19  C   UNK N   1      36.725  13.194   7.540  0.00  0.00     0.159 C 
HETATM   20  C   UNK N   1      35.707  12.375  16.061  0.00  0.00    -0.027 C 
HETATM   21  C   UNK N   1      37.132  10.595  15.157  0.00  0.00     0.028 C 
HETATM   22  C   UNK N   1      34.832  10.040  15.731  0.00  0.00    -0.006 C 
HETATM   23  C   UNK N   1      38.112  13.126   6.924  0.00  0.00     0.078 C 
HETATM   24  C   UNK N   1      35.710  13.366   6.420  0.00  0.00     0.078 C 
HETATM   25  C   UNK N   1      35.672  12.197  17.397  0.00  0.00     0.061 C 
HETATM   26  C   UNK N   1      34.762   9.856  17.058  0.00  0.00     0.052 C 
HETATM   27  C   UNK N   1      35.339  10.873  17.957  0.00  0.00     0.172 C 
ENDROOT
BRANCH   9  28
HETATM   28  C   UNK N   1      34.399  12.708   9.198  0.00  0.00     0.188 C 
HETATM   29  O   UNK N   1      33.906  13.805   9.411  0.00  0.00    -0.292 OA
BRANCH  28  30
HETATM   30  C   UNK N   1      33.520  11.611   8.680  0.00  0.00     0.245 C 
BRANCH  30  31
HETATM   31  O   UNK N   1      32.347  11.533   9.432  0.00  0.00    -0.393 OA
HETATM   32  H   UNK N   1      32.038  12.068  10.179  0.00  0.00     0.209 HD
ENDBRANCH  30  31
ENDBRANCH  28  30
ENDBRANCH   9  28
BRANCH  14  33
HETATM   33  O   UNK N   1      34.644   9.209  13.059  0.00  0.00    -0.392 OA
HETATM   34  H   UNK N   1      33.926   9.341  13.696  0.00  0.00     0.210 HD
ENDBRANCH  14  33
TORSDOF 4
ENDMDL
MODEL 8
REMARK VINA RESULT:      -7.3     11.323     15.193
REMARK  4 active torsions:
REMARK  status: ('A' for Active; 'I' for Inactive)
REMARK    1  A    between atoms: C_17  and  O_5 
REMARK    2  A    between atoms: O_7  and  C_27 
REMARK    3  A    between atoms: C_12  and  C_22 
REMARK    4  A    between atoms: C_22  and  C_27 
ROOT
HETATM    1  F   UNK N   1      19.797  15.347   5.175  0.00  0.00    -0.238 F 
HETATM    2  F   UNK N   1      21.966  12.899   1.933  0.00  0.00    -0.245 F 
HETATM    3  O   UNK N   1      23.349  13.755   9.674  0.00  0.00    -0.334 OA
HETATM    4  O   UNK N   1      22.924  11.482   9.176  0.00  0.00    -0.347 OA
HETATM    5  O   UNK N   1      20.215  17.159  -0.332  0.00  0.00    -0.289 OA
HETATM    6  C   UNK N   1      22.523  14.461   7.336  0.00  0.00     0.004 C 
HETATM    7  C   UNK N   1      21.696  13.522   6.408  0.00  0.00     0.007 C 
HETATM    8  C   UNK N   1      21.757  13.978   4.942  0.00  0.00     0.037 C 
HETATM    9  C   UNK N   1      22.443  13.609   8.625  0.00  0.00     0.160 C 
HETATM   10  C   UNK N   1      21.147  15.419   4.848  0.00  0.00     0.147 C 
HETATM   11  C   UNK N   1      22.906  12.301   8.061  0.00  0.00     0.168 C 
HETATM   12  C   UNK N   1      22.075  12.067   6.805  0.00  0.00     0.041 C 
HETATM   13  C   UNK N   1      21.869  15.842   7.317  0.00  0.00     0.048 C 
HETATM   14  C   UNK N   1      21.835  16.386   5.874  0.00  0.00     0.160 C 
HETATM   15  C   UNK N   1      21.274  15.931   3.380  0.00  0.00     0.039 C 
HETATM   16  C   UNK N   1      20.919  13.039   4.079  0.00  0.00     0.050 C 
HETATM   17  C   UNK N   1      23.988  14.646   6.882  0.00  0.00     0.019 C 
HETATM   18  C   UNK N   1      20.871  13.418   2.600  0.00  0.00     0.201 C 
HETATM   19  C   UNK N   1      23.469  12.395  10.142  0.00  0.00     0.159 C 
HETATM   20  C   UNK N   1      20.773  14.906   2.349  0.00  0.00    -0.027 C 
HETATM   21  C   UNK N   1      22.753  16.168   3.057  0.00  0.00     0.028 C 
HETATM   22  C   UNK N   1      20.587  17.273   3.177  0.00  0.00    -0.006 C 
HETATM   23  C   UNK N   1      24.934  12.069  10.378  0.00  0.00     0.078 C 
HETATM   24  C   UNK N   1      22.725  12.238  11.459  0.00  0.00     0.078 C 
HETATM   25  C   UNK N   1      20.479  15.322   1.100  0.00  0.00     0.061 C 
HETATM   26  C   UNK N   1      20.264  17.701   1.947  0.00  0.00     0.052 C 
HETATM   27  C   UNK N   1      20.358  16.764   0.813  0.00  0.00     0.172 C 
ENDROOT
BRANCH   9  28
HETATM   28  C   UNK N   1      21.017  13.632   9.222  0.00  0.00     0.188 C 
HETATM   29  O   UNK N   1      20.465  12.596   9.562  0.00  0.00    -0.292 OA
BRANCH  28  30
HETATM   30  C   UNK N   1      20.291  14.930   9.409  0.00  0.00     0.245 C 
BRANCH  30  31
HETATM   31  O   UNK N   1      18.936  14.697   9.647  0.00  0.00    -0.393 OA
HETATM   32  H   UNK N   1      18.469  13.890   9.912  0.00  0.00     0.209 HD
ENDBRANCH  30  31
ENDBRANCH  28  30
ENDBRANCH   9  28
BRANCH  14  33
HETATM   33  O   UNK N   1      21.217  17.637   5.886  0.00  0.00    -0.392 OA
HETATM   34  H   UNK N   1      21.686  18.422   5.562  0.00  0.00     0.210 HD
ENDBRANCH  14  33
TORSDOF 4
ENDMDL
MODEL 9
REMARK VINA RESULT:      -7.2      5.078      8.432
REMARK  4 active torsions:
REMARK  status: ('A' for Active; 'I' for Inactive)
REMARK    1  A    between atoms: C_17  and  O_5 
REMARK    2  A    between atoms: O_7  and  C_27 
REMARK    3  A    between atoms: C_12  and  C_22 
REMARK    4  A    between atoms: C_22  and  C_27 
ROOT
HETATM    1  F   UNK N   1      30.937  18.015   4.966  0.00  0.00    -0.238 F 
HETATM    2  F   UNK N   1      28.816  17.129   8.957  0.00  0.00    -0.245 F 
HETATM    3  O   UNK N   1      32.599  12.411   3.857  0.00  0.00    -0.334 OA
HETATM    4  O   UNK N   1      33.658  12.331   5.970  0.00  0.00    -0.347 OA
HETATM    5  O   UNK N   1      26.228  20.945   6.704  0.00  0.00    -0.289 OA
HETATM    6  C   UNK N   1      31.209  14.455   4.589  0.00  0.00     0.004 C 
HETATM    7  C   UNK N   1      31.555  15.312   5.844  0.00  0.00     0.007 C 
HETATM    8  C   UNK N   1      30.343  16.125   6.325  0.00  0.00     0.037 C 
HETATM    9  C   UNK N   1      32.515  13.628   4.532  0.00  0.00     0.160 C 
HETATM   10  C   UNK N   1      29.913  17.097   5.173  0.00  0.00     0.147 C 
HETATM   11  C   UNK N   1      32.538  13.142   5.948  0.00  0.00     0.168 C 
HETATM   12  C   UNK N   1      32.321  14.374   6.819  0.00  0.00     0.041 C 
HETATM   13  C   UNK N   1      30.883  15.408   3.440  0.00  0.00     0.048 C 
HETATM   14  C   UNK N   1      29.696  16.313   3.831  0.00  0.00     0.160 C 
HETATM   15  C   UNK N   1      28.633  17.874   5.613  0.00  0.00     0.039 C 
HETATM   16  C   UNK N   1      30.737  16.958   7.541  0.00  0.00     0.050 C 
HETATM   17  C   UNK N   1      29.980  13.540   4.785  0.00  0.00     0.019 C 
HETATM   18  C   UNK N   1      29.618  17.845   8.087  0.00  0.00     0.201 C 
HETATM   19  C   UNK N   1      33.513  11.677   4.699  0.00  0.00     0.159 C 
HETATM   20  C   UNK N   1      28.768  18.491   7.016  0.00  0.00    -0.027 C 
HETATM   21  C   UNK N   1      27.455  16.898   5.691  0.00  0.00     0.028 C 
HETATM   22  C   UNK N   1      28.226  18.934   4.601  0.00  0.00    -0.006 C 
HETATM   23  C   UNK N   1      32.985  10.268   4.911  0.00  0.00     0.078 C 
HETATM   24  C   UNK N   1      34.872  11.584   4.023  0.00  0.00     0.078 C 
HETATM   25  C   UNK N   1      27.921  19.474   7.384  0.00  0.00     0.061 C 
HETATM   26  C   UNK N   1      27.403  19.935   4.946  0.00  0.00     0.052 C 
HETATM   27  C   UNK N   1      27.083  20.143   6.370  0.00  0.00     0.172 C 
ENDROOT
BRANCH   9  28
HETATM   28  C   UNK N   1      33.711  14.502   4.087  0.00  0.00     0.188 C 
HETATM   29  O   UNK N   1      34.564  14.848   4.890  0.00  0.00    -0.292 OA
BRANCH  28  30
HETATM   30  C   UNK N   1      33.853  14.926   2.657  0.00  0.00     0.245 C 
BRANCH  30  31
HETATM   31  O   UNK N   1      33.606  13.849   1.805  0.00  0.00    -0.393 OA
HETATM   32  H   UNK N   1      33.874  13.694   0.886  0.00  0.00     0.209 HD
ENDBRANCH  30  31
ENDBRANCH  28  30
ENDBRANCH   9  28
BRANCH  14  33
HETATM   33  O   UNK N   1      29.434  17.183   2.772  0.00  0.00    -0.392 OA
HETATM   34  H   UNK N   1      28.951  18.010   2.920  0.00  0.00     0.210 HD
ENDBRANCH  14  33
TORSDOF 4
ENDMDL
