REMARK  4 active torsions:
REMARK  status: ('A' for Active; 'I' for Inactive)
REMARK    1  A    between atoms: N_6  and  C_13 
REMARK    2  A    between atoms: N_7  and  C_15 
REMARK    3  A    between atoms: N_8  and  C_14 
REMARK       I    between atoms: N_8  and  C_23 
REMARK    4  A    between atoms: C_9  and  C_14 
ROOT
HETATM    1  F   UNK N   1       1.121  -3.228  -0.085  0.00  0.00    -0.204 F 
HETATM    2  C   UNK N   1       3.502  -0.486   0.340  0.00  0.00     0.042 A 
HETATM    3  C   UNK N   1       3.487  -3.312   0.428  0.00  0.00     0.069 A 
HETATM    4  C   UNK N   1       2.315  -1.197   0.118  0.00  0.00     0.074 A 
HETATM    5  C   UNK N   1       4.673  -1.196   0.626  0.00  0.00     0.032 A 
HETATM    6  C   UNK N   1       2.294  -2.595   0.162  0.00  0.00     0.145 A 
HETATM    7  C   UNK N   1       4.665  -2.588   0.666  0.00  0.00     0.035 A 
ENDROOT
BRANCH   2   8
HETATM    8  N   UNK N   1       3.508   0.940   0.246  0.00  0.00    -0.291 N 
HETATM    9  C   UNK N   1       2.343   1.725  -0.051  0.00  0.00     0.168 A 
HETATM   10  C   UNK N   1       2.897   3.171   0.031  0.00  0.00     0.170 A 
HETATM   11  O   UNK N   1       4.257   3.034   0.253  0.00  0.00    -0.295 OA
HETATM   12  C   UNK N   1       4.565   1.747   0.392  0.00  0.00     0.368 A 
HETATM   13  O   UNK N   1       5.698   1.361   0.632  0.00  0.00    -0.238 OA
BRANCH  10  14
HETATM   14  C   UNK N   1       2.623   3.963  -1.237  0.00  0.00     0.156 C 
BRANCH  14  15
HETATM   15  N   UNK N   1       2.935   5.356  -1.008  0.00  0.00    -0.359 N 
HETATM   16  C   UNK N   1       2.280   6.099  -0.080  0.00  0.00     0.213 C 
HETATM   17  O   UNK N   1       1.380   5.612   0.589  0.00  0.00    -0.274 OA
HETATM   18  C   UNK N   1       2.673   7.516   0.143  0.00  0.00     0.117 C 
HETATM   19  H   UNK N   1       3.645   5.779  -1.542  0.00  0.00     0.162 HD
ENDBRANCH  14  15
ENDBRANCH  10  14
ENDBRANCH   2   8
BRANCH   3  20
HETATM   20  N   UNK N   1       3.533  -4.745   0.443  0.00  0.00    -0.374 N 
HETATM   21  C   UNK N   1       4.805  -5.433   0.508  0.00  0.00     0.149 C 
HETATM   22  C   UNK N   1       4.885  -6.365  -0.703  0.00  0.00     0.187 C 
HETATM   23  O   UNK N   1       3.794  -7.257  -0.672  0.00  0.00    -0.388 OA
HETATM   24  C   UNK N   1       2.632  -6.503  -0.935  0.00  0.00     0.187 C 
HETATM   25  C   UNK N   1       2.354  -5.560   0.239  0.00  0.00     0.149 C 
ENDBRANCH   3  20
TORSDOF 4
