MODEL 1
REMARK VINA RESULT:      -7.1      0.000      0.000
REMARK  4 active torsions:
REMARK  status: ('A' for Active; 'I' for Inactive)
REMARK    1  A    between atoms: N_6  and  C_13 
REMARK    2  A    between atoms: N_7  and  C_15 
REMARK    3  A    between atoms: N_8  and  C_14 
REMARK       I    between atoms: N_8  and  C_23 
REMARK    4  A    between atoms: C_9  and  C_14 
ROOT
HETATM    1  F   UNK N   1      28.740  18.400   8.893  0.00  0.00    -0.204 F 
HETATM    2  C   UNK N   1      32.093  17.203   8.057  0.00  0.00     0.042 A 
HETATM    3  C   UNK N   1      29.608  17.614   6.772  0.00  0.00     0.069 A 
HETATM    4  C   UNK N   1      30.994  17.695   8.775  0.00  0.00     0.074 A 
HETATM    5  C   UNK N   1      31.933  16.900   6.701  0.00  0.00     0.032 A 
HETATM    6  C   UNK N   1      29.759  17.899   8.152  0.00  0.00     0.145 A 
HETATM    7  C   UNK N   1      30.710  17.106   6.068  0.00  0.00     0.035 A 
ENDROOT
BRANCH   2   8
HETATM    8  N   UNK N   1      33.356  17.045   8.705  0.00  0.00    -0.291 N 
HETATM    9  C   UNK N   1      33.717  15.890   9.478  0.00  0.00     0.168 A 
HETATM   10  C   UNK N   1      35.178  16.215   9.884  0.00  0.00     0.170 A 
HETATM   11  O   UNK N   1      35.420  17.490   9.403  0.00  0.00    -0.295 OA
HETATM   12  C   UNK N   1      34.365  17.923   8.717  0.00  0.00     0.368 A 
HETATM   13  O   UNK N   1      34.340  19.008   8.159  0.00  0.00    -0.238 OA
BRANCH  10  14
HETATM   14  C   UNK N   1      35.384  16.145  11.388  0.00  0.00     0.156 C 
BRANCH  14  15
HETATM   15  N   UNK N   1      36.312  15.080  11.695  0.00  0.00    -0.359 N 
HETATM   16  C   UNK N   1      35.933  13.963  12.367  0.00  0.00     0.213 C 
HETATM   17  O   UNK N   1      34.781  13.828  12.755  0.00  0.00    -0.274 OA
HETATM   18  C   UNK N   1      36.921  12.880  12.616  0.00  0.00     0.117 C 
HETATM   19  H   UNK N   1      37.249  15.168  11.409  0.00  0.00     0.162 HD
ENDBRANCH  14  15
ENDBRANCH  10  14
ENDBRANCH   2   8
BRANCH   3  20
HETATM   20  N   UNK N   1      28.378  17.845   6.072  0.00  0.00    -0.374 N 
HETATM   21  C   UNK N   1      27.691  16.748   5.424  0.00  0.00     0.149 C 
HETATM   22  C   UNK N   1      27.526  17.117   3.948  0.00  0.00     0.187 C 
HETATM   23  O   UNK N   1      26.809  18.326   3.852  0.00  0.00    -0.388 OA
HETATM   24  C   UNK N   1      27.650  19.349   4.337  0.00  0.00     0.187 C 
HETATM   25  C   UNK N   1      27.853  19.175   5.845  0.00  0.00     0.149 C 
ENDBRANCH   3  20
TORSDOF 4
ENDMDL
MODEL 2
REMARK VINA RESULT:      -7.0      1.082      1.462
REMARK  4 active torsions:
REMARK  status: ('A' for Active; 'I' for Inactive)
REMARK    1  A    between atoms: N_6  and  C_13 
REMARK    2  A    between atoms: N_7  and  C_15 
REMARK    3  A    between atoms: N_8  and  C_14 
REMARK       I    between atoms: N_8  and  C_23 
REMARK    4  A    between atoms: C_9  and  C_14 
ROOT
HETATM    1  F   UNK N   1      30.986  16.925   4.545  0.00  0.00    -0.204 F 
HETATM    2  C   UNK N   1      32.255  17.277   7.956  0.00  0.00     0.042 A 
HETATM    3  C   UNK N   1      29.796  17.493   6.577  0.00  0.00     0.069 A 
HETATM    4  C   UNK N   1      32.196  17.062   6.573  0.00  0.00     0.074 A 
HETATM    5  C   UNK N   1      31.083  17.620   8.639  0.00  0.00     0.032 A 
HETATM    6  C   UNK N   1      30.986  17.169   5.879  0.00  0.00     0.145 A 
HETATM    7  C   UNK N   1      29.872  17.723   7.959  0.00  0.00     0.035 A 
ENDROOT
BRANCH   2   8
HETATM    8  N   UNK N   1      33.494  17.118   8.650  0.00  0.00    -0.291 N 
HETATM    9  C   UNK N   1      33.847  15.942   9.395  0.00  0.00     0.168 A 
HETATM   10  C   UNK N   1      35.283  16.280   9.873  0.00  0.00     0.170 A 
HETATM   11  O   UNK N   1      35.518  17.577   9.450  0.00  0.00    -0.295 OA
HETATM   12  C   UNK N   1      34.484  18.014   8.736  0.00  0.00     0.368 A 
HETATM   13  O   UNK N   1      34.459  19.119   8.217  0.00  0.00    -0.238 OA
BRANCH  10  14
HETATM   14  C   UNK N   1      35.428  16.158  11.381  0.00  0.00     0.156 C 
BRANCH  14  15
HETATM   15  N   UNK N   1      36.329  15.069  11.688  0.00  0.00    -0.359 N 
HETATM   16  C   UNK N   1      35.915  13.953  12.341  0.00  0.00     0.213 C 
HETATM   17  O   UNK N   1      34.756  13.839  12.711  0.00  0.00    -0.274 OA
HETATM   18  C   UNK N   1      36.876  12.846  12.592  0.00  0.00     0.117 C 
HETATM   19  H   UNK N   1      37.272  15.139  11.416  0.00  0.00     0.162 HD
ENDBRANCH  14  15
ENDBRANCH  10  14
ENDBRANCH   2   8
BRANCH   3  20
HETATM   20  N   UNK N   1      28.522  17.574   5.925  0.00  0.00    -0.374 N 
HETATM   21  C   UNK N   1      27.891  16.379   5.407  0.00  0.00     0.149 C 
HETATM   22  C   UNK N   1      27.632  16.606   3.916  0.00  0.00     0.187 C 
HETATM   23  O   UNK N   1      26.822  17.748   3.757  0.00  0.00    -0.388 OA
HETATM   24  C   UNK N   1      27.605  18.866   4.111  0.00  0.00     0.187 C 
HETATM   25  C   UNK N   1      27.889  18.839   5.615  0.00  0.00     0.149 C 
ENDBRANCH   3  20
TORSDOF 4
ENDMDL
MODEL 3
REMARK VINA RESULT:      -6.6     12.960     15.073
REMARK  4 active torsions:
REMARK  status: ('A' for Active; 'I' for Inactive)
REMARK    1  A    between atoms: N_6  and  C_13 
REMARK    2  A    between atoms: N_7  and  C_15 
REMARK    3  A    between atoms: N_8  and  C_14 
REMARK       I    between atoms: N_8  and  C_23 
REMARK    4  A    between atoms: C_9  and  C_14 
ROOT
HETATM    1  F   UNK N   1      26.107  25.135  -4.086  0.00  0.00    -0.204 F 
HETATM    2  C   UNK N   1      29.686  24.429  -3.840  0.00  0.00     0.042 A 
HETATM    3  C   UNK N   1      27.986  26.658  -4.208  0.00  0.00     0.069 A 
HETATM    4  C   UNK N   1      28.295  24.261  -3.888  0.00  0.00     0.074 A 
HETATM    5  C   UNK N   1      30.219  25.712  -3.998  0.00  0.00     0.032 A 
HETATM    6  C   UNK N   1      27.444  25.356  -4.072  0.00  0.00     0.145 A 
HETATM    7  C   UNK N   1      29.381  26.810  -4.176  0.00  0.00     0.035 A 
ENDROOT
BRANCH   2   8
HETATM    8  N   UNK N   1      30.533  23.301  -3.607  0.00  0.00    -0.291 N 
HETATM    9  C   UNK N   1      31.229  22.597  -4.646  0.00  0.00     0.168 A 
HETATM   10  C   UNK N   1      32.023  21.535  -3.843  0.00  0.00     0.170 A 
HETATM   11  O   UNK N   1      31.623  21.692  -2.526  0.00  0.00    -0.295 OA
HETATM   12  C   UNK N   1      30.789  22.724  -2.427  0.00  0.00     0.368 A 
HETATM   13  O   UNK N   1      30.320  23.095  -1.363  0.00  0.00    -0.238 OA
BRANCH  10  14
HETATM   14  C   UNK N   1      31.752  20.123  -4.335  0.00  0.00     0.156 C 
BRANCH  14  15
HETATM   15  N   UNK N   1      32.906  19.293  -4.069  0.00  0.00    -0.359 N 
HETATM   16  C   UNK N   1      33.898  19.124  -4.979  0.00  0.00     0.213 C 
HETATM   17  O   UNK N   1      33.839  19.662  -6.076  0.00  0.00    -0.274 OA
HETATM   18  C   UNK N   1      35.083  18.294  -4.634  0.00  0.00     0.117 C 
HETATM   19  H   UNK N   1      32.973  18.837  -3.200  0.00  0.00     0.162 HD
ENDBRANCH  14  15
ENDBRANCH  10  14
ENDBRANCH   2   8
BRANCH   3  20
HETATM   20  N   UNK N   1      27.160  27.821  -4.356  0.00  0.00    -0.374 N 
HETATM   21  C   UNK N   1      27.218  28.606  -5.571  0.00  0.00     0.149 C 
HETATM   22  C   UNK N   1      27.568  30.041  -5.174  0.00  0.00     0.187 C 
HETATM   23  O   UNK N   1      26.595  30.522  -4.274  0.00  0.00    -0.388 OA
HETATM   24  C   UNK N   1      26.760  29.815  -3.065  0.00  0.00     0.187 C 
HETATM   25  C   UNK N   1      26.364  28.349  -3.268  0.00  0.00     0.149 C 
ENDBRANCH   3  20
TORSDOF 4
ENDMDL
MODEL 4
REMARK VINA RESULT:      -6.5      2.040      2.496
REMARK  4 active torsions:
REMARK  status: ('A' for Active; 'I' for Inactive)
REMARK    1  A    between atoms: N_6  and  C_13 
REMARK    2  A    between atoms: N_7  and  C_15 
REMARK    3  A    between atoms: N_8  and  C_14 
REMARK       I    between atoms: N_8  and  C_23 
REMARK    4  A    between atoms: C_9  and  C_14 
ROOT
HETATM    1  F   UNK N   1      28.645  17.413   8.201  0.00  0.00    -0.204 F 
HETATM    2  C   UNK N   1      31.570  16.660   6.141  0.00  0.00     0.042 A 
HETATM    3  C   UNK N   1      29.016  17.837   5.845  0.00  0.00     0.069 A 
HETATM    4  C   UNK N   1      30.700  16.753   7.235  0.00  0.00     0.074 A 
HETATM    5  C   UNK N   1      31.146  17.140   4.897  0.00  0.00     0.032 A 
HETATM    6  C   UNK N   1      29.433  17.330   7.101  0.00  0.00     0.145 A 
HETATM    7  C   UNK N   1      29.890  17.722   4.753  0.00  0.00     0.035 A 
ENDROOT
BRANCH   2   8
HETATM    8  N   UNK N   1      32.876  16.107   6.312  0.00  0.00    -0.291 N 
HETATM    9  C   UNK N   1      33.130  14.709   6.523  0.00  0.00     0.168 A 
HETATM   10  C   UNK N   1      34.679  14.666   6.580  0.00  0.00     0.170 A 
HETATM   11  O   UNK N   1      35.089  15.986   6.500  0.00  0.00    -0.295 OA
HETATM   12  C   UNK N   1      34.034  16.777   6.326  0.00  0.00     0.368 A 
HETATM   13  O   UNK N   1      34.131  17.987   6.189  0.00  0.00    -0.238 OA
BRANCH  10  14
HETATM   14  C   UNK N   1      35.187  14.007   7.852  0.00  0.00     0.156 C 
BRANCH  14  15
HETATM   15  N   UNK N   1      35.652  15.026   8.766  0.00  0.00    -0.359 N 
HETATM   16  C   UNK N   1      34.911  15.437   9.827  0.00  0.00     0.213 C 
HETATM   17  O   UNK N   1      33.803  14.964  10.036  0.00  0.00    -0.274 OA
HETATM   18  C   UNK N   1      35.459  16.458  10.759  0.00  0.00     0.117 C 
HETATM   19  H   UNK N   1      36.534  15.436   8.614  0.00  0.00     0.162 HD
ENDBRANCH  14  15
ENDBRANCH  10  14
ENDBRANCH   2   8
BRANCH   3  20
HETATM   20  N   UNK N   1      27.747  18.477   5.660  0.00  0.00    -0.374 N 
HETATM   21  C   UNK N   1      26.662  17.771   5.011  0.00  0.00     0.149 C 
HETATM   22  C   UNK N   1      26.220  18.611   3.811  0.00  0.00     0.187 C 
HETATM   23  O   UNK N   1      25.831  19.889   4.261  0.00  0.00    -0.388 OA
HETATM   24  C   UNK N   1      26.998  20.552   4.693  0.00  0.00     0.187 C 
HETATM   25  C   UNK N   1      27.534  19.877   5.959  0.00  0.00     0.149 C 
ENDBRANCH   3  20
TORSDOF 4
ENDMDL
MODEL 5
REMARK VINA RESULT:      -6.5      2.840      3.598
REMARK  4 active torsions:
REMARK  status: ('A' for Active; 'I' for Inactive)
REMARK    1  A    between atoms: N_6  and  C_13 
REMARK    2  A    between atoms: N_7  and  C_15 
REMARK    3  A    between atoms: N_8  and  C_14 
REMARK       I    between atoms: N_8  and  C_23 
REMARK    4  A    between atoms: C_9  and  C_14 
ROOT
HETATM    1  F   UNK N   1      34.175  15.402   5.009  0.00  0.00    -0.204 F 
HETATM    2  C   UNK N   1      34.077  15.968   8.619  0.00  0.00     0.042 A 
HETATM    3  C   UNK N   1      32.539  16.601   6.332  0.00  0.00     0.069 A 
HETATM    4  C   UNK N   1      34.489  15.547   7.348  0.00  0.00     0.074 A 
HETATM    5  C   UNK N   1      32.905  16.723   8.736  0.00  0.00     0.032 A 
HETATM    6  C   UNK N   1      33.739  15.857   6.208  0.00  0.00     0.145 A 
HETATM    7  C   UNK N   1      32.147  17.031   7.609  0.00  0.00     0.035 A 
ENDROOT
BRANCH   2   8
HETATM    8  N   UNK N   1      34.836  15.602   9.773  0.00  0.00    -0.291 N 
HETATM    9  C   UNK N   1      34.911  14.264  10.288  0.00  0.00     0.168 A 
HETATM   10  C   UNK N   1      35.892  14.428  11.477  0.00  0.00     0.170 A 
HETATM   11  O   UNK N   1      36.161  15.784  11.550  0.00  0.00    -0.295 OA
HETATM   12  C   UNK N   1      35.558  16.419  10.548  0.00  0.00     0.368 A 
HETATM   13  O   UNK N   1      35.667  17.622  10.367  0.00  0.00    -0.238 OA
BRANCH  10  14
HETATM   14  C   UNK N   1      35.305  13.912  12.781  0.00  0.00     0.156 C 
BRANCH  14  15
HETATM   15  N   UNK N   1      34.641  12.650  12.540  0.00  0.00    -0.359 N 
HETATM   16  C   UNK N   1      34.642  11.648  13.456  0.00  0.00     0.213 C 
HETATM   17  O   UNK N   1      35.228  11.776  14.521  0.00  0.00    -0.274 OA
HETATM   18  C   UNK N   1      33.906  10.387  13.172  0.00  0.00     0.117 C 
HETATM   19  H   UNK N   1      34.174  12.513  11.685  0.00  0.00     0.162 HD
ENDBRANCH  14  15
ENDBRANCH  10  14
ENDBRANCH   2   8
BRANCH   3  20
HETATM   20  N   UNK N   1      31.709  16.910   5.205  0.00  0.00    -0.374 N 
HETATM   21  C   UNK N   1      30.418  16.273   5.054  0.00  0.00     0.149 C 
HETATM   22  C   UNK N   1      30.410  15.569   3.695  0.00  0.00     0.187 C 
HETATM   23  O   UNK N   1      30.658  16.518   2.683  0.00  0.00    -0.388 OA
HETATM   24  C   UNK N   1      32.001  16.926   2.814  0.00  0.00     0.187 C 
HETATM   25  C   UNK N   1      32.170  17.732   4.106  0.00  0.00     0.149 C 
ENDBRANCH   3  20
TORSDOF 4
ENDMDL
MODEL 6
REMARK VINA RESULT:      -6.5      3.326      9.879
REMARK  4 active torsions:
REMARK  status: ('A' for Active; 'I' for Inactive)
REMARK    1  A    between atoms: N_6  and  C_13 
REMARK    2  A    between atoms: N_7  and  C_15 
REMARK    3  A    between atoms: N_8  and  C_14 
REMARK       I    between atoms: N_8  and  C_23 
REMARK    4  A    between atoms: C_9  and  C_14 
ROOT
HETATM    1  F   UNK N   1      31.721  17.421   4.577  0.00  0.00    -0.204 F 
HETATM    2  C   UNK N   1      28.494  18.262   6.077  0.00  0.00     0.042 A 
HETATM    3  C   UNK N   1      30.953  17.102   6.852  0.00  0.00     0.069 A 
HETATM    4  C   UNK N   1      29.529  18.102   5.145  0.00  0.00     0.074 A 
HETATM    5  C   UNK N   1      28.690  17.819   7.389  0.00  0.00     0.032 A 
HETATM    6  C   UNK N   1      30.749  17.527   5.516  0.00  0.00     0.145 A 
HETATM    7  C   UNK N   1      29.903  17.251   7.771  0.00  0.00     0.035 A 
ENDROOT
BRANCH   2   8
HETATM    8  N   UNK N   1      27.273  18.893   5.685  0.00  0.00    -0.291 N 
HETATM    9  C   UNK N   1      26.155  18.188   5.123  0.00  0.00     0.168 A 
HETATM   10  C   UNK N   1      25.111  19.322   4.950  0.00  0.00     0.170 A 
HETATM   11  O   UNK N   1      25.764  20.485   5.321  0.00  0.00    -0.295 OA
HETATM   12  C   UNK N   1      26.988  20.198   5.756  0.00  0.00     0.368 A 
HETATM   13  O   UNK N   1      27.756  21.049   6.176  0.00  0.00    -0.238 OA
BRANCH  10  14
HETATM   14  C   UNK N   1      24.593  19.411   3.524  0.00  0.00     0.156 C 
BRANCH  14  15
HETATM   15  N   UNK N   1      23.174  19.137   3.512  0.00  0.00    -0.359 N 
HETATM   16  C   UNK N   1      22.263  20.063   3.117  0.00  0.00     0.213 C 
HETATM   17  O   UNK N   1      22.618  21.181   2.771  0.00  0.00    -0.274 OA
HETATM   18  C   UNK N   1      20.819  19.711   3.083  0.00  0.00     0.117 C 
HETATM   19  H   UNK N   1      22.858  18.251   3.799  0.00  0.00     0.162 HD
ENDBRANCH  14  15
ENDBRANCH  10  14
ENDBRANCH   2   8
BRANCH   3  20
HETATM   20  N   UNK N   1      32.197  16.545   7.298  0.00  0.00    -0.374 N 
HETATM   21  C   UNK N   1      32.983  17.229   8.303  0.00  0.00     0.149 C 
HETATM   22  C   UNK N   1      34.370  17.480   7.708  0.00  0.00     0.187 C 
HETATM   23  O   UNK N   1      34.941  16.247   7.332  0.00  0.00    -0.388 OA
HETATM   24  C   UNK N   1      34.209  15.769   6.226  0.00  0.00     0.187 C 
HETATM   25  C   UNK N   1      32.795  15.385   6.672  0.00  0.00     0.149 C 
ENDBRANCH   3  20
TORSDOF 4
ENDMDL
MODEL 7
REMARK VINA RESULT:      -6.4      6.725     13.272
REMARK  4 active torsions:
REMARK  status: ('A' for Active; 'I' for Inactive)
REMARK    1  A    between atoms: N_6  and  C_13 
REMARK    2  A    between atoms: N_7  and  C_15 
REMARK    3  A    between atoms: N_8  and  C_14 
REMARK       I    between atoms: N_8  and  C_23 
REMARK    4  A    between atoms: C_9  and  C_14 
ROOT
HETATM    1  F   UNK N   1      34.920  13.020  20.162  0.00  0.00    -0.204 F 
HETATM    2  C   UNK N   1      35.721  11.900  16.775  0.00  0.00     0.042 A 
HETATM    3  C   UNK N   1      35.758  10.875  19.410  0.00  0.00     0.069 A 
HETATM    4  C   UNK N   1      35.323  12.700  17.854  0.00  0.00     0.074 A 
HETATM    5  C   UNK N   1      36.157  10.594  17.026  0.00  0.00     0.032 A 
HETATM    6  C   UNK N   1      35.340  12.206  19.162  0.00  0.00     0.145 A 
HETATM    7  C   UNK N   1      36.171  10.089  18.323  0.00  0.00     0.035 A 
ENDROOT
BRANCH   2   8
HETATM    8  N   UNK N   1      35.654  12.412  15.443  0.00  0.00    -0.291 N 
HETATM    9  C   UNK N   1      36.696  13.189  14.833  0.00  0.00     0.168 A 
HETATM   10  C   UNK N   1      36.135  13.419  13.405  0.00  0.00     0.170 A 
HETATM   11  O   UNK N   1      34.868  12.860  13.411  0.00  0.00    -0.295 OA
HETATM   12  C   UNK N   1      34.637  12.276  14.584  0.00  0.00     0.368 A 
HETATM   13  O   UNK N   1      33.602  11.678  14.832  0.00  0.00    -0.238 OA
BRANCH  10  14
HETATM   14  C   UNK N   1      36.086  14.893  13.039  0.00  0.00     0.156 C 
BRANCH  14  15
HETATM   15  N   UNK N   1      35.223  15.073  11.892  0.00  0.00    -0.359 N 
HETATM   16  C   UNK N   1      35.589  15.827  10.825  0.00  0.00     0.213 C 
HETATM   17  O   UNK N   1      36.668  16.402  10.806  0.00  0.00    -0.274 OA
HETATM   18  C   UNK N   1      34.679  15.941   9.654  0.00  0.00     0.117 C 
HETATM   19  H   UNK N   1      34.342  14.634  11.886  0.00  0.00     0.162 HD
ENDBRANCH  14  15
ENDBRANCH  10  14
ENDBRANCH   2   8
BRANCH   3  20
HETATM   20  N   UNK N   1      35.755  10.302  20.724  0.00  0.00    -0.374 N 
HETATM   21  C   UNK N   1      37.002  10.073  21.423  0.00  0.00     0.149 C 
HETATM   22  C   UNK N   1      37.061   8.586  21.781  0.00  0.00     0.187 C 
HETATM   23  O   UNK N   1      35.940   8.256  22.568  0.00  0.00    -0.388 OA
HETATM   24  C   UNK N   1      34.807   8.331  21.733  0.00  0.00     0.187 C 
HETATM   25  C   UNK N   1      34.550   9.789  21.343  0.00  0.00     0.149 C 
ENDBRANCH   3  20
TORSDOF 4
ENDMDL
MODEL 8
REMARK VINA RESULT:      -6.4      2.580      8.725
REMARK  4 active torsions:
REMARK  status: ('A' for Active; 'I' for Inactive)
REMARK    1  A    between atoms: N_6  and  C_13 
REMARK    2  A    between atoms: N_7  and  C_15 
REMARK    3  A    between atoms: N_8  and  C_14 
REMARK       I    between atoms: N_8  and  C_23 
REMARK    4  A    between atoms: C_9  and  C_14 
ROOT
HETATM    1  F   UNK N   1      33.052  13.921   9.814  0.00  0.00    -0.204 F 
HETATM    2  C   UNK N   1      31.593  16.994   8.475  0.00  0.00     0.042 A 
HETATM    3  C   UNK N   1      34.129  16.018   9.256  0.00  0.00     0.069 A 
HETATM    4  C   UNK N   1      31.730  15.691   8.971  0.00  0.00     0.074 A 
HETATM    5  C   UNK N   1      32.727  17.810   8.392  0.00  0.00     0.032 A 
HETATM    6  C   UNK N   1      32.979  15.198   9.364  0.00  0.00     0.145 A 
HETATM    7  C   UNK N   1      33.976  17.327   8.774  0.00  0.00     0.035 A 
ENDROOT
BRANCH   2   8
HETATM    8  N   UNK N   1      30.315  17.461   8.038  0.00  0.00    -0.291 N 
HETATM    9  C   UNK N   1      29.765  17.186   6.741  0.00  0.00     0.168 A 
HETATM   10  C   UNK N   1      28.373  17.863   6.828  0.00  0.00     0.170 A 
HETATM   11  O   UNK N   1      28.344  18.492   8.062  0.00  0.00    -0.295 OA
HETATM   12  C   UNK N   1      29.461  18.222   8.733  0.00  0.00     0.368 A 
HETATM   13  O   UNK N   1      29.667  18.630   9.865  0.00  0.00    -0.238 OA
BRANCH  10  14
HETATM   14  C   UNK N   1      28.145  18.854   5.699  0.00  0.00     0.156 C 
BRANCH  14  15
HETATM   15  N   UNK N   1      27.776  20.136   6.255  0.00  0.00    -0.359 N 
HETATM   16  C   UNK N   1      26.564  20.702   6.023  0.00  0.00     0.213 C 
HETATM   17  O   UNK N   1      25.741  20.145   5.311  0.00  0.00    -0.274 OA
HETATM   18  C   UNK N   1      26.223  22.003   6.657  0.00  0.00     0.117 C 
HETATM   19  H   UNK N   1      28.424  20.615   6.820  0.00  0.00     0.162 HD
ENDBRANCH  14  15
ENDBRANCH  10  14
ENDBRANCH   2   8
BRANCH   3  20
HETATM   20  N   UNK N   1      35.439  15.551   9.603  0.00  0.00    -0.374 N 
HETATM   21  C   UNK N   1      36.130  14.613   8.744  0.00  0.00     0.149 C 
HETATM   22  C   UNK N   1      36.477  13.385   9.589  0.00  0.00     0.187 C 
HETATM   23  O   UNK N   1      37.267  13.788  10.685  0.00  0.00    -0.388 OA
HETATM   24  C   UNK N   1      36.438  14.535  11.545  0.00  0.00     0.187 C 
HETATM   25  C   UNK N   1      36.060  15.859  10.874  0.00  0.00     0.149 C 
ENDBRANCH   3  20
TORSDOF 4
ENDMDL
MODEL 9
REMARK VINA RESULT:      -6.3      6.558     10.694
REMARK  4 active torsions:
REMARK  status: ('A' for Active; 'I' for Inactive)
REMARK    1  A    between atoms: N_6  and  C_13 
REMARK    2  A    between atoms: N_7  and  C_15 
REMARK    3  A    between atoms: N_8  and  C_14 
REMARK       I    between atoms: N_8  and  C_23 
REMARK    4  A    between atoms: C_9  and  C_14 
ROOT
HETATM    1  F   UNK N   1      34.013  11.392  13.035  0.00  0.00    -0.204 F 
HETATM    2  C   UNK N   1      35.493  12.496  16.190  0.00  0.00     0.042 A 
HETATM    3  C   UNK N   1      35.527  13.234  13.461  0.00  0.00     0.069 A 
HETATM    4  C   UNK N   1      34.755  11.767  15.248  0.00  0.00     0.074 A 
HETATM    5  C   UNK N   1      36.262  13.581  15.755  0.00  0.00     0.032 A 
HETATM    6  C   UNK N   1      34.766  12.120  13.895  0.00  0.00     0.145 A 
HETATM    7  C   UNK N   1      36.275  13.945  14.411  0.00  0.00     0.035 A 
ENDROOT
BRANCH   2   8
HETATM    8  N   UNK N   1      35.431  12.144  17.574  0.00  0.00    -0.291 N 
HETATM    9  C   UNK N   1      35.523  10.795  18.059  0.00  0.00     0.168 A 
HETATM   10  C   UNK N   1      35.460  10.998  19.595  0.00  0.00     0.170 A 
HETATM   11  O   UNK N   1      35.250  12.354  19.780  0.00  0.00    -0.295 OA
HETATM   12  C   UNK N   1      35.262  12.979  18.605  0.00  0.00     0.368 A 
HETATM   13  O   UNK N   1      35.134  14.188  18.499  0.00  0.00    -0.238 OA
BRANCH  10  14
HETATM   14  C   UNK N   1      34.354  10.177  20.237  0.00  0.00     0.156 C 
BRANCH  14  15
HETATM   15  N   UNK N   1      34.174  10.605  21.606  0.00  0.00    -0.359 N 
HETATM   16  C   UNK N   1      33.038  10.340  22.301  0.00  0.00     0.213 C 
HETATM   17  O   UNK N   1      32.111   9.739  21.778  0.00  0.00    -0.274 OA
HETATM   18  C   UNK N   1      32.926  10.767  23.722  0.00  0.00     0.117 C 
HETATM   19  H   UNK N   1      34.898  11.103  22.048  0.00  0.00     0.162 HD
ENDBRANCH  14  15
ENDBRANCH  10  14
ENDBRANCH   2   8
BRANCH   3  20
HETATM   20  N   UNK N   1      35.542  13.667  12.094  0.00  0.00    -0.374 N 
HETATM   21  C   UNK N   1      36.705  13.429  11.266  0.00  0.00     0.149 C 
HETATM   22  C   UNK N   1      37.175  14.785  10.734  0.00  0.00     0.187 C 
HETATM   23  O   UNK N   1      36.123  15.388  10.015  0.00  0.00    -0.388 OA
HETATM   24  C   UNK N   1      35.131  15.747  10.951  0.00  0.00     0.187 C 
HETATM   25  C   UNK N   1      34.488  14.483  11.529  0.00  0.00     0.149 C 
ENDBRANCH   3  20
TORSDOF 4
ENDMDL
