MODEL 1
REMARK VINA RESULT:      -4.9      0.000      0.000
REMARK  5 active torsions:
REMARK  status: ('A' for Active; 'I' for Inactive)
REMARK    1  A    between atoms: C_4  and  O_1 
REMARK    2  A    between atoms: O_2  and  C_10 
REMARK    3  A    between atoms: C_5  and  N_3 
REMARK    4  A    between atoms: C_4  and  C_5 
REMARK    5  A    between atoms: C_4  and  C_6 
ROOT
HETATM    1  C   UNK N   1      31.266  17.408   7.746  0.00  0.00    -0.025 A 
HETATM    2  C   UNK N   1      32.341  18.085   8.349  0.00  0.00     0.046 A 
HETATM    3  C   UNK N   1      31.462  16.806   6.492  0.00  0.00     0.010 A 
HETATM    4  C   UNK N   1      33.582  18.162   7.708  0.00  0.00     0.066 A 
HETATM    5  C   UNK N   1      32.698  16.900   5.845  0.00  0.00     0.003 A 
HETATM    6  C   UNK N   1      33.758  17.573   6.454  0.00  0.00     0.036 A 
ENDROOT
BRANCH   1   7
HETATM    7  C   UNK N   1      29.936  17.277   8.462  0.00  0.00     0.173 C 
BRANCH   7   8
HETATM    8  O   UNK N   1      30.143  17.085   9.834  0.00  0.00    -0.389 OA
HETATM    9  H   UNK N   1      29.974  16.220  10.238  0.00  0.00     0.210 HD
ENDBRANCH   7   8
BRANCH   7  10
HETATM   10  C   UNK N   1      28.989  18.467   8.250  0.00  0.00     0.103 C 
HETATM   11  C   UNK N   1      28.409  18.462   6.845  0.00  0.00     0.034 C 
BRANCH  10  12
HETATM   12  N   UNK N   1      27.882  18.392   9.190  0.00  0.00    -0.424 N 
HETATM   13  H   UNK N   1      27.982  18.760  10.135  0.00  0.00     0.150 HD
HETATM   14  H   UNK N   1      27.000  17.970   8.901  0.00  0.00     0.150 HD
ENDBRANCH  10  12
ENDBRANCH   7  10
ENDBRANCH   1   7
BRANCH   4  15
HETATM   15  O   UNK N   1      34.606  18.794   8.303  0.00  0.00    -0.361 OA
HETATM   16  H   UNK N   1      34.665  19.729   8.293  0.00  0.00     0.217 HD
ENDBRANCH   4  15
TORSDOF 5
ENDMDL
MODEL 2
REMARK VINA RESULT:      -4.9      3.102      4.701
REMARK  5 active torsions:
REMARK  status: ('A' for Active; 'I' for Inactive)
REMARK    1  A    between atoms: C_4  and  O_1 
REMARK    2  A    between atoms: O_2  and  C_10 
REMARK    3  A    between atoms: C_5  and  N_3 
REMARK    4  A    between atoms: C_4  and  C_5 
REMARK    5  A    between atoms: C_4  and  C_6 
ROOT
HETATM    1  C   UNK N   1      28.270  19.040   7.260  0.00  0.00    -0.025 A 
HETATM    2  C   UNK N   1      28.667  18.204   6.202  0.00  0.00     0.046 A 
HETATM    3  C   UNK N   1      27.583  20.229   6.965  0.00  0.00     0.010 A 
HETATM    4  C   UNK N   1      28.387  18.555   4.877  0.00  0.00     0.066 A 
HETATM    5  C   UNK N   1      27.321  20.586   5.639  0.00  0.00     0.003 A 
HETATM    6  C   UNK N   1      27.719  19.748   4.596  0.00  0.00     0.036 A 
ENDROOT
BRANCH   1   7
HETATM    7  C   UNK N   1      28.523  18.637   8.700  0.00  0.00     0.173 C 
BRANCH   7   8
HETATM    8  O   UNK N   1      27.347  18.142   9.278  0.00  0.00    -0.389 OA
HETATM    9  H   UNK N   1      26.552  18.697   9.320  0.00  0.00     0.210 HD
ENDBRANCH   7   8
BRANCH   7  10
HETATM   10  C   UNK N   1      29.650  17.607   8.874  0.00  0.00     0.103 C 
HETATM   11  C   UNK N   1      31.015  18.261   8.742  0.00  0.00     0.034 C 
BRANCH  10  12
HETATM   12  N   UNK N   1      29.569  17.004  10.194  0.00  0.00    -0.424 N 
HETATM   13  H   UNK N   1      29.362  17.576  11.012  0.00  0.00     0.150 HD
HETATM   14  H   UNK N   1      29.721  16.001  10.302  0.00  0.00     0.150 HD
ENDBRANCH  10  12
ENDBRANCH   7  10
ENDBRANCH   1   7
BRANCH   4  15
HETATM   15  O   UNK N   1      28.754  17.739   3.876  0.00  0.00    -0.361 OA
HETATM   16  H   UNK N   1      28.748  18.036   2.987  0.00  0.00     0.217 HD
ENDBRANCH   4  15
TORSDOF 5
ENDMDL
MODEL 3
REMARK VINA RESULT:      -4.9     10.552     11.598
REMARK  5 active torsions:
REMARK  status: ('A' for Active; 'I' for Inactive)
REMARK    1  A    between atoms: C_4  and  O_1 
REMARK    2  A    between atoms: O_2  and  C_10 
REMARK    3  A    between atoms: C_5  and  N_3 
REMARK    4  A    between atoms: C_4  and  C_5 
REMARK    5  A    between atoms: C_4  and  C_6 
ROOT
HETATM    1  C   UNK N   1      35.530  12.401  16.356  0.00  0.00    -0.025 A 
HETATM    2  C   UNK N   1      35.412  13.682  16.923  0.00  0.00     0.046 A 
HETATM    3  C   UNK N   1      35.500  11.280  17.201  0.00  0.00     0.010 A 
HETATM    4  C   UNK N   1      35.274  13.837  18.307  0.00  0.00     0.066 A 
HETATM    5  C   UNK N   1      35.380  11.437  18.585  0.00  0.00     0.003 A 
HETATM    6  C   UNK N   1      35.263  12.714  19.137  0.00  0.00     0.036 A 
ENDROOT
BRANCH   1   7
HETATM    7  C   UNK N   1      35.625  12.229  14.852  0.00  0.00     0.173 C 
BRANCH   7   8
HETATM    8  O   UNK N   1      34.650  13.005  14.213  0.00  0.00    -0.389 OA
HETATM    9  H   UNK N   1      33.812  12.604  13.933  0.00  0.00     0.210 HD
ENDBRANCH   7   8
BRANCH   7  10
HETATM   10  C   UNK N   1      37.006  12.562  14.269  0.00  0.00     0.103 C 
HETATM   11  C   UNK N   1      37.546  11.407  13.442  0.00  0.00     0.034 C 
BRANCH  10  12
HETATM   12  N   UNK N   1      36.909  13.724  13.401  0.00  0.00    -0.424 N 
HETATM   13  H   UNK N   1      36.031  13.949  12.934  0.00  0.00     0.150 HD
HETATM   14  H   UNK N   1      37.725  14.319  13.259  0.00  0.00     0.150 HD
ENDBRANCH  10  12
ENDBRANCH   7  10
ENDBRANCH   1   7
BRANCH   4  15
HETATM   15  O   UNK N   1      35.142  15.063  18.835  0.00  0.00    -0.361 OA
HETATM   16  H   UNK N   1      35.258  15.829  18.307  0.00  0.00     0.217 HD
ENDBRANCH   4  15
TORSDOF 5
ENDMDL
MODEL 4
REMARK VINA RESULT:      -4.9      9.831     10.806
REMARK  5 active torsions:
REMARK  status: ('A' for Active; 'I' for Inactive)
REMARK    1  A    between atoms: C_4  and  O_1 
REMARK    2  A    between atoms: O_2  and  C_10 
REMARK    3  A    between atoms: C_5  and  N_3 
REMARK    4  A    between atoms: C_4  and  C_5 
REMARK    5  A    between atoms: C_4  and  C_6 
ROOT
HETATM    1  C   UNK N   1      21.965  13.303   9.803  0.00  0.00    -0.025 A 
HETATM    2  C   UNK N   1      21.747  12.633  11.020  0.00  0.00     0.046 A 
HETATM    3  C   UNK N   1      23.262  13.324   9.265  0.00  0.00     0.010 A 
HETATM    4  C   UNK N   1      22.805  12.004  11.685  0.00  0.00     0.066 A 
HETATM    5  C   UNK N   1      24.321  12.711   9.939  0.00  0.00     0.003 A 
HETATM    6  C   UNK N   1      24.092  12.048  11.146  0.00  0.00     0.036 A 
ENDROOT
BRANCH   1   7
HETATM    7  C   UNK N   1      20.810  13.939   9.054  0.00  0.00     0.173 C 
BRANCH   7   8
HETATM    8  O   UNK N   1      19.626  13.810   9.791  0.00  0.00    -0.389 OA
HETATM    9  H   UNK N   1      19.154  12.964   9.814  0.00  0.00     0.210 HD
ENDBRANCH   7   8
BRANCH   7  10
HETATM   10  C   UNK N   1      21.031  15.416   8.697  0.00  0.00     0.103 C 
HETATM   11  C   UNK N   1      21.410  15.576   7.234  0.00  0.00     0.034 C 
BRANCH  10  12
HETATM   12  N   UNK N   1      19.809  16.169   8.926  0.00  0.00    -0.424 N 
HETATM   13  H   UNK N   1      19.850  17.144   9.220  0.00  0.00     0.150 HD
HETATM   14  H   UNK N   1      18.904  15.719   8.790  0.00  0.00     0.150 HD
ENDBRANCH  10  12
ENDBRANCH   7  10
ENDBRANCH   1   7
BRANCH   4  15
HETATM   15  O   UNK N   1      22.581  11.351  12.836  0.00  0.00    -0.361 OA
HETATM   16  H   UNK N   1      23.147  10.658  13.113  0.00  0.00     0.217 HD
ENDBRANCH   4  15
TORSDOF 5
ENDMDL
MODEL 5
REMARK VINA RESULT:      -4.7     11.231     12.324
REMARK  5 active torsions:
REMARK  status: ('A' for Active; 'I' for Inactive)
REMARK    1  A    between atoms: C_4  and  O_1 
REMARK    2  A    between atoms: O_2  and  C_10 
REMARK    3  A    between atoms: C_5  and  N_3 
REMARK    4  A    between atoms: C_4  and  C_5 
REMARK    5  A    between atoms: C_4  and  C_6 
ROOT
HETATM    1  C   UNK N   1      35.443  12.273  16.855  0.00  0.00    -0.025 A 
HETATM    2  C   UNK N   1      35.657  11.071  17.554  0.00  0.00     0.046 A 
HETATM    3  C   UNK N   1      35.179  13.443  17.585  0.00  0.00     0.010 A 
HETATM    4  C   UNK N   1      35.601  11.042  18.951  0.00  0.00     0.066 A 
HETATM    5  C   UNK N   1      35.106  13.409  18.980  0.00  0.00     0.003 A 
HETATM    6  C   UNK N   1      35.321  12.210  19.663  0.00  0.00     0.036 A 
ENDROOT
BRANCH   1   7
HETATM    7  C   UNK N   1      35.556  12.318  15.344  0.00  0.00     0.173 C 
BRANCH   7   8
HETATM    8  O   UNK N   1      34.601  13.194  14.813  0.00  0.00    -0.389 OA
HETATM    9  H   UNK N   1      33.655  12.999  14.903  0.00  0.00     0.210 HD
ENDBRANCH   7   8
BRANCH   7  10
HETATM   10  C   UNK N   1      36.949  12.710  14.830  0.00  0.00     0.103 C 
HETATM   11  C   UNK N   1      37.703  11.498  14.308  0.00  0.00     0.034 C 
BRANCH  10  12
HETATM   12  N   UNK N   1      36.825  13.662  13.739  0.00  0.00    -0.424 N 
HETATM   13  H   UNK N   1      36.347  14.551  13.881  0.00  0.00     0.150 HD
HETATM   14  H   UNK N   1      37.219  13.439  12.825  0.00  0.00     0.150 HD
ENDBRANCH  10  12
ENDBRANCH   7  10
ENDBRANCH   1   7
BRANCH   4  15
HETATM   15  O   UNK N   1      35.827   9.894  19.608  0.00  0.00    -0.361 OA
HETATM   16  H   UNK N   1      36.187   9.150  19.166  0.00  0.00     0.217 HD
ENDBRANCH   4  15
TORSDOF 5
ENDMDL
MODEL 6
REMARK VINA RESULT:      -4.7      7.165      8.053
REMARK  5 active torsions:
REMARK  status: ('A' for Active; 'I' for Inactive)
REMARK    1  A    between atoms: C_4  and  O_1 
REMARK    2  A    between atoms: O_2  and  C_10 
REMARK    3  A    between atoms: C_5  and  N_3 
REMARK    4  A    between atoms: C_4  and  C_5 
REMARK    5  A    between atoms: C_4  and  C_6 
ROOT
HETATM    1  C   UNK N   1      35.336  13.785  12.583  0.00  0.00    -0.025 A 
HETATM    2  C   UNK N   1      36.218  14.530  13.387  0.00  0.00     0.046 A 
HETATM    3  C   UNK N   1      34.916  12.522  13.029  0.00  0.00     0.010 A 
HETATM    4  C   UNK N   1      36.673  14.016  14.606  0.00  0.00     0.066 A 
HETATM    5  C   UNK N   1      35.386  12.003  14.239  0.00  0.00     0.003 A 
HETATM    6  C   UNK N   1      36.260  12.751  15.029  0.00  0.00     0.036 A 
ENDROOT
BRANCH   1   7
HETATM    7  C   UNK N   1      34.799  14.361  11.288  0.00  0.00     0.173 C 
BRANCH   7   8
HETATM    8  O   UNK N   1      33.491  14.829  11.471  0.00  0.00    -0.389 OA
HETATM    9  H   UNK N   1      33.269  15.367  12.247  0.00  0.00     0.210 HD
ENDBRANCH   7   8
BRANCH   7  10
HETATM   10  C   UNK N   1      35.663  15.483  10.694  0.00  0.00     0.103 C 
HETATM   11  C   UNK N   1      35.752  15.365   9.181  0.00  0.00     0.034 C 
BRANCH  10  12
HETATM   12  N   UNK N   1      35.079  16.777  11.007  0.00  0.00    -0.424 N 
HETATM   13  H   UNK N   1      35.347  17.606  10.479  0.00  0.00     0.150 HD
HETATM   14  H   UNK N   1      34.395  16.855  11.760  0.00  0.00     0.150 HD
ENDBRANCH  10  12
ENDBRANCH   7  10
ENDBRANCH   1   7
BRANCH   4  15
HETATM   15  O   UNK N   1      37.499  14.744  15.374  0.00  0.00    -0.361 OA
HETATM   16  H   UNK N   1      37.530  14.617  16.302  0.00  0.00     0.217 HD
ENDBRANCH   4  15
TORSDOF 5
ENDMDL
MODEL 7
REMARK VINA RESULT:      -4.7      2.163      2.622
REMARK  5 active torsions:
REMARK  status: ('A' for Active; 'I' for Inactive)
REMARK    1  A    between atoms: C_4  and  O_1 
REMARK    2  A    between atoms: O_2  and  C_10 
REMARK    3  A    between atoms: C_5  and  N_3 
REMARK    4  A    between atoms: C_4  and  C_5 
REMARK    5  A    between atoms: C_4  and  C_6 
ROOT
HETATM    1  C   UNK N   1      31.421  17.133   7.017  0.00  0.00    -0.025 A 
HETATM    2  C   UNK N   1      30.817  17.147   5.748  0.00  0.00     0.046 A 
HETATM    3  C   UNK N   1      32.810  17.317   7.109  0.00  0.00     0.010 A 
HETATM    4  C   UNK N   1      31.588  17.335   4.596  0.00  0.00     0.066 A 
HETATM    5  C   UNK N   1      33.582  17.487   5.956  0.00  0.00     0.003 A 
HETATM    6  C   UNK N   1      32.971  17.500   4.701  0.00  0.00     0.036 A 
ENDROOT
BRANCH   1   7
HETATM    7  C   UNK N   1      30.581  16.983   8.271  0.00  0.00     0.173 C 
BRANCH   7   8
HETATM    8  O   UNK N   1      31.398  16.680   9.367  0.00  0.00    -0.389 OA
HETATM    9  H   UNK N   1      32.325  16.963   9.379  0.00  0.00     0.210 HD
ENDBRANCH   7   8
BRANCH   7  10
HETATM   10  C   UNK N   1      29.719  18.211   8.600  0.00  0.00     0.103 C 
HETATM   11  C   UNK N   1      28.240  17.899   8.450  0.00  0.00     0.034 C 
BRANCH  10  12
HETATM   12  N   UNK N   1      29.951  18.624   9.974  0.00  0.00    -0.424 N 
HETATM   13  H   UNK N   1      29.211  18.544  10.670  0.00  0.00     0.150 HD
HETATM   14  H   UNK N   1      30.861  18.997  10.244  0.00  0.00     0.150 HD
ENDBRANCH  10  12
ENDBRANCH   7  10
ENDBRANCH   1   7
BRANCH   4  15
HETATM   15  O   UNK N   1      30.998  17.366   3.391  0.00  0.00    -0.361 OA
HETATM   16  H   UNK N   1      30.768  18.181   2.990  0.00  0.00     0.217 HD
ENDBRANCH   4  15
TORSDOF 5
ENDMDL
MODEL 8
REMARK VINA RESULT:      -4.6      2.457      3.607
REMARK  5 active torsions:
REMARK  status: ('A' for Active; 'I' for Inactive)
REMARK    1  A    between atoms: C_4  and  O_1 
REMARK    2  A    between atoms: O_2  and  C_10 
REMARK    3  A    between atoms: C_5  and  N_3 
REMARK    4  A    between atoms: C_4  and  C_5 
REMARK    5  A    between atoms: C_4  and  C_6 
ROOT
HETATM    1  C   UNK N   1      28.885  18.013   6.897  0.00  0.00    -0.025 A 
HETATM    2  C   UNK N   1      28.804  18.530   8.202  0.00  0.00     0.046 A 
HETATM    3  C   UNK N   1      30.041  17.310   6.517  0.00  0.00     0.010 A 
HETATM    4  C   UNK N   1      29.859  18.353   9.103  0.00  0.00     0.066 A 
HETATM    5  C   UNK N   1      31.101  17.150   7.413  0.00  0.00     0.003 A 
HETATM    6  C   UNK N   1      31.009  17.667   8.706  0.00  0.00     0.036 A 
ENDROOT
BRANCH   1   7
HETATM    7  C   UNK N   1      27.722  18.156   5.936  0.00  0.00     0.173 C 
BRANCH   7   8
HETATM    8  O   UNK N   1      26.610  17.450   6.413  0.00  0.00    -0.389 OA
HETATM    9  H   UNK N   1      25.712  17.757   6.211  0.00  0.00     0.210 HD
ENDBRANCH   7   8
BRANCH   7  10
HETATM   10  C   UNK N   1      27.319  19.611   5.650  0.00  0.00     0.103 C 
HETATM   11  C   UNK N   1      27.417  19.926   4.167  0.00  0.00     0.034 C 
BRANCH  10  12
HETATM   12  N   UNK N   1      25.943  19.833   6.063  0.00  0.00    -0.424 N 
HETATM   13  H   UNK N   1      25.530  20.763   6.004  0.00  0.00     0.150 HD
HETATM   14  H   UNK N   1      25.387  19.054   6.414  0.00  0.00     0.150 HD
ENDBRANCH  10  12
ENDBRANCH   7  10
ENDBRANCH   1   7
BRANCH   4  15
HETATM   15  O   UNK N   1      29.762  18.834  10.353  0.00  0.00    -0.361 OA
HETATM   16  H   UNK N   1      29.358  18.330  11.031  0.00  0.00     0.217 HD
ENDBRANCH   4  15
TORSDOF 5
ENDMDL
MODEL 9
REMARK VINA RESULT:      -4.6     13.215     13.948
REMARK  5 active torsions:
REMARK  status: ('A' for Active; 'I' for Inactive)
REMARK    1  A    between atoms: C_4  and  O_1 
REMARK    2  A    between atoms: O_2  and  C_10 
REMARK    3  A    between atoms: C_5  and  N_3 
REMARK    4  A    between atoms: C_4  and  C_5 
REMARK    5  A    between atoms: C_4  and  C_6 
ROOT
HETATM    1  C   UNK N   1      35.379  11.453  19.129  0.00  0.00    -0.025 A 
HETATM    2  C   UNK N   1      35.305  12.830  19.405  0.00  0.00     0.046 A 
HETATM    3  C   UNK N   1      35.386  11.029  17.790  0.00  0.00     0.010 A 
HETATM    4  C   UNK N   1      35.234  13.760  18.363  0.00  0.00     0.066 A 
HETATM    5  C   UNK N   1      35.297  11.959  16.751  0.00  0.00     0.003 A 
HETATM    6  C   UNK N   1      35.225  13.323  17.037  0.00  0.00     0.036 A 
ENDROOT
BRANCH   1   7
HETATM    7  C   UNK N   1      35.511  10.445  20.255  0.00  0.00     0.173 C 
BRANCH   7   8
HETATM    8  O   UNK N   1      36.446  10.893  21.197  0.00  0.00    -0.389 OA
HETATM    9  H   UNK N   1      36.165  11.457  21.935  0.00  0.00     0.210 HD
ENDBRANCH   7   8
BRANCH   7  10
HETATM   10  C   UNK N   1      34.188  10.119  20.964  0.00  0.00     0.103 C 
HETATM   11  C   UNK N   1      33.692   8.733  20.589  0.00  0.00     0.034 C 
BRANCH  10  12
HETATM   12  N   UNK N   1      34.377  10.151  22.405  0.00  0.00    -0.424 N 
HETATM   13  H   UNK N   1      34.204  11.007  22.930  0.00  0.00     0.150 HD
HETATM   14  H   UNK N   1      34.685   9.310  22.893  0.00  0.00     0.150 HD
ENDBRANCH  10  12
ENDBRANCH   7  10
ENDBRANCH   1   7
BRANCH   4  15
HETATM   15  O   UNK N   1      35.183  15.073  18.638  0.00  0.00    -0.361 OA
HETATM   16  H   UNK N   1      34.857  15.379  19.461  0.00  0.00     0.217 HD
ENDBRANCH   4  15
TORSDOF 5
ENDMDL
