MODEL 1
REMARK VINA RESULT:      -7.6      0.000      0.000
REMARK  1 active torsions:
REMARK  status: ('A' for Active; 'I' for Inactive)
REMARK    1  A    between atoms: C_9  and  O_1 
ROOT
HETATM    1  O   UNK N   1      31.882  21.936  -2.309  0.00  0.00    -0.321 OA
HETATM    2  O   UNK N   1      33.852  21.126  -2.976  0.00  0.00    -0.265 OA
HETATM    3  C   UNK N   1      27.453  23.880  -6.227  0.00  0.00     0.001 C 
HETATM    4  C   UNK N   1      27.234  25.228  -5.543  0.00  0.00    -0.009 C 
HETATM    5  C   UNK N   1      28.858  23.318  -5.932  0.00  0.00    -0.005 C 
HETATM    6  C   UNK N   1      29.038  23.190  -4.396  0.00  0.00     0.001 C 
HETATM    7  C   UNK N   1      30.507  22.788  -4.069  0.00  0.00    -0.014 C 
HETATM    8  C   UNK N   1      25.870  25.629  -6.117  0.00  0.00     0.062 C 
HETATM    9  C   UNK N   1      27.279  25.039  -4.026  0.00  0.00     0.013 C 
HETATM   10  C   UNK N   1      28.641  24.470  -3.615  0.00  0.00     0.007 C 
HETATM   11  C   UNK N   1      27.094  24.170  -7.680  0.00  0.00     0.009 C 
HETATM   12  C   UNK N   1      31.086  21.733  -5.090  0.00  0.00     0.005 C 
HETATM   13  C   UNK N   1      29.039  21.931  -6.592  0.00  0.00     0.006 C 
HETATM   14  C   UNK N   1      26.017  25.275  -7.603  0.00  0.00     0.038 C 
HETATM   15  C   UNK N   1      29.974  20.978  -5.818  0.00  0.00     0.006 C 
HETATM   16  C   UNK N   1      28.308  26.258  -5.962  0.00  0.00     0.018 C 
HETATM   17  C   UNK N   1      30.571  22.239  -2.630  0.00  0.00     0.188 C 
HETATM   18  C   UNK N   1      31.421  24.024  -4.133  0.00  0.00     0.018 C 
HETATM   19  C   UNK N   1      32.040  20.710  -4.442  0.00  0.00     0.116 C 
HETATM   20  C   UNK N   1      25.516  27.095  -5.906  0.00  0.00     0.046 C 
HETATM   21  C   UNK N   1      32.656  21.252  -3.185  0.00  0.00     0.259 C 
ENDROOT
BRANCH   8  22
HETATM   22  O   UNK N   1      24.852  24.842  -5.568  0.00  0.00    -0.389 OA
HETATM   23  H   UNK N   1      24.028  24.419  -5.280  0.00  0.00     0.210 HD
ENDBRANCH   8  22
TORSDOF 1
ENDMDL
MODEL 2
REMARK VINA RESULT:      -7.4     13.090     17.284
REMARK  1 active torsions:
REMARK  status: ('A' for Active; 'I' for Inactive)
REMARK    1  A    between atoms: C_9  and  O_1 
ROOT
HETATM    1  O   UNK N   1      32.863  14.941   3.997  0.00  0.00    -0.321 OA
HETATM    2  O   UNK N   1      33.273  16.435   2.390  0.00  0.00    -0.265 OA
HETATM    3  C   UNK N   1      34.703  15.640   9.902  0.00  0.00     0.001 C 
HETATM    4  C   UNK N   1      35.350  14.260  10.017  0.00  0.00    -0.009 C 
HETATM    5  C   UNK N   1      34.630  16.108   8.435  0.00  0.00    -0.005 C 
HETATM    6  C   UNK N   1      33.837  15.060   7.609  0.00  0.00     0.001 C 
HETATM    7  C   UNK N   1      33.898  15.425   6.096  0.00  0.00    -0.014 C 
HETATM    8  C   UNK N   1      35.450  14.111  11.540  0.00  0.00     0.062 C 
HETATM    9  C   UNK N   1      34.470  13.228   9.312  0.00  0.00     0.013 C 
HETATM   10  C   UNK N   1      34.318  13.601   7.833  0.00  0.00     0.007 C 
HETATM   11  C   UNK N   1      35.517  16.483  10.877  0.00  0.00     0.009 C 
HETATM   12  C   UNK N   1      33.780  16.978   5.845  0.00  0.00     0.005 C 
HETATM   13  C   UNK N   1      33.927  17.482   8.338  0.00  0.00     0.006 C 
HETATM   14  C   UNK N   1      35.956  15.492  11.978  0.00  0.00     0.038 C 
HETATM   15  C   UNK N   1      33.136  17.698   7.029  0.00  0.00     0.006 C 
HETATM   16  C   UNK N   1      36.763  14.241   9.391  0.00  0.00     0.018 C 
HETATM   17  C   UNK N   1      32.779  14.671   5.351  0.00  0.00     0.188 C 
HETATM   18  C   UNK N   1      35.240  14.972   5.495  0.00  0.00     0.018 C 
HETATM   19  C   UNK N   1      33.004  17.337   4.563  0.00  0.00     0.116 C 
HETATM   20  C   UNK N   1      36.373  12.988  11.994  0.00  0.00     0.046 C 
HETATM   21  C   UNK N   1      33.038  16.213   3.567  0.00  0.00     0.259 C 
ENDROOT
BRANCH   8  22
HETATM   22  O   UNK N   1      34.185  13.900  12.100  0.00  0.00    -0.389 OA
HETATM   23  H   UNK N   1      33.294  13.946  12.481  0.00  0.00     0.210 HD
ENDBRANCH   8  22
TORSDOF 1
ENDMDL
MODEL 3
REMARK VINA RESULT:      -7.2      1.447      6.594
REMARK  1 active torsions:
REMARK  status: ('A' for Active; 'I' for Inactive)
REMARK    1  A    between atoms: C_9  and  O_1 
ROOT
HETATM    1  O   UNK N   1      25.699  24.583  -6.635  0.00  0.00    -0.321 OA
HETATM    2  O   UNK N   1      24.928  26.615  -6.129  0.00  0.00    -0.265 OA
HETATM    3  C   UNK N   1      30.609  21.967  -3.844  0.00  0.00     0.001 C 
HETATM    4  C   UNK N   1      31.327  21.587  -5.138  0.00  0.00    -0.009 C 
HETATM    5  C   UNK N   1      29.634  23.141  -4.063  0.00  0.00    -0.005 C 
HETATM    6  C   UNK N   1      28.612  22.749  -5.163  0.00  0.00     0.001 C 
HETATM    7  C   UNK N   1      27.726  23.979  -5.522  0.00  0.00    -0.014 C 
HETATM    8  C   UNK N   1      32.326  20.545  -4.622  0.00  0.00     0.062 C 
HETATM    9  C   UNK N   1      30.305  21.073  -6.152  0.00  0.00     0.013 C 
HETATM   10  C   UNK N   1      29.269  22.165  -6.441  0.00  0.00     0.007 C 
HETATM   11  C   UNK N   1      31.757  22.171  -2.860  0.00  0.00     0.009 C 
HETATM   12  C   UNK N   1      27.332  24.831  -4.253  0.00  0.00     0.005 C 
HETATM   13  C   UNK N   1      28.882  23.475  -2.753  0.00  0.00     0.006 C 
HETATM   14  C   UNK N   1      32.857  21.198  -3.339  0.00  0.00     0.038 C 
HETATM   15  C   UNK N   1      27.452  24.018  -2.964  0.00  0.00     0.006 C 
HETATM   16  C   UNK N   1      32.085  22.792  -5.741  0.00  0.00     0.018 C 
HETATM   17  C   UNK N   1      26.462  23.492  -6.258  0.00  0.00     0.188 C 
HETATM   18  C   UNK N   1      28.484  24.918  -6.476  0.00  0.00     0.018 C 
HETATM   19  C   UNK N   1      25.916  25.433  -4.331  0.00  0.00     0.116 C 
HETATM   20  C   UNK N   1      33.441  20.215  -5.605  0.00  0.00     0.046 C 
HETATM   21  C   UNK N   1      25.460  25.583  -5.754  0.00  0.00     0.259 C 
ENDROOT
BRANCH   8  22
HETATM   22  O   UNK N   1      31.669  19.358  -4.280  0.00  0.00    -0.389 OA
HETATM   23  H   UNK N   1      31.119  18.645  -3.918  0.00  0.00     0.210 HD
ENDBRANCH   8  22
TORSDOF 1
ENDMDL
MODEL 4
REMARK VINA RESULT:      -7.0     22.522     26.324
REMARK  1 active torsions:
REMARK  status: ('A' for Active; 'I' for Inactive)
REMARK    1  A    between atoms: C_9  and  O_1 
ROOT
HETATM    1  O   UNK N   1      34.974  13.709  13.302  0.00  0.00    -0.321 OA
HETATM    2  O   UNK N   1      34.746  13.097  11.167  0.00  0.00    -0.265 OA
HETATM    3  C   UNK N   1      36.789   9.837  17.823  0.00  0.00     0.001 C 
HETATM    4  C   UNK N   1      35.643  10.177  18.776  0.00  0.00    -0.009 C 
HETATM    5  C   UNK N   1      36.414  10.137  16.359  0.00  0.00    -0.005 C 
HETATM    6  C   UNK N   1      36.024  11.635  16.235  0.00  0.00     0.001 C 
HETATM    7  C   UNK N   1      35.478  11.921  14.805  0.00  0.00    -0.014 C 
HETATM    8  C   UNK N   1      36.198   9.643  20.102  0.00  0.00     0.062 C 
HETATM    9  C   UNK N   1      35.380  11.683  18.732  0.00  0.00     0.013 C 
HETATM   10  C   UNK N   1      35.003  12.101  17.307  0.00  0.00     0.007 C 
HETATM   11  C   UNK N   1      37.123   8.394  18.190  0.00  0.00     0.009 C 
HETATM   12  C   UNK N   1      36.282  11.151  13.686  0.00  0.00     0.005 C 
HETATM   13  C   UNK N   1      37.604   9.833  15.419  0.00  0.00     0.006 C 
HETATM   14  C   UNK N   1      36.788   8.287  19.694  0.00  0.00     0.038 C 
HETATM   15  C   UNK N   1      37.672  10.736  14.169  0.00  0.00     0.006 C 
HETATM   16  C   UNK N   1      34.349   9.420  18.401  0.00  0.00     0.018 C 
HETATM   17  C   UNK N   1      35.514  13.440  14.546  0.00  0.00     0.188 C 
HETATM   18  C   UNK N   1      34.011  11.468  14.697  0.00  0.00     0.018 C 
HETATM   19  C   UNK N   1      36.428  11.948  12.375  0.00  0.00     0.116 C 
HETATM   20  C   UNK N   1      35.153   9.510  21.202  0.00  0.00     0.046 C 
HETATM   21  C   UNK N   1      35.337  12.969  12.228  0.00  0.00     0.259 C 
ENDROOT
BRANCH   8  22
HETATM   22  O   UNK N   1      37.233  10.459  20.569  0.00  0.00    -0.389 OA
HETATM   23  H   UNK N   1      38.013  11.020  20.711  0.00  0.00     0.210 HD
ENDBRANCH   8  22
TORSDOF 1
ENDMDL
MODEL 5
REMARK VINA RESULT:      -7.0      3.812      5.539
REMARK  1 active torsions:
REMARK  status: ('A' for Active; 'I' for Inactive)
REMARK    1  A    between atoms: C_9  and  O_1 
ROOT
HETATM    1  O   UNK N   1      25.552  22.033  -6.679  0.00  0.00    -0.321 OA
HETATM    2  O   UNK N   1      26.400  20.848  -8.370  0.00  0.00    -0.265 OA
HETATM    3  C   UNK N   1      26.932  28.010  -5.628  0.00  0.00     0.001 C 
HETATM    4  C   UNK N   1      27.279  27.823  -4.152  0.00  0.00    -0.009 C 
HETATM    5  C   UNK N   1      27.091  26.696  -6.417  0.00  0.00    -0.005 C 
HETATM    6  C   UNK N   1      26.188  25.609  -5.775  0.00  0.00     0.001 C 
HETATM    7  C   UNK N   1      26.461  24.231  -6.447  0.00  0.00    -0.014 C 
HETATM    8  C   UNK N   1      27.203  29.270  -3.649  0.00  0.00     0.062 C 
HETATM    9  C   UNK N   1      26.281  26.853  -3.518  0.00  0.00     0.013 C 
HETATM   10  C   UNK N   1      26.346  25.501  -4.236  0.00  0.00     0.007 C 
HETATM   11  C   UNK N   1      27.802  29.195  -6.038  0.00  0.00     0.009 C 
HETATM   12  C   UNK N   1      26.678  24.352  -8.006  0.00  0.00     0.005 C 
HETATM   13  C   UNK N   1      26.687  26.897  -7.897  0.00  0.00     0.006 C 
HETATM   14  C   UNK N   1      27.930  30.046  -4.755  0.00  0.00     0.038 C 
HETATM   15  C   UNK N   1      26.081  25.644  -8.564  0.00  0.00     0.006 C 
HETATM   16  C   UNK N   1      28.712  27.274  -3.971  0.00  0.00     0.018 C 
HETATM   17  C   UNK N   1      25.289  23.278  -6.138  0.00  0.00     0.188 C 
HETATM   18  C   UNK N   1      27.737  23.601  -5.863  0.00  0.00     0.018 C 
HETATM   19  C   UNK N   1      26.112  23.158  -8.800  0.00  0.00     0.116 C 
HETATM   20  C   UNK N   1      27.838  29.484  -2.281  0.00  0.00     0.046 C 
HETATM   21  C   UNK N   1      26.016  21.927  -7.947  0.00  0.00     0.259 C 
ENDROOT
BRANCH   8  22
HETATM   22  O   UNK N   1      25.875  29.706  -3.595  0.00  0.00    -0.389 OA
HETATM   23  H   UNK N   1      24.970  30.020  -3.750  0.00  0.00     0.210 HD
ENDBRANCH   8  22
TORSDOF 1
ENDMDL
MODEL 6
REMARK VINA RESULT:      -7.0      1.234      6.332
REMARK  1 active torsions:
REMARK  status: ('A' for Active; 'I' for Inactive)
REMARK    1  A    between atoms: C_9  and  O_1 
ROOT
HETATM    1  O   UNK N   1      26.578  27.305  -5.144  0.00  0.00    -0.321 OA
HETATM    2  O   UNK N   1      24.388  27.246  -5.576  0.00  0.00    -0.265 OA
HETATM    3  C   UNK N   1      30.278  22.307  -5.411  0.00  0.00     0.001 C 
HETATM    4  C   UNK N   1      30.905  22.516  -4.034  0.00  0.00    -0.009 C 
HETATM    5  C   UNK N   1      28.897  22.984  -5.512  0.00  0.00    -0.005 C 
HETATM    6  C   UNK N   1      29.053  24.498  -5.204  0.00  0.00     0.001 C 
HETATM    7  C   UNK N   1      27.649  25.169  -5.130  0.00  0.00    -0.014 C 
HETATM    8  C   UNK N   1      32.151  21.630  -4.143  0.00  0.00     0.062 C 
HETATM    9  C   UNK N   1      31.174  24.006  -3.821  0.00  0.00     0.013 C 
HETATM   10  C   UNK N   1      29.859  24.788  -3.910  0.00  0.00     0.007 C 
HETATM   11  C   UNK N   1      30.342  20.794  -5.592  0.00  0.00     0.009 C 
HETATM   12  C   UNK N   1      26.658  24.617  -6.227  0.00  0.00     0.005 C 
HETATM   13  C   UNK N   1      28.304  22.803  -6.929  0.00  0.00     0.006 C 
HETATM   14  C   UNK N   1      31.601  20.361  -4.808  0.00  0.00     0.038 C 
HETATM   15  C   UNK N   1      27.405  23.970  -7.393  0.00  0.00     0.006 C 
HETATM   16  C   UNK N   1      29.984  21.996  -2.906  0.00  0.00     0.018 C 
HETATM   17  C   UNK N   1      27.813  26.695  -5.269  0.00  0.00     0.188 C 
HETATM   18  C   UNK N   1      27.002  24.896  -3.761  0.00  0.00     0.018 C 
HETATM   19  C   UNK N   1      25.699  25.688  -6.784  0.00  0.00     0.116 C 
HETATM   20  C   UNK N   1      32.822  21.336  -2.808  0.00  0.00     0.046 C 
HETATM   21  C   UNK N   1      25.505  26.812  -5.809  0.00  0.00     0.259 C 
ENDROOT
BRANCH   8  22
HETATM   22  O   UNK N   1      33.096  22.208  -4.997  0.00  0.00    -0.389 OA
HETATM   23  H   UNK N   1      33.867  22.470  -5.525  0.00  0.00     0.210 HD
ENDBRANCH   8  22
TORSDOF 1
ENDMDL
MODEL 7
REMARK VINA RESULT:      -6.9     23.573     27.028
REMARK  1 active torsions:
REMARK  status: ('A' for Active; 'I' for Inactive)
REMARK    1  A    between atoms: C_9  and  O_1 
ROOT
HETATM    1  O   UNK N   1      35.605   8.090  20.760  0.00  0.00    -0.321 OA
HETATM    2  O   UNK N   1      34.063   8.181  22.371  0.00  0.00    -0.265 OA
HETATM    3  C   UNK N   1      35.986  12.219  16.118  0.00  0.00     0.001 C 
HETATM    4  C   UNK N   1      36.043  11.178  15.001  0.00  0.00    -0.009 C 
HETATM    5  C   UNK N   1      35.313  11.654  17.384  0.00  0.00    -0.005 C 
HETATM    6  C   UNK N   1      36.089  10.392  17.848  0.00  0.00     0.001 C 
HETATM    7  C   UNK N   1      35.328   9.706  19.021  0.00  0.00    -0.014 C 
HETATM    8  C   UNK N   1      36.587  12.023  13.843  0.00  0.00     0.062 C 
HETATM    9  C   UNK N   1      36.931  10.013  15.439  0.00  0.00     0.013 C 
HETATM   10  C   UNK N   1      36.356   9.374  16.708  0.00  0.00     0.007 C 
HETATM   11  C   UNK N   1      35.330  13.417  15.439  0.00  0.00     0.009 C 
HETATM   12  C   UNK N   1      34.708  10.749  20.030  0.00  0.00     0.005 C 
HETATM   13  C   UNK N   1      35.312  12.707  18.517  0.00  0.00     0.006 C 
HETATM   14  C   UNK N   1      35.771  13.317  13.962  0.00  0.00     0.038 C 
HETATM   15  C   UNK N   1      35.400  12.109  19.938  0.00  0.00     0.006 C 
HETATM   16  C   UNK N   1      34.634  10.645  14.651  0.00  0.00     0.018 C 
HETATM   17  C   UNK N   1      36.289   8.750  19.754  0.00  0.00     0.188 C 
HETATM   18  C   UNK N   1      34.163   8.862  18.475  0.00  0.00     0.018 C 
HETATM   19  C   UNK N   1      34.736  10.276  21.497  0.00  0.00     0.116 C 
HETATM   20  C   UNK N   1      36.435  11.370  12.475  0.00  0.00     0.046 C 
HETATM   21  C   UNK N   1      34.787   8.778  21.591  0.00  0.00     0.259 C 
ENDROOT
BRANCH   8  22
HETATM   22  O   UNK N   1      37.938  12.325  14.043  0.00  0.00    -0.389 OA
HETATM   23  H   UNK N   1      38.904  12.407  14.041  0.00  0.00     0.210 HD
ENDBRANCH   8  22
TORSDOF 1
ENDMDL
MODEL 8
REMARK VINA RESULT:      -6.8      1.519      2.709
REMARK  1 active torsions:
REMARK  status: ('A' for Active; 'I' for Inactive)
REMARK    1  A    between atoms: C_9  and  O_1 
ROOT
HETATM    1  O   UNK N   1      33.423  21.345  -5.070  0.00  0.00    -0.321 OA
HETATM    2  O   UNK N   1      33.987  19.652  -3.729  0.00  0.00    -0.265 OA
HETATM    3  C   UNK N   1      27.960  24.312  -4.761  0.00  0.00     0.001 C 
HETATM    4  C   UNK N   1      27.646  24.197  -6.252  0.00  0.00    -0.009 C 
HETATM    5  C   UNK N   1      28.939  23.214  -4.303  0.00  0.00    -0.005 C 
HETATM    6  C   UNK N   1      30.239  23.312  -5.146  0.00  0.00     0.001 C 
HETATM    7  C   UNK N   1      31.171  22.108  -4.820  0.00  0.00    -0.014 C 
HETATM    8  C   UNK N   1      26.558  25.266  -6.405  0.00  0.00     0.062 C 
HETATM    9  C   UNK N   1      28.924  24.439  -7.058  0.00  0.00     0.013 C 
HETATM   10  C   UNK N   1      29.982  23.399  -6.674  0.00  0.00     0.007 C 
HETATM   11  C   UNK N   1      26.576  24.343  -4.121  0.00  0.00     0.009 C 
HETATM   12  C   UNK N   1      31.173  21.744  -3.285  0.00  0.00     0.005 C 
HETATM   13  C   UNK N   1      29.281  23.380  -2.804  0.00  0.00     0.006 C 
HETATM   14  C   UNK N   1      25.673  25.019  -5.176  0.00  0.00     0.038 C 
HETATM   15  C   UNK N   1      30.703  22.915  -2.423  0.00  0.00     0.006 C 
HETATM   16  C   UNK N   1      27.074  22.805  -6.606  0.00  0.00     0.018 C 
HETATM   17  C   UNK N   1      32.600  22.433  -5.300  0.00  0.00     0.188 C 
HETATM   18  C   UNK N   1      30.703  20.855  -5.579  0.00  0.00     0.018 C 
HETATM   19  C   UNK N   1      32.544  21.265  -2.768  0.00  0.00     0.116 C 
HETATM   20  C   UNK N   1      25.775  25.171  -7.708  0.00  0.00     0.046 C 
HETATM   21  C   UNK N   1      33.384  20.703  -3.878  0.00  0.00     0.259 C 
ENDROOT
BRANCH   8  22
HETATM   22  O   UNK N   1      27.108  26.549  -6.310  0.00  0.00    -0.389 OA
HETATM   23  H   UNK N   1      27.388  27.449  -6.080  0.00  0.00     0.210 HD
ENDBRANCH   8  22
TORSDOF 1
ENDMDL
MODEL 9
REMARK VINA RESULT:      -6.8     20.400     24.054
REMARK  1 active torsions:
REMARK  status: ('A' for Active; 'I' for Inactive)
REMARK    1  A    between atoms: C_9  and  O_1 
ROOT
HETATM    1  O   UNK N   1      36.074   9.421  17.717  0.00  0.00    -0.321 OA
HETATM    2  O   UNK N   1      34.504   9.579  19.296  0.00  0.00    -0.265 OA
HETATM    3  C   UNK N   1      36.613  13.423  12.981  0.00  0.00     0.001 C 
HETATM    4  C   UNK N   1      36.671  12.353  11.891  0.00  0.00    -0.009 C 
HETATM    5  C   UNK N   1      35.906  12.901  14.247  0.00  0.00    -0.005 C 
HETATM    6  C   UNK N   1      36.652  11.639  14.758  0.00  0.00     0.001 C 
HETATM    7  C   UNK N   1      35.857  10.996  15.933  0.00  0.00    -0.014 C 
HETATM    8  C   UNK N   1      37.252  13.158  10.723  0.00  0.00     0.062 C 
HETATM    9  C   UNK N   1      37.531  11.184  12.376  0.00  0.00     0.013 C 
HETATM   10  C   UNK N   1      36.922  10.587  13.649  0.00  0.00     0.007 C 
HETATM   11  C   UNK N   1      35.991  14.614  12.259  0.00  0.00     0.009 C 
HETATM   12  C   UNK N   1      35.237  12.075  16.904  0.00  0.00     0.005 C 
HETATM   13  C   UNK N   1      35.903  13.983  15.353  0.00  0.00     0.006 C 
HETATM   14  C   UNK N   1      36.457  14.469  10.793  0.00  0.00     0.038 C 
HETATM   15  C   UNK N   1      35.954  13.420  16.790  0.00  0.00     0.006 C 
HETATM   16  C   UNK N   1      35.261  11.835  11.528  0.00  0.00     0.018 C 
HETATM   17  C   UNK N   1      36.788  10.043  16.709  0.00  0.00     0.188 C 
HETATM   18  C   UNK N   1      34.688  10.158  15.387  0.00  0.00     0.018 C 
HETATM   19  C   UNK N   1      35.230  11.640  18.383  0.00  0.00     0.116 C 
HETATM   20  C   UNK N   1      37.114  12.473   9.370  0.00  0.00     0.046 C 
HETATM   21  C   UNK N   1      35.253  10.144  18.515  0.00  0.00     0.259 C 
ENDROOT
BRANCH   8  22
HETATM   22  O   UNK N   1      38.604  13.442  10.941  0.00  0.00    -0.389 OA
HETATM   23  H   UNK N   1      39.571  13.513  10.950  0.00  0.00     0.210 HD
ENDBRANCH   8  22
TORSDOF 1
ENDMDL
