REMARK  1 active torsions:
REMARK  status: ('A' for Active; 'I' for Inactive)
REMARK    1  A    between atoms: C_10  and  O_1 
ROOT
HETATM    1  O   UNK N   1       0.028  -3.616  -0.344  0.00  0.00    -0.293 OA
HETATM    2  C   UNK N   1       7.025  -0.218   0.126  0.00  0.00     0.001 C 
HETATM    3  C   UNK N   1       6.876   1.167  -0.493  0.00  0.00    -0.014 C 
HETATM    4  C   UNK N   1       5.797  -1.097  -0.156  0.00  0.00    -0.004 C 
HETATM    5  C   UNK N   1       4.518  -0.404   0.386  0.00  0.00     0.002 C 
HETATM    6  C   UNK N   1       3.268  -1.200  -0.077  0.00  0.00    -0.016 C 
HETATM    7  C   UNK N   1       5.699   1.883   0.172  0.00  0.00     0.012 C 
HETATM    8  C   UNK N   1       4.410   1.078  -0.066  0.00  0.00     0.007 C 
HETATM    9  C   UNK N   1       8.257   1.766  -0.256  0.00  0.00     0.126 C 
HETATM   10  C   UNK N   1       8.355  -0.698  -0.429  0.00  0.00     0.008 C 
HETATM   11  C   UNK N   1       5.944  -2.445   0.551  0.00  0.00     0.010 C 
HETATM   12  C   UNK N   1       9.197   0.585  -0.550  0.00  0.00     0.033 C 
HETATM   13  C   UNK N   1       3.401  -2.697   0.196  0.00  0.00    -0.068 C 
HETATM   14  C   UNK N   1       4.739  -3.372   0.383  0.00  0.00     0.035 C 
HETATM   15  C   UNK N   1       6.643   1.126  -2.014  0.00  0.00     0.018 C 
HETATM   16  C   UNK N   1       2.003  -0.683   0.629  0.00  0.00     0.022 C 
HETATM   17  C   UNK N   1       3.081  -1.026  -1.592  0.00  0.00     0.020 C 
HETATM   18  C   UNK N   1       0.738  -1.416   0.147  0.00  0.00     0.084 C 
HETATM   19  C   UNK N   1       2.313  -3.481   0.120  0.00  0.00     0.053 C 
HETATM   20  C   UNK N   1       0.967  -2.895  -0.050  0.00  0.00     0.149 C 
ENDROOT
BRANCH   9  21
HETATM   21  O   UNK N   1       8.419   2.136   1.083  0.00  0.00    -0.395 OA
HETATM   22  H   UNK N   1       8.697   2.167   2.011  0.00  0.00     0.210 HD
ENDBRANCH   9  21
TORSDOF 1
