MODEL 1
REMARK VINA RESULT:      -7.9      0.000      0.000
REMARK  1 active torsions:
REMARK  status: ('A' for Active; 'I' for Inactive)
REMARK    1  A    between atoms: C_10  and  O_1 
ROOT
HETATM    1  O   UNK N   1      35.212   8.937  21.846  0.00  0.00    -0.293 OA
HETATM    2  C   UNK N   1      35.449  12.928  15.158  0.00  0.00     0.001 C 
HETATM    3  C   UNK N   1      35.809  11.925  14.068  0.00  0.00    -0.014 C 
HETATM    4  C   UNK N   1      35.645  12.332  16.560  0.00  0.00    -0.004 C 
HETATM    5  C   UNK N   1      34.787  11.047  16.711  0.00  0.00     0.002 C 
HETATM    6  C   UNK N   1      35.142  10.347  18.050  0.00  0.00    -0.016 C 
HETATM    7  C   UNK N   1      34.846  10.740  14.147  0.00  0.00     0.012 C 
HETATM    8  C   UNK N   1      34.977  10.065  15.523  0.00  0.00     0.007 C 
HETATM    9  C   UNK N   1      35.727  12.785  12.812  0.00  0.00     0.126 C 
HETATM   10  C   UNK N   1      36.296  14.138  14.801  0.00  0.00     0.008 C 
HETATM   11  C   UNK N   1      35.193  13.334  17.623  0.00  0.00     0.010 C 
HETATM   12  C   UNK N   1      36.361  14.111  13.263  0.00  0.00     0.033 C 
HETATM   13  C   UNK N   1      35.133  11.317  19.230  0.00  0.00    -0.068 C 
HETATM   14  C   UNK N   1      35.290  12.809  19.056  0.00  0.00     0.035 C 
HETATM   15  C   UNK N   1      37.254  11.405  14.180  0.00  0.00     0.018 C 
HETATM   16  C   UNK N   1      34.155   9.206  18.345  0.00  0.00     0.022 C 
HETATM   17  C   UNK N   1      36.556   9.751  17.958  0.00  0.00     0.020 C 
HETATM   18  C   UNK N   1      34.516   8.455  19.639  0.00  0.00     0.084 C 
HETATM   19  C   UNK N   1      35.139  10.832  20.483  0.00  0.00     0.053 C 
HETATM   20  C   UNK N   1      34.978   9.384  20.736  0.00  0.00     0.149 C 
ENDROOT
BRANCH   9  21
HETATM   21  O   UNK N   1      34.396  13.029  12.459  0.00  0.00    -0.395 OA
HETATM   22  H   UNK N   1      33.427  13.062  12.454  0.00  0.00     0.210 HD
ENDBRANCH   9  21
TORSDOF 1
ENDMDL
MODEL 2
REMARK VINA RESULT:      -7.4     14.453     17.152
REMARK  1 active torsions:
REMARK  status: ('A' for Active; 'I' for Inactive)
REMARK    1  A    between atoms: C_10  and  O_1 
ROOT
HETATM    1  O   UNK N   1      19.906  16.639   3.349  0.00  0.00    -0.293 OA
HETATM    2  C   UNK N   1      22.874  13.397   9.784  0.00  0.00     0.001 C 
HETATM    3  C   UNK N   1      24.003  12.481   9.326  0.00  0.00    -0.014 C 
HETATM    4  C   UNK N   1      22.023  13.880   8.599  0.00  0.00    -0.004 C 
HETATM    5  C   UNK N   1      22.923  14.613   7.569  0.00  0.00     0.002 C 
HETATM    6  C   UNK N   1      22.095  14.919   6.291  0.00  0.00    -0.016 C 
HETATM    7  C   UNK N   1      24.957  13.277   8.434  0.00  0.00     0.012 C 
HETATM    8  C   UNK N   1      24.193  13.797   7.204  0.00  0.00     0.007 C 
HETATM    9  C   UNK N   1      24.566  11.990  10.654  0.00  0.00     0.126 C 
HETATM   10  C   UNK N   1      22.169  12.567  10.843  0.00  0.00     0.008 C 
HETATM   11  C   UNK N   1      20.957  14.862   9.086  0.00  0.00     0.010 C 
HETATM   12  C   UNK N   1      23.300  11.750  11.494  0.00  0.00     0.033 C 
HETATM   13  C   UNK N   1      20.753  15.574   6.614  0.00  0.00    -0.068 C 
HETATM   14  C   UNK N   1      20.095  15.451   7.968  0.00  0.00     0.035 C 
HETATM   15  C   UNK N   1      23.502  11.249   8.550  0.00  0.00     0.018 C 
HETATM   16  C   UNK N   1      22.878  15.846   5.346  0.00  0.00     0.022 C 
HETATM   17  C   UNK N   1      21.797  13.609   5.546  0.00  0.00     0.020 C 
HETATM   18  C   UNK N   1      22.105  16.122   4.044  0.00  0.00     0.084 C 
HETATM   19  C   UNK N   1      20.048  16.155   5.629  0.00  0.00     0.053 C 
HETATM   20  C   UNK N   1      20.628  16.324   4.280  0.00  0.00     0.149 C 
ENDROOT
BRANCH   9  21
HETATM   21  O   UNK N   1      25.325  12.986  11.275  0.00  0.00    -0.395 OA
HETATM   22  H   UNK N   1      25.852  13.490  11.913  0.00  0.00     0.210 HD
ENDBRANCH   9  21
TORSDOF 1
ENDMDL
MODEL 3
REMARK VINA RESULT:      -7.2     25.990     27.919
REMARK  1 active torsions:
REMARK  status: ('A' for Active; 'I' for Inactive)
REMARK    1  A    between atoms: C_10  and  O_1 
ROOT
HETATM    1  O   UNK N   1      28.718  20.182  -8.513  0.00  0.00    -0.293 OA
HETATM    2  C   UNK N   1      27.396  26.635  -4.349  0.00  0.00     0.001 C 
HETATM    3  C   UNK N   1      26.443  27.494  -5.172  0.00  0.00    -0.014 C 
HETATM    4  C   UNK N   1      27.959  25.468  -5.174  0.00  0.00    -0.004 C 
HETATM    5  C   UNK N   1      26.794  24.599  -5.720  0.00  0.00     0.002 C 
HETATM    6  C   UNK N   1      27.361  23.546  -6.710  0.00  0.00    -0.016 C 
HETATM    7  C   UNK N   1      25.230  26.649  -5.566  0.00  0.00     0.012 C 
HETATM    8  C   UNK N   1      25.694  25.450  -6.411  0.00  0.00     0.007 C 
HETATM    9  C   UNK N   1      26.179  28.661  -4.229  0.00  0.00     0.126 C 
HETATM   10  C   UNK N   1      28.397  27.648  -3.821  0.00  0.00     0.008 C 
HETATM   11  C   UNK N   1      28.842  24.582  -4.294  0.00  0.00     0.010 C 
HETATM   12  C   UNK N   1      27.566  28.929  -3.620  0.00  0.00     0.033 C 
HETATM   13  C   UNK N   1      28.559  22.795  -6.134  0.00  0.00    -0.068 C 
HETATM   14  C   UNK N   1      29.401  23.352  -5.010  0.00  0.00     0.035 C 
HETATM   15  C   UNK N   1      27.091  28.064  -6.446  0.00  0.00     0.018 C 
HETATM   16  C   UNK N   1      26.278  22.522  -7.091  0.00  0.00     0.022 C 
HETATM   17  C   UNK N   1      27.834  24.249  -7.992  0.00  0.00     0.020 C 
HETATM   18  C   UNK N   1      26.794  21.497  -8.117  0.00  0.00     0.084 C 
HETATM   19  C   UNK N   1      28.986  21.672  -6.734  0.00  0.00     0.053 C 
HETATM   20  C   UNK N   1      28.211  21.059  -7.833  0.00  0.00     0.149 C 
ENDROOT
BRANCH   9  21
HETATM   21  O   UNK N   1      25.311  28.287  -3.199  0.00  0.00    -0.395 OA
HETATM   22  H   UNK N   1      24.518  28.064  -2.686  0.00  0.00     0.210 HD
ENDBRANCH   9  21
TORSDOF 1
ENDMDL
MODEL 4
REMARK VINA RESULT:      -7.1     23.474     26.137
REMARK  1 active torsions:
REMARK  status: ('A' for Active; 'I' for Inactive)
REMARK    1  A    between atoms: C_10  and  O_1 
ROOT
HETATM    1  O   UNK N   1      32.789  20.813  -4.538  0.00  0.00    -0.293 OA
HETATM    2  C   UNK N   1      27.998  26.947  -4.176  0.00  0.00     0.001 C 
HETATM    3  C   UNK N   1      26.604  26.429  -4.512  0.00  0.00    -0.014 C 
HETATM    4  C   UNK N   1      29.079  25.901  -4.487  0.00  0.00    -0.004 C 
HETATM    5  C   UNK N   1      28.790  24.596  -3.698  0.00  0.00     0.002 C 
HETATM    6  C   UNK N   1      29.769  23.486  -4.168  0.00  0.00    -0.016 C 
HETATM    7  C   UNK N   1      26.289  25.234  -3.609  0.00  0.00     0.012 C 
HETATM    8  C   UNK N   1      27.320  24.120  -3.857  0.00  0.00     0.007 C 
HETATM    9  C   UNK N   1      25.750  27.675  -4.313  0.00  0.00     0.126 C 
HETATM   10  C   UNK N   1      28.068  28.256  -4.944  0.00  0.00     0.008 C 
HETATM   11  C   UNK N   1      30.451  26.423  -4.058  0.00  0.00     0.010 C 
HETATM   12  C   UNK N   1      26.624  28.788  -4.914  0.00  0.00     0.033 C 
HETATM   13  C   UNK N   1      31.219  23.963  -4.189  0.00  0.00    -0.068 C 
HETATM   14  C   UNK N   1      31.591  25.425  -4.268  0.00  0.00     0.035 C 
HETATM   15  C   UNK N   1      26.459  25.997  -5.982  0.00  0.00     0.018 C 
HETATM   16  C   UNK N   1      29.671  22.253  -3.252  0.00  0.00     0.022 C 
HETATM   17  C   UNK N   1      29.407  23.055  -5.598  0.00  0.00     0.020 C 
HETATM   18  C   UNK N   1      30.590  21.113  -3.728  0.00  0.00     0.084 C 
HETATM   19  C   UNK N   1      32.210  23.062  -4.295  0.00  0.00     0.053 C 
HETATM   20  C   UNK N   1      31.928  21.614  -4.215  0.00  0.00     0.149 C 
ENDROOT
BRANCH   9  21
HETATM   21  O   UNK N   1      25.566  27.943  -2.952  0.00  0.00    -0.395 OA
HETATM   22  H   UNK N   1      25.513  28.387  -2.092  0.00  0.00     0.210 HD
ENDBRANCH   9  21
TORSDOF 1
ENDMDL
MODEL 5
REMARK VINA RESULT:      -7.1     22.609     25.395
REMARK  1 active torsions:
REMARK  status: ('A' for Active; 'I' for Inactive)
REMARK    1  A    between atoms: C_10  and  O_1 
ROOT
HETATM    1  O   UNK N   1      34.164  20.250  -3.725  0.00  0.00    -0.293 OA
HETATM    2  C   UNK N   1      27.520  24.279  -4.321  0.00  0.00     0.001 C 
HETATM    3  C   UNK N   1      27.302  24.536  -5.807  0.00  0.00    -0.014 C 
HETATM    4  C   UNK N   1      28.933  23.742  -4.043  0.00  0.00    -0.004 C 
HETATM    5  C   UNK N   1      29.168  22.438  -4.851  0.00  0.00     0.002 C 
HETATM    6  C   UNK N   1      30.657  22.015  -4.719  0.00  0.00    -0.016 C 
HETATM    7  C   UNK N   1      27.389  23.205  -6.558  0.00  0.00     0.012 C 
HETATM    8  C   UNK N   1      28.783  22.590  -6.348  0.00  0.00     0.007 C 
HETATM    9  C   UNK N   1      25.944  25.229  -5.809  0.00  0.00     0.126 C 
HETATM   10  C   UNK N   1      27.155  25.610  -3.687  0.00  0.00     0.008 C 
HETATM   11  C   UNK N   1      29.086  23.415  -2.557  0.00  0.00     0.010 C 
HETATM   12  C   UNK N   1      26.035  26.161  -4.589  0.00  0.00     0.033 C 
HETATM   13  C   UNK N   1      31.132  22.014  -3.268  0.00  0.00    -0.068 C 
HETATM   14  C   UNK N   1      30.443  22.813  -2.187  0.00  0.00     0.035 C 
HETATM   15  C   UNK N   1      28.324  25.517  -6.407  0.00  0.00     0.018 C 
HETATM   16  C   UNK N   1      30.876  20.611  -5.309  0.00  0.00     0.022 C 
HETATM   17  C   UNK N   1      31.542  23.006  -5.490  0.00  0.00     0.020 C 
HETATM   18  C   UNK N   1      32.355  20.188  -5.244  0.00  0.00     0.084 C 
HETATM   19  C   UNK N   1      32.289  21.409  -2.953  0.00  0.00     0.053 C 
HETATM   20  C   UNK N   1      33.017  20.599  -3.952  0.00  0.00     0.149 C 
ENDROOT
BRANCH   9  21
HETATM   21  O   UNK N   1      24.913  24.310  -5.586  0.00  0.00    -0.395 OA
HETATM   22  H   UNK N   1      24.096  23.795  -5.663  0.00  0.00     0.210 HD
ENDBRANCH   9  21
TORSDOF 1
ENDMDL
MODEL 6
REMARK VINA RESULT:      -7.0      2.004      3.855
REMARK  1 active torsions:
REMARK  status: ('A' for Active; 'I' for Inactive)
REMARK    1  A    between atoms: C_10  and  O_1 
ROOT
HETATM    1  O   UNK N   1      34.769  10.803  19.524  0.00  0.00    -0.293 OA
HETATM    2  C   UNK N   1      37.407  12.080  12.304  0.00  0.00     0.001 C 
HETATM    3  C   UNK N   1      36.471  13.107  11.676  0.00  0.00    -0.014 C 
HETATM    4  C   UNK N   1      36.839  11.530  13.621  0.00  0.00    -0.004 C 
HETATM    5  C   UNK N   1      36.584  12.697  14.612  0.00  0.00     0.002 C 
HETATM    6  C   UNK N   1      35.830  12.157  15.857  0.00  0.00    -0.016 C 
HETATM    7  C   UNK N   1      36.362  14.313  12.610  0.00  0.00     0.012 C 
HETATM    8  C   UNK N   1      35.787  13.862  13.964  0.00  0.00     0.007 C 
HETATM    9  C   UNK N   1      37.134  13.350  10.326  0.00  0.00     0.126 C 
HETATM   10  C   UNK N   1      37.622  11.082  11.179  0.00  0.00     0.008 C 
HETATM   11  C   UNK N   1      37.842  10.570  14.264  0.00  0.00     0.010 C 
HETATM   12  C   UNK N   1      37.575  11.940   9.902  0.00  0.00     0.033 C 
HETATM   13  C   UNK N   1      36.486  10.904  16.433  0.00  0.00    -0.068 C 
HETATM   14  C   UNK N   1      37.394  10.015  15.617  0.00  0.00     0.035 C 
HETATM   15  C   UNK N   1      35.061  12.552  11.407  0.00  0.00     0.018 C 
HETATM   16  C   UNK N   1      35.765  13.228  16.960  0.00  0.00     0.022 C 
HETATM   17  C   UNK N   1      34.393  11.782  15.464  0.00  0.00     0.020 C 
HETATM   18  C   UNK N   1      34.973  12.740  18.186  0.00  0.00     0.084 C 
HETATM   19  C   UNK N   1      36.135  10.478  17.658  0.00  0.00     0.053 C 
HETATM   20  C   UNK N   1      35.259  11.297  18.522  0.00  0.00     0.149 C 
ENDROOT
BRANCH   9  21
HETATM   21  O   UNK N   1      38.277  14.146  10.466  0.00  0.00    -0.395 OA
HETATM   22  H   UNK N   1      39.195  14.453  10.509  0.00  0.00     0.210 HD
ENDBRANCH   9  21
TORSDOF 1
ENDMDL
MODEL 7
REMARK VINA RESULT:      -7.0     22.763     26.530
REMARK  1 active torsions:
REMARK  status: ('A' for Active; 'I' for Inactive)
REMARK    1  A    between atoms: C_10  and  O_1 
ROOT
HETATM    1  O   UNK N   1      32.582  21.535  -2.237  0.00  0.00    -0.293 OA
HETATM    2  C   UNK N   1      26.751  24.372  -6.558  0.00  0.00     0.001 C 
HETATM    3  C   UNK N   1      27.153  24.170  -8.014  0.00  0.00    -0.014 C 
HETATM    4  C   UNK N   1      27.929  24.115  -5.606  0.00  0.00    -0.004 C 
HETATM    5  C   UNK N   1      28.472  22.676  -5.816  0.00  0.00     0.002 C 
HETATM    6  C   UNK N   1      29.779  22.496  -4.998  0.00  0.00    -0.016 C 
HETATM    7  C   UNK N   1      27.536  22.704  -8.224  0.00  0.00     0.012 C 
HETATM    8  C   UNK N   1      28.725  22.351  -7.314  0.00  0.00     0.007 C 
HETATM    9  C   UNK N   1      25.913  24.660  -8.753  0.00  0.00     0.126 C 
HETATM   10  C   UNK N   1      26.160  25.772  -6.558  0.00  0.00     0.008 C 
HETATM   11  C   UNK N   1      27.467  24.243  -4.154  0.00  0.00     0.010 C 
HETATM   12  C   UNK N   1      25.502  25.902  -7.944  0.00  0.00     0.033 C 
HETATM   13  C   UNK N   1      29.625  22.964  -3.552  0.00  0.00    -0.068 C 
HETATM   14  C   UNK N   1      28.557  23.942  -3.124  0.00  0.00     0.035 C 
HETATM   15  C   UNK N   1      28.331  25.062  -8.444  0.00  0.00     0.018 C 
HETATM   16  C   UNK N   1      30.218  21.022  -4.993  0.00  0.00     0.022 C 
HETATM   17  C   UNK N   1      30.901  23.333  -5.632  0.00  0.00     0.020 C 
HETATM   18  C   UNK N   1      31.543  20.822  -4.236  0.00  0.00     0.084 C 
HETATM   19  C   UNK N   1      30.555  22.621  -2.645  0.00  0.00     0.053 C 
HETATM   20  C   UNK N   1      31.625  21.660  -2.983  0.00  0.00     0.149 C 
ENDROOT
BRANCH   9  21
HETATM   21  O   UNK N   1      24.880  23.720  -8.674  0.00  0.00    -0.395 OA
HETATM   22  H   UNK N   1      24.052  23.266  -8.455  0.00  0.00     0.210 HD
ENDBRANCH   9  21
TORSDOF 1
ENDMDL
MODEL 8
REMARK VINA RESULT:      -6.9     23.122     25.630
REMARK  1 active torsions:
REMARK  status: ('A' for Active; 'I' for Inactive)
REMARK    1  A    between atoms: C_10  and  O_1 
ROOT
HETATM    1  O   UNK N   1      33.496  19.039  -4.296  0.00  0.00    -0.293 OA
HETATM    2  C   UNK N   1      27.755  24.142  -5.615  0.00  0.00     0.001 C 
HETATM    3  C   UNK N   1      27.644  25.002  -4.361  0.00  0.00    -0.014 C 
HETATM    4  C   UNK N   1      28.654  22.918  -5.381  0.00  0.00    -0.004 C 
HETATM    5  C   UNK N   1      30.064  23.380  -4.923  0.00  0.00     0.002 C 
HETATM    6  C   UNK N   1      30.897  22.140  -4.501  0.00  0.00    -0.016 C 
HETATM    7  C   UNK N   1      29.025  25.567  -4.023  0.00  0.00     0.012 C 
HETATM    8  C   UNK N   1      30.001  24.407  -3.760  0.00  0.00     0.007 C 
HETATM    9  C   UNK N   1      26.578  26.012  -4.767  0.00  0.00     0.126 C 
HETATM   10  C   UNK N   1      26.304  23.870  -5.971  0.00  0.00     0.008 C 
HETATM   11  C   UNK N   1      28.811  22.128  -6.681  0.00  0.00     0.010 C 
HETATM   12  C   UNK N   1      25.564  25.148  -5.536  0.00  0.00     0.033 C 
HETATM   13  C   UNK N   1      30.850  21.027  -5.546  0.00  0.00    -0.068 C 
HETATM   14  C   UNK N   1      29.743  20.921  -6.568  0.00  0.00     0.035 C 
HETATM   15  C   UNK N   1      27.108  24.227  -3.144  0.00  0.00     0.018 C 
HETATM   16  C   UNK N   1      32.366  22.529  -4.264  0.00  0.00     0.022 C 
HETATM   17  C   UNK N   1      30.333  21.563  -3.193  0.00  0.00     0.020 C 
HETATM   18  C   UNK N   1      33.207  21.329  -3.789  0.00  0.00     0.084 C 
HETATM   19  C   UNK N   1      31.730  20.015  -5.473  0.00  0.00     0.053 C 
HETATM   20  C   UNK N   1      32.849  20.052  -4.508  0.00  0.00     0.149 C 
ENDROOT
BRANCH   9  21
HETATM   21  O   UNK N   1      27.101  26.965  -5.646  0.00  0.00    -0.395 OA
HETATM   22  H   UNK N   1      27.705  27.539  -6.142  0.00  0.00     0.210 HD
ENDBRANCH   9  21
TORSDOF 1
ENDMDL
MODEL 9
REMARK VINA RESULT:      -6.6     17.384     20.369
REMARK  1 active torsions:
REMARK  status: ('A' for Active; 'I' for Inactive)
REMARK    1  A    between atoms: C_10  and  O_1 
ROOT
HETATM    1  O   UNK N   1      20.312  17.324  -0.313  0.00  0.00    -0.293 OA
HETATM    2  C   UNK N   1      20.576  13.847   6.657  0.00  0.00     0.001 C 
HETATM    3  C   UNK N   1      21.318  14.799   7.588  0.00  0.00    -0.014 C 
HETATM    4  C   UNK N   1      20.701  14.282   5.189  0.00  0.00    -0.004 C 
HETATM    5  C   UNK N   1      20.157  15.727   5.020  0.00  0.00     0.002 C 
HETATM    6  C   UNK N   1      20.468  16.227   3.584  0.00  0.00    -0.016 C 
HETATM    7  C   UNK N   1      20.660  16.178   7.513  0.00  0.00     0.012 C 
HETATM    8  C   UNK N   1      20.745  16.708   6.071  0.00  0.00     0.007 C 
HETATM    9  C   UNK N   1      21.220  14.072   8.923  0.00  0.00     0.126 C 
HETATM   10  C   UNK N   1      21.157  12.492   7.023  0.00  0.00     0.008 C 
HETATM   11  C   UNK N   1      19.875  13.355   4.296  0.00  0.00     0.010 C 
HETATM   12  C   UNK N   1      21.450  12.603   8.530  0.00  0.00     0.033 C 
HETATM   13  C   UNK N   1      20.058  15.215   2.516  0.00  0.00    -0.068 C 
HETATM   14  C   UNK N   1      19.882  13.745   2.816  0.00  0.00     0.035 C 
HETATM   15  C   UNK N   1      22.812  14.937   7.243  0.00  0.00     0.018 C 
HETATM   16  C   UNK N   1      19.745  17.556   3.303  0.00  0.00     0.022 C 
HETATM   17  C   UNK N   1      21.979  16.460   3.437  0.00  0.00     0.020 C 
HETATM   18  C   UNK N   1      20.080  18.106   1.905  0.00  0.00     0.084 C 
HETATM   19  C   UNK N   1      19.995  15.599   1.231  0.00  0.00     0.053 C 
HETATM   20  C   UNK N   1      20.144  17.022   0.857  0.00  0.00     0.149 C 
ENDROOT
BRANCH   9  21
HETATM   21  O   UNK N   1      19.935  14.188   9.463  0.00  0.00    -0.395 OA
HETATM   22  H   UNK N   1      19.017  14.451   9.627  0.00  0.00     0.210 HD
ENDBRANCH   9  21
TORSDOF 1
ENDMDL
