MODEL 1
REMARK VINA RESULT:      -6.8      0.000      0.000
REMARK  3 active torsions:
REMARK  status: ('A' for Active; 'I' for Inactive)
REMARK    1  A    between atoms: C_8  and  C_12 
REMARK    2  A    between atoms: C_11  and  C_14 
REMARK    3  A    between atoms: C_11  and  C_16 
ROOT
HETATM    1 Cl   UNK N   1      28.278  16.299   6.351  0.00  0.00    -0.084 Cl
HETATM    2  O   UNK N   1      34.438  17.813   6.897  0.00  0.00    -0.265 OA
HETATM    3  O   UNK N   1      35.368  19.116   8.462  0.00  0.00    -0.238 OA
HETATM    4  N   UNK N   1      33.218  18.604   8.756  0.00  0.00    -0.302 N 
HETATM    5  C   UNK N   1      33.534  16.799   6.596  0.00  0.00     0.261 C 
HETATM    6  C   UNK N   1      32.151  17.116   7.154  0.00  0.00     0.027 A 
HETATM    7  C   UNK N   1      32.051  17.991   8.245  0.00  0.00     0.047 A 
HETATM    8  C   UNK N   1      30.980  16.573   6.595  0.00  0.00     0.037 A 
HETATM    9  C   UNK N   1      30.799  18.296   8.789  0.00  0.00     0.032 A 
HETATM   10  C   UNK N   1      34.381  18.521   8.062  0.00  0.00     0.367 C 
HETATM   11  C   UNK N   1      29.730  16.909   7.115  0.00  0.00     0.034 A 
HETATM   12  C   UNK N   1      29.639  17.759   8.220  0.00  0.00     0.026 A 
HETATM   13  H   UNK N   1      33.187  19.088   9.612  0.00  0.00     0.171 HD
ENDROOT
BRANCH   5  14
HETATM   14  C   UNK N   1      33.426  16.597   5.141  0.00  0.00    -0.053 C 
HETATM   15  C   UNK N   1      33.392  16.185   4.009  0.00  0.00    -0.098 C 
BRANCH  15  16
HETATM   16  C   UNK N   1      33.490  15.620   2.667  0.00  0.00     0.065 A 
HETATM   17  C   UNK N   1      32.838  14.249   2.686  0.00  0.00     0.018 A 
HETATM   18  C   UNK N   1      34.344  14.368   2.731  0.00  0.00     0.018 A 
ENDBRANCH  15  16
ENDBRANCH   5  14
BRANCH   5  19
HETATM   19  C   UNK N   1      34.086  15.486   7.194  0.00  0.00     0.435 C 
HETATM   20  F   UNK N   1      35.467  15.440   7.102  0.00  0.00    -0.166 F 
HETATM   21  F   UNK N   1      33.728  15.399   8.532  0.00  0.00    -0.166 F 
HETATM   22  F   UNK N   1      33.560  14.392   6.533  0.00  0.00    -0.166 F 
ENDBRANCH   5  19
TORSDOF 3
ENDMDL
MODEL 2
REMARK VINA RESULT:      -6.5     13.413     14.849
REMARK  3 active torsions:
REMARK  status: ('A' for Active; 'I' for Inactive)
REMARK    1  A    between atoms: C_8  and  C_12 
REMARK    2  A    between atoms: C_11  and  C_14 
REMARK    3  A    between atoms: C_11  and  C_16 
ROOT
HETATM    1 Cl   UNK N   1      28.215  21.266  -8.720  0.00  0.00    -0.084 Cl
HETATM    2  O   UNK N   1      29.049  23.794  -2.937  0.00  0.00    -0.265 OA
HETATM    3  O   UNK N   1      30.407  23.042  -1.324  0.00  0.00    -0.238 OA
HETATM    4  N   UNK N   1      30.584  22.041  -3.309  0.00  0.00    -0.302 N 
HETATM    5  C   UNK N   1      28.868  24.071  -4.289  0.00  0.00     0.261 C 
HETATM    6  C   UNK N   1      29.214  22.859  -5.145  0.00  0.00     0.027 A 
HETATM    7  C   UNK N   1      30.094  21.898  -4.627  0.00  0.00     0.047 A 
HETATM    8  C   UNK N   1      28.662  22.670  -6.425  0.00  0.00     0.037 A 
HETATM    9  C   UNK N   1      30.441  20.778  -5.390  0.00  0.00     0.032 A 
HETATM   10  C   UNK N   1      30.038  22.971  -2.485  0.00  0.00     0.367 C 
HETATM   11  C   UNK N   1      28.980  21.533  -7.169  0.00  0.00     0.034 A 
HETATM   12  C   UNK N   1      29.880  20.593  -6.658  0.00  0.00     0.026 A 
HETATM   13  H   UNK N   1      31.319  21.470  -2.990  0.00  0.00     0.171 HD
ENDROOT
BRANCH   5  14
HETATM   14  C   UNK N   1      27.480  24.473  -4.569  0.00  0.00    -0.053 C 
HETATM   15  C   UNK N   1      26.448  24.921  -5.002  0.00  0.00    -0.098 C 
BRANCH  15  16
HETATM   16  C   UNK N   1      25.272  25.603  -5.534  0.00  0.00     0.065 A 
HETATM   17  C   UNK N   1      25.735  26.564  -6.614  0.00  0.00     0.018 A 
HETATM   18  C   UNK N   1      25.397  27.085  -5.236  0.00  0.00     0.018 A 
ENDBRANCH  15  16
ENDBRANCH   5  14
BRANCH   5  19
HETATM   19  C   UNK N   1      29.767  25.276  -4.644  0.00  0.00     0.435 C 
HETATM   20  F   UNK N   1      29.882  26.144  -3.571  0.00  0.00    -0.166 F 
HETATM   21  F   UNK N   1      31.033  24.825  -4.987  0.00  0.00    -0.166 F 
HETATM   22  F   UNK N   1      29.247  25.968  -5.723  0.00  0.00    -0.166 F 
ENDBRANCH   5  19
TORSDOF 3
ENDMDL
MODEL 3
REMARK VINA RESULT:      -6.3      9.929     11.702
REMARK  3 active torsions:
REMARK  status: ('A' for Active; 'I' for Inactive)
REMARK    1  A    between atoms: C_8  and  C_12 
REMARK    2  A    between atoms: C_11  and  C_14 
REMARK    3  A    between atoms: C_11  and  C_16 
ROOT
HETATM    1 Cl   UNK N   1      37.506  15.635  16.159  0.00  0.00    -0.084 Cl
HETATM    2  O   UNK N   1      34.328  10.419  14.364  0.00  0.00    -0.265 OA
HETATM    3  O   UNK N   1      33.428  10.019  12.354  0.00  0.00    -0.238 OA
HETATM    4  N   UNK N   1      34.692  11.848  12.522  0.00  0.00    -0.302 N 
HETATM    5  C   UNK N   1      35.411  10.902  15.094  0.00  0.00     0.261 C 
HETATM    6  C   UNK N   1      35.787  12.309  14.644  0.00  0.00     0.027 A 
HETATM    7  C   UNK N   1      35.437  12.718  13.350  0.00  0.00     0.047 A 
HETATM    8  C   UNK N   1      36.455  13.208  15.495  0.00  0.00     0.037 A 
HETATM    9  C   UNK N   1      35.776  13.999  12.901  0.00  0.00     0.032 A 
HETATM   10  C   UNK N   1      34.136  10.729  13.049  0.00  0.00     0.367 C 
HETATM   11  C   UNK N   1      36.758  14.498  15.059  0.00  0.00     0.034 A 
HETATM   12  C   UNK N   1      36.431  14.890  13.758  0.00  0.00     0.026 A 
HETATM   13  H   UNK N   1      34.578  12.052  11.566  0.00  0.00     0.171 HD
ENDROOT
BRANCH   5  14
HETATM   14  C   UNK N   1      35.114  10.925  16.535  0.00  0.00    -0.053 C 
HETATM   15  C   UNK N   1      35.081  10.795  17.733  0.00  0.00    -0.098 C 
BRANCH  15  16
HETATM   16  C   UNK N   1      35.055  10.482  19.159  0.00  0.00     0.065 A 
HETATM   17  C   UNK N   1      35.646  11.663  19.908  0.00  0.00     0.018 A 
HETATM   18  C   UNK N   1      36.483  10.428  19.667  0.00  0.00     0.018 A 
ENDBRANCH  15  16
ENDBRANCH   5  14
BRANCH   5  19
HETATM   19  C   UNK N   1      36.587   9.921  14.891  0.00  0.00     0.435 C 
HETATM   20  F   UNK N   1      37.275  10.204  13.724  0.00  0.00    -0.166 F 
HETATM   21  F   UNK N   1      37.465  10.022  15.960  0.00  0.00    -0.166 F 
HETATM   22  F   UNK N   1      36.127   8.618  14.831  0.00  0.00    -0.166 F 
ENDBRANCH   5  19
TORSDOF 3
ENDMDL
MODEL 4
REMARK VINA RESULT:      -6.2      3.600      5.505
REMARK  3 active torsions:
REMARK  status: ('A' for Active; 'I' for Inactive)
REMARK    1  A    between atoms: C_8  and  C_12 
REMARK    2  A    between atoms: C_11  and  C_14 
REMARK    3  A    between atoms: C_11  and  C_16 
ROOT
HETATM    1 Cl   UNK N   1      29.655  18.543   9.894  0.00  0.00    -0.084 Cl
HETATM    2  O   UNK N   1      30.753  17.141   3.782  0.00  0.00    -0.265 OA
HETATM    3  O   UNK N   1      32.709  16.545   2.870  0.00  0.00    -0.238 OA
HETATM    4  N   UNK N   1      32.665  16.700   5.094  0.00  0.00    -0.302 N 
HETATM    5  C   UNK N   1      29.860  17.009   4.841  0.00  0.00     0.261 C 
HETATM    6  C   UNK N   1      30.556  17.250   6.175  0.00  0.00     0.027 A 
HETATM    7  C   UNK N   1      31.942  17.052   6.257  0.00  0.00     0.047 A 
HETATM    8  C   UNK N   1      29.853  17.681   7.315  0.00  0.00     0.037 A 
HETATM    9  C   UNK N   1      32.611  17.254   7.468  0.00  0.00     0.032 A 
HETATM   10  C   UNK N   1      32.064  16.772   3.880  0.00  0.00     0.367 C 
HETATM   11  C   UNK N   1      30.528  17.919   8.512  0.00  0.00     0.034 A 
HETATM   12  C   UNK N   1      31.905  17.692   8.594  0.00  0.00     0.026 A 
HETATM   13  H   UNK N   1      33.600  16.403   5.165  0.00  0.00     0.171 HD
ENDROOT
BRANCH   5  14
HETATM   14  C   UNK N   1      28.738  17.953   4.711  0.00  0.00    -0.053 C 
HETATM   15  C   UNK N   1      27.987  18.863   4.465  0.00  0.00    -0.098 C 
BRANCH  15  16
HETATM   16  C   UNK N   1      27.192  20.061   4.216  0.00  0.00     0.065 A 
HETATM   17  C   UNK N   1      27.267  20.940   5.453  0.00  0.00     0.018 A 
HETATM   18  C   UNK N   1      26.041  20.092   5.204  0.00  0.00     0.018 A 
ENDBRANCH  15  16
ENDBRANCH   5  14
BRANCH   5  19
HETATM   19  C   UNK N   1      29.263  15.586   4.775  0.00  0.00     0.435 C 
HETATM   20  F   UNK N   1      27.963  15.569   5.251  0.00  0.00    -0.166 F 
HETATM   21  F   UNK N   1      29.259  15.145   3.459  0.00  0.00    -0.166 F 
HETATM   22  F   UNK N   1      30.023  14.705   5.523  0.00  0.00    -0.166 F 
ENDBRANCH   5  19
TORSDOF 3
ENDMDL
MODEL 5
REMARK VINA RESULT:      -6.1     10.216     11.905
REMARK  3 active torsions:
REMARK  status: ('A' for Active; 'I' for Inactive)
REMARK    1  A    between atoms: C_8  and  C_12 
REMARK    2  A    between atoms: C_11  and  C_14 
REMARK    3  A    between atoms: C_11  and  C_16 
ROOT
HETATM    1 Cl   UNK N   1      22.180  13.807   1.080  0.00  0.00    -0.084 Cl
HETATM    2  O   UNK N   1      21.770  19.389   4.116  0.00  0.00    -0.265 OA
HETATM    3  O   UNK N   1      20.216  20.972   3.813  0.00  0.00    -0.238 OA
HETATM    4  N   UNK N   1      19.875  19.041   2.752  0.00  0.00    -0.302 N 
HETATM    5  C   UNK N   1      22.058  18.034   4.251  0.00  0.00     0.261 C 
HETATM    6  C   UNK N   1      21.464  17.231   3.099  0.00  0.00     0.027 A 
HETATM    7  C   UNK N   1      20.363  17.759   2.409  0.00  0.00     0.047 A 
HETATM    8  C   UNK N   1      21.999  15.993   2.700  0.00  0.00     0.037 A 
HETATM    9  C   UNK N   1      19.786  17.045   1.354  0.00  0.00     0.032 A 
HETATM   10  C   UNK N   1      20.597  19.837   3.580  0.00  0.00     0.367 C 
HETATM   11  C   UNK N   1      21.446  15.301   1.623  0.00  0.00     0.034 A 
HETATM   12  C   UNK N   1      20.331  15.819   0.958  0.00  0.00     0.026 A 
HETATM   13  H   UNK N   1      19.015  19.354   2.393  0.00  0.00     0.171 HD
ENDROOT
BRANCH   5  14
HETATM   14  C   UNK N   1      23.511  17.800   4.295  0.00  0.00    -0.053 C 
HETATM   15  C   UNK N   1      24.714  17.855   4.253  0.00  0.00    -0.098 C 
BRANCH  15  16
HETATM   16  C   UNK N   1      26.155  17.980   4.056  0.00  0.00     0.065 A 
HETATM   17  C   UNK N   1      26.704  18.862   5.164  0.00  0.00     0.018 A 
HETATM   18  C   UNK N   1      26.481  19.436   3.783  0.00  0.00     0.018 A 
ENDBRANCH  15  16
ENDBRANCH   5  14
BRANCH   5  19
HETATM   19  C   UNK N   1      21.485  17.567   5.607  0.00  0.00     0.435 C 
HETATM   20  F   UNK N   1      21.376  18.625   6.493  0.00  0.00    -0.166 F 
HETATM   21  F   UNK N   1      20.224  17.019   5.414  0.00  0.00    -0.166 F 
HETATM   22  F   UNK N   1      22.295  16.597   6.169  0.00  0.00    -0.166 F 
ENDBRANCH   5  19
TORSDOF 3
ENDMDL
MODEL 6
REMARK VINA RESULT:      -6.0     15.895     17.269
REMARK  3 active torsions:
REMARK  status: ('A' for Active; 'I' for Inactive)
REMARK    1  A    between atoms: C_8  and  C_12 
REMARK    2  A    between atoms: C_11  and  C_14 
REMARK    3  A    between atoms: C_11  and  C_16 
ROOT
HETATM    1 Cl   UNK N   1      31.338  24.617  -4.384  0.00  0.00    -0.084 Cl
HETATM    2  O   UNK N   1      25.862  25.220  -7.577  0.00  0.00    -0.265 OA
HETATM    3  O   UNK N   1      24.728  23.595  -8.617  0.00  0.00    -0.238 OA
HETATM    4  N   UNK N   1      26.468  22.948  -7.384  0.00  0.00    -0.302 N 
HETATM    5  C   UNK N   1      26.579  25.621  -6.453  0.00  0.00     0.261 C 
HETATM    6  C   UNK N   1      27.701  24.637  -6.141  0.00  0.00     0.027 A 
HETATM    7  C   UNK N   1      27.584  23.316  -6.597  0.00  0.00     0.047 A 
HETATM    8  C   UNK N   1      28.852  25.022  -5.431  0.00  0.00     0.037 A 
HETATM    9  C   UNK N   1      28.590  22.385  -6.321  0.00  0.00     0.032 A 
HETATM   10  C   UNK N   1      25.644  23.907  -7.875  0.00  0.00     0.367 C 
HETATM   11  C   UNK N   1      29.872  24.101  -5.189  0.00  0.00     0.034 A 
HETATM   12  C   UNK N   1      29.736  22.779  -5.622  0.00  0.00     0.026 A 
HETATM   13  H   UNK N   1      26.290  21.999  -7.574  0.00  0.00     0.171 HD
ENDROOT
BRANCH   5  14
HETATM   14  C   UNK N   1      27.158  26.961  -6.640  0.00  0.00    -0.053 C 
HETATM   15  C   UNK N   1      27.586  28.083  -6.541  0.00  0.00    -0.098 C 
BRANCH  15  16
HETATM   16  C   UNK N   1      27.969  29.479  -6.347  0.00  0.00     0.065 A 
HETATM   17  C   UNK N   1      28.921  29.544  -5.166  0.00  0.00     0.018 A 
HETATM   18  C   UNK N   1      27.471  29.933  -4.989  0.00  0.00     0.018 A 
ENDBRANCH  15  16
ENDBRANCH   5  14
BRANCH   5  19
HETATM   19  C   UNK N   1      25.585  25.720  -5.275  0.00  0.00     0.435 C 
HETATM   20  F   UNK N   1      26.163  26.352  -4.187  0.00  0.00    -0.166 F 
HETATM   21  F   UNK N   1      24.469  26.445  -5.669  0.00  0.00    -0.166 F 
HETATM   22  F   UNK N   1      25.166  24.460  -4.886  0.00  0.00    -0.166 F 
ENDBRANCH   5  19
TORSDOF 3
ENDMDL
MODEL 7
REMARK VINA RESULT:      -6.0     15.002     16.100
REMARK  3 active torsions:
REMARK  status: ('A' for Active; 'I' for Inactive)
REMARK    1  A    between atoms: C_8  and  C_12 
REMARK    2  A    between atoms: C_11  and  C_14 
REMARK    3  A    between atoms: C_11  and  C_16 
ROOT
HETATM    1 Cl   UNK N   1      30.915  26.652  -8.327  0.00  0.00    -0.084 Cl
HETATM    2  O   UNK N   1      26.873  26.377  -3.415  0.00  0.00    -0.265 OA
HETATM    3  O   UNK N   1      25.377  27.931  -2.816  0.00  0.00    -0.238 OA
HETATM    4  N   UNK N   1      26.432  28.271  -4.751  0.00  0.00    -0.302 N 
HETATM    5  C   UNK N   1      27.472  25.654  -4.443  0.00  0.00     0.261 C 
HETATM    6  C   UNK N   1      28.005  26.585  -5.525  0.00  0.00     0.027 A 
HETATM    7  C   UNK N   1      27.435  27.859  -5.659  0.00  0.00     0.047 A 
HETATM    8  C   UNK N   1      29.061  26.209  -6.376  0.00  0.00     0.037 A 
HETATM    9  C   UNK N   1      27.893  28.735  -6.648  0.00  0.00     0.032 A 
HETATM   10  C   UNK N   1      26.187  27.535  -3.639  0.00  0.00     0.367 C 
HETATM   11  C   UNK N   1      29.541  27.098  -7.337  0.00  0.00     0.034 A 
HETATM   12  C   UNK N   1      28.949  28.357  -7.484  0.00  0.00     0.026 A 
HETATM   13  H   UNK N   1      25.913  29.089  -4.926  0.00  0.00     0.171 HD
ENDROOT
BRANCH   5  14
HETATM   14  C   UNK N   1      28.580  24.827  -3.937  0.00  0.00    -0.053 C 
HETATM   15  C   UNK N   1      29.301  24.032  -3.388  0.00  0.00    -0.098 C 
BRANCH  15  16
HETATM   16  C   UNK N   1      30.105  23.111  -2.590  0.00  0.00     0.065 A 
HETATM   17  C   UNK N   1      31.414  22.875  -3.323  0.00  0.00     0.018 A 
HETATM   18  C   UNK N   1      30.316  21.838  -3.387  0.00  0.00     0.018 A 
ENDBRANCH  15  16
ENDBRANCH   5  14
BRANCH   5  19
HETATM   19  C   UNK N   1      26.412  24.687  -5.014  0.00  0.00     0.435 C 
HETATM   20  F   UNK N   1      27.008  23.658  -5.722  0.00  0.00    -0.166 F 
HETATM   21  F   UNK N   1      25.674  24.141  -3.974  0.00  0.00    -0.166 F 
HETATM   22  F   UNK N   1      25.543  25.360  -5.853  0.00  0.00    -0.166 F 
ENDBRANCH   5  19
TORSDOF 3
ENDMDL
MODEL 8
REMARK VINA RESULT:      -5.8      2.835      4.958
REMARK  3 active torsions:
REMARK  status: ('A' for Active; 'I' for Inactive)
REMARK    1  A    between atoms: C_8  and  C_12 
REMARK    2  A    between atoms: C_11  and  C_14 
REMARK    3  A    between atoms: C_11  and  C_16 
ROOT
HETATM    1 Cl   UNK N   1      32.110  12.135   5.523  0.00  0.00    -0.084 Cl
HETATM    2  O   UNK N   1      33.595  16.995   9.359  0.00  0.00    -0.265 OA
HETATM    3  O   UNK N   1      35.326  17.110  10.773  0.00  0.00    -0.238 OA
HETATM    4  N   UNK N   1      35.287  15.350   9.404  0.00  0.00    -0.302 N 
HETATM    5  C   UNK N   1      33.128  16.637   8.097  0.00  0.00     0.261 C 
HETATM    6  C   UNK N   1      33.493  15.194   7.769  0.00  0.00     0.027 A 
HETATM    7  C   UNK N   1      34.590  14.613   8.420  0.00  0.00     0.047 A 
HETATM    8  C   UNK N   1      32.751  14.429   6.851  0.00  0.00     0.037 A 
HETATM    9  C   UNK N   1      34.960  13.294   8.135  0.00  0.00     0.032 A 
HETATM   10  C   UNK N   1      34.766  16.513   9.869  0.00  0.00     0.367 C 
HETATM   11  C   UNK N   1      33.097  13.102   6.597  0.00  0.00     0.034 A 
HETATM   12  C   UNK N   1      34.210  12.537   7.228  0.00  0.00     0.026 A 
HETATM   13  H   UNK N   1      36.147  15.022   9.751  0.00  0.00     0.171 HD
ENDROOT
BRANCH   5  14
HETATM   14  C   UNK N   1      31.667  16.792   8.007  0.00  0.00    -0.053 C 
HETATM   15  C   UNK N   1      30.498  17.045   8.156  0.00  0.00    -0.098 C 
BRANCH  15  16
HETATM   16  C   UNK N   1      29.097  17.294   8.483  0.00  0.00     0.065 A 
HETATM   17  C   UNK N   1      28.766  18.719   8.076  0.00  0.00     0.018 A 
HETATM   18  C   UNK N   1      29.032  18.391   9.528  0.00  0.00     0.018 A 
ENDBRANCH  15  16
ENDBRANCH   5  14
BRANCH   5  19
HETATM   19  C   UNK N   1      33.749  17.613   7.074  0.00  0.00     0.435 C 
HETATM   20  F   UNK N   1      34.911  17.092   6.532  0.00  0.00    -0.166 F 
HETATM   21  F   UNK N   1      32.846  17.847   6.047  0.00  0.00    -0.166 F 
HETATM   22  F   UNK N   1      34.042  18.824   7.675  0.00  0.00    -0.166 F 
ENDBRANCH   5  19
TORSDOF 3
ENDMDL
MODEL 9
REMARK VINA RESULT:      -5.8      2.902      4.702
REMARK  3 active torsions:
REMARK  status: ('A' for Active; 'I' for Inactive)
REMARK    1  A    between atoms: C_8  and  C_12 
REMARK    2  A    between atoms: C_11  and  C_14 
REMARK    3  A    between atoms: C_11  and  C_16 
ROOT
HETATM    1 Cl   UNK N   1      29.372  18.695   9.807  0.00  0.00    -0.084 Cl
HETATM    2  O   UNK N   1      32.930  14.775   6.270  0.00  0.00    -0.265 OA
HETATM    3  O   UNK N   1      32.261  13.588   4.494  0.00  0.00    -0.238 OA
HETATM    4  N   UNK N   1      30.791  15.052   5.312  0.00  0.00    -0.302 N 
HETATM    5  C   UNK N   1      32.902  15.987   6.954  0.00  0.00     0.261 C 
HETATM    6  C   UNK N   1      31.468  16.452   7.183  0.00  0.00     0.027 A 
HETATM    7  C   UNK N   1      30.464  15.985   6.322  0.00  0.00     0.047 A 
HETATM    8  C   UNK N   1      31.124  17.315   8.239  0.00  0.00     0.037 A 
HETATM    9  C   UNK N   1      29.139  16.399   6.496  0.00  0.00     0.032 A 
HETATM   10  C   UNK N   1      32.008  14.451   5.318  0.00  0.00     0.367 C 
HETATM   11  C   UNK N   1      29.797  17.696   8.434  0.00  0.00     0.034 A 
HETATM   12  C   UNK N   1      28.806  17.250   7.556  0.00  0.00     0.026 A 
HETATM   13  H   UNK N   1      30.140  14.840   4.605  0.00  0.00     0.171 HD
ENDROOT
BRANCH   5  14
HETATM   14  C   UNK N   1      33.582  15.880   8.256  0.00  0.00    -0.053 C 
HETATM   15  C   UNK N   1      34.151  15.542   9.262  0.00  0.00    -0.098 C 
BRANCH  15  16
HETATM   16  C   UNK N   1      34.731  15.020  10.496  0.00  0.00     0.065 A 
HETATM   17  C   UNK N   1      35.438  16.164  11.202  0.00  0.00     0.018 A 
HETATM   18  C   UNK N   1      36.240  15.154  10.415  0.00  0.00     0.018 A 
ENDBRANCH  15  16
ENDBRANCH   5  14
BRANCH   5  19
HETATM   19  C   UNK N   1      33.692  17.016   6.115  0.00  0.00     0.435 C 
HETATM   20  F   UNK N   1      34.622  16.388   5.304  0.00  0.00    -0.166 F 
HETATM   21  F   UNK N   1      32.815  17.731   5.312  0.00  0.00    -0.166 F 
HETATM   22  F   UNK N   1      34.351  17.911   6.939  0.00  0.00    -0.166 F 
ENDBRANCH   5  19
TORSDOF 3
ENDMDL
