MODEL 1
REMARK VINA RESULT:      -4.6      0.000      0.000
REMARK  2 active torsions:
REMARK  status: ('A' for Active; 'I' for Inactive)
REMARK    1  A    between atoms: O_1  and  C_10 
REMARK    2  A    between atoms: C_5  and  C_10 
ROOT
HETATM    1  N   UNK N   1      21.829  11.683  11.801  0.00  0.00    -0.374 N 
ATOM      2  HN  UNK N   1      21.686  11.024  12.567  1.00  0.00     0.164 HD
HETATM    3  C   UNK N   1      23.316  12.822  10.307  0.00  0.00     0.053 A 
HETATM    4  C   UNK N   1      22.217  13.467   9.727  0.00  0.00     0.021 A 
HETATM    5  C   UNK N   1      23.093  11.922  11.357  0.00  0.00     0.105 A 
HETATM    6  C   UNK N   1      20.929  13.207  10.197  0.00  0.00     0.018 A 
HETATM    7  C   UNK N   1      20.754  12.302  11.246  0.00  0.00     0.087 A 
ENDROOT
BRANCH   3   8
HETATM    8  C   UNK N   1      24.683  13.088   9.819  0.00  0.00     0.177 C 
HETATM    9  O   UNK N   1      24.931  13.043   8.625  0.00  0.00    -0.646 OA
BRANCH   8  10
HETATM   10  O   UNK N   1      25.668  13.383  10.690  0.00  0.00    -0.773 OA
HETATM   11  H   UNK N   1      26.521  13.609  10.374  0.00  0.00     0.167 HD
ENDBRANCH   8  10
ENDBRANCH   3   8
TORSDOF 2
ENDMDL
MODEL 2
REMARK VINA RESULT:      -4.4     10.930     11.892
REMARK  2 active torsions:
REMARK  status: ('A' for Active; 'I' for Inactive)
REMARK    1  A    between atoms: O_1  and  C_10 
REMARK    2  A    between atoms: C_5  and  C_10 
ROOT
HETATM    1  N   UNK N   1      31.197  17.273   7.432  0.00  0.00    -0.374 N 
ATOM      2  HN  UNK N   1      30.263  17.140   7.821  1.00  0.00     0.164 HD
HETATM    3  C   UNK N   1      33.510  17.814   7.749  0.00  0.00     0.053 A 
HETATM    4  C   UNK N   1      33.725  17.634   6.378  0.00  0.00     0.021 A 
HETATM    5  C   UNK N   1      32.219  17.625   8.260  0.00  0.00     0.105 A 
HETATM    6  C   UNK N   1      32.665  17.274   5.546  0.00  0.00     0.018 A 
HETATM    7  C   UNK N   1      31.394  17.096   6.098  0.00  0.00     0.087 A 
ENDROOT
BRANCH   3   8
HETATM    8  C   UNK N   1      34.624  18.195   8.639  0.00  0.00     0.177 C 
HETATM    9  O   UNK N   1      35.303  19.178   8.391  0.00  0.00    -0.646 OA
BRANCH   8  10
HETATM   10  O   UNK N   1      34.899  17.458   9.734  0.00  0.00    -0.773 OA
HETATM   11  H   UNK N   1      34.803  16.527   9.709  0.00  0.00     0.167 HD
ENDBRANCH   8  10
ENDBRANCH   3   8
TORSDOF 2
ENDMDL
MODEL 3
REMARK VINA RESULT:      -4.3      2.571      3.546
REMARK  2 active torsions:
REMARK  status: ('A' for Active; 'I' for Inactive)
REMARK    1  A    between atoms: O_1  and  C_10 
REMARK    2  A    between atoms: C_5  and  C_10 
ROOT
HETATM    1  N   UNK N   1      22.155  11.710  11.914  0.00  0.00    -0.374 N 
ATOM      2  HN  UNK N   1      21.937  11.135  12.728  1.00  0.00     0.164 HD
HETATM    3  C   UNK N   1      21.417  13.098  10.107  0.00  0.00     0.053 A 
HETATM    4  C   UNK N   1      22.749  13.267   9.710  0.00  0.00     0.021 A 
HETATM    5  C   UNK N   1      21.142  12.304  11.227  0.00  0.00     0.105 A 
HETATM    6  C   UNK N   1      23.773  12.649  10.428  0.00  0.00     0.018 A 
HETATM    7  C   UNK N   1      23.453  11.866  11.539  0.00  0.00     0.087 A 
ENDROOT
BRANCH   3   8
HETATM    8  C   UNK N   1      20.324  13.746   9.356  0.00  0.00     0.177 C 
HETATM    9  O   UNK N   1      19.351  14.190   9.943  0.00  0.00    -0.646 OA
BRANCH   8  10
HETATM   10  O   UNK N   1      20.394  13.853   8.014  0.00  0.00    -0.773 OA
HETATM   11  H   UNK N   1      19.658  13.614   7.486  0.00  0.00     0.167 HD
ENDBRANCH   8  10
ENDBRANCH   3   8
TORSDOF 2
ENDMDL
MODEL 4
REMARK VINA RESULT:      -4.3      9.534     10.367
REMARK  2 active torsions:
REMARK  status: ('A' for Active; 'I' for Inactive)
REMARK    1  A    between atoms: O_1  and  C_10 
REMARK    2  A    between atoms: C_5  and  C_10 
ROOT
HETATM    1  N   UNK N   1      19.213  17.657   3.098  0.00  0.00    -0.374 N 
ATOM      2  HN  UNK N   1      18.277  17.287   2.932  1.00  0.00     0.164 HD
HETATM    3  C   UNK N   1      20.886  19.317   2.665  0.00  0.00     0.053 A 
HETATM    4  C   UNK N   1      21.749  18.659   3.549  0.00  0.00     0.021 A 
HETATM    5  C   UNK N   1      19.605  18.790   2.453  0.00  0.00     0.105 A 
HETATM    6  C   UNK N   1      21.328  17.499   4.200  0.00  0.00     0.018 A 
HETATM    7  C   UNK N   1      20.043  17.009   3.959  0.00  0.00     0.087 A 
ENDROOT
BRANCH   3   8
HETATM    8  C   UNK N   1      21.320  20.545   1.970  0.00  0.00     0.177 C 
HETATM    9  O   UNK N   1      21.354  20.584   0.751  0.00  0.00    -0.646 OA
BRANCH   8  10
HETATM   10  O   UNK N   1      21.682  21.633   2.679  0.00  0.00    -0.773 OA
HETATM   11  H   UNK N   1      22.337  21.562   3.345  0.00  0.00     0.167 HD
ENDBRANCH   8  10
ENDBRANCH   3   8
TORSDOF 2
ENDMDL
MODEL 5
REMARK VINA RESULT:      -4.3      2.652      3.514
REMARK  2 active torsions:
REMARK  status: ('A' for Active; 'I' for Inactive)
REMARK    1  A    between atoms: O_1  and  C_10 
REMARK    2  A    between atoms: C_5  and  C_10 
ROOT
HETATM    1  N   UNK N   1      24.033  12.768  10.620  0.00  0.00    -0.374 N 
ATOM      2  HN  UNK N   1      25.002  12.959  10.362  1.00  0.00     0.164 HD
HETATM    3  C   UNK N   1      21.691  12.999  10.171  0.00  0.00     0.053 A 
HETATM    4  C   UNK N   1      21.411  12.250  11.320  0.00  0.00     0.021 A 
HETATM    5  C   UNK N   1      23.029  13.248   9.837  0.00  0.00     0.105 A 
HETATM    6  C   UNK N   1      22.455  11.768  12.109  0.00  0.00     0.018 A 
HETATM    7  C   UNK N   1      23.774  12.040  11.739  0.00  0.00     0.087 A 
ENDROOT
BRANCH   3   8
HETATM    8  C   UNK N   1      20.596  13.515   9.328  0.00  0.00     0.177 C 
HETATM    9  O   UNK N   1      20.669  13.447   8.111  0.00  0.00    -0.646 OA
BRANCH   8  10
HETATM   10  O   UNK N   1      19.505  14.066   9.896  0.00  0.00    -0.773 OA
HETATM   11  H   UNK N   1      19.228  14.925   9.643  0.00  0.00     0.167 HD
ENDBRANCH   8  10
ENDBRANCH   3   8
TORSDOF 2
ENDMDL
MODEL 6
REMARK VINA RESULT:      -4.2      2.065      2.773
REMARK  2 active torsions:
REMARK  status: ('A' for Active; 'I' for Inactive)
REMARK    1  A    between atoms: O_1  and  C_10 
REMARK    2  A    between atoms: C_5  and  C_10 
ROOT
HETATM    1  N   UNK N   1      20.943  12.918   9.444  0.00  0.00    -0.374 N 
ATOM      2  HN  UNK N   1      20.004  13.317   9.443  1.00  0.00     0.164 HD
HETATM    3  C   UNK N   1      22.887  12.210  10.652  0.00  0.00     0.053 A 
HETATM    4  C   UNK N   1      23.486  11.837   9.443  0.00  0.00     0.021 A 
HETATM    5  C   UNK N   1      21.597  12.756  10.626  0.00  0.00     0.105 A 
HETATM    6  C   UNK N   1      22.799  12.011   8.242  0.00  0.00     0.018 A 
HETATM    7  C   UNK N   1      21.515  12.559   8.262  0.00  0.00     0.087 A 
ENDROOT
BRANCH   3   8
HETATM    8  C   UNK N   1      23.604  12.031  11.929  0.00  0.00     0.177 C 
HETATM    9  O   UNK N   1      22.987  11.789  12.955  0.00  0.00    -0.646 OA
BRANCH   8  10
HETATM   10  O   UNK N   1      24.947  12.133  11.973  0.00  0.00    -0.773 OA
HETATM   11  H   UNK N   1      25.348  12.884  12.364  0.00  0.00     0.167 HD
ENDBRANCH   8  10
ENDBRANCH   3   8
TORSDOF 2
ENDMDL
MODEL 7
REMARK VINA RESULT:      -4.1     13.291     14.236
REMARK  2 active torsions:
REMARK  status: ('A' for Active; 'I' for Inactive)
REMARK    1  A    between atoms: O_1  and  C_10 
REMARK    2  A    between atoms: C_5  and  C_10 
ROOT
HETATM    1  N   UNK N   1      35.258  13.606  19.247  0.00  0.00    -0.374 N 
ATOM      2  HN  UNK N   1      35.228  14.386  19.904  1.00  0.00     0.164 HD
HETATM    3  C   UNK N   1      35.229  12.804  16.989  0.00  0.00     0.053 A 
HETATM    4  C   UNK N   1      35.339  11.493  17.468  0.00  0.00     0.021 A 
HETATM    5  C   UNK N   1      35.190  13.858  17.911  0.00  0.00     0.105 A 
HETATM    6  C   UNK N   1      35.407  11.256  18.841  0.00  0.00     0.018 A 
HETATM    7  C   UNK N   1      35.365  12.337  19.724  0.00  0.00     0.087 A 
ENDROOT
BRANCH   3   8
HETATM    8  C   UNK N   1      35.155  13.068  15.539  0.00  0.00     0.177 C 
HETATM    9  O   UNK N   1      34.233  12.621  14.877  0.00  0.00    -0.646 OA
BRANCH   8  10
HETATM   10  O   UNK N   1      36.108  13.806  14.935  0.00  0.00    -0.773 OA
HETATM   11  H   UNK N   1      36.905  14.003  15.387  0.00  0.00     0.167 HD
ENDBRANCH   8  10
ENDBRANCH   3   8
TORSDOF 2
ENDMDL
MODEL 8
REMARK VINA RESULT:      -4.0     21.485     22.201
REMARK  2 active torsions:
REMARK  status: ('A' for Active; 'I' for Inactive)
REMARK    1  A    between atoms: O_1  and  C_10 
REMARK    2  A    between atoms: C_5  and  C_10 
ROOT
HETATM    1  N   UNK N   1      27.616  27.446  -6.908  0.00  0.00    -0.374 N 
ATOM      2  HN  UNK N   1      28.517  27.598  -7.362  1.00  0.00     0.164 HD
HETATM    3  C   UNK N   1      26.128  27.862  -5.077  0.00  0.00     0.053 A 
HETATM    4  C   UNK N   1      25.176  27.033  -5.681  0.00  0.00     0.021 A 
HETATM    5  C   UNK N   1      27.359  28.056  -5.720  0.00  0.00     0.105 A 
HETATM    6  C   UNK N   1      25.460  26.417  -6.900  0.00  0.00     0.018 A 
HETATM    7  C   UNK N   1      26.699  26.638  -7.505  0.00  0.00     0.087 A 
ENDROOT
BRANCH   3   8
HETATM    8  C   UNK N   1      25.840  28.520  -3.788  0.00  0.00     0.177 C 
HETATM    9  O   UNK N   1      25.511  27.856  -2.818  0.00  0.00    -0.646 OA
BRANCH   8  10
HETATM   10  O   UNK N   1      25.937  29.859  -3.673  0.00  0.00    -0.773 OA
HETATM   11  H   UNK N   1      26.771  30.277  -3.758  0.00  0.00     0.167 HD
ENDBRANCH   8  10
ENDBRANCH   3   8
TORSDOF 2
ENDMDL
MODEL 9
REMARK VINA RESULT:      -3.9     10.698     11.665
REMARK  2 active torsions:
REMARK  status: ('A' for Active; 'I' for Inactive)
REMARK    1  A    between atoms: O_1  and  C_10 
REMARK    2  A    between atoms: C_5  and  C_10 
ROOT
HETATM    1  N   UNK N   1      31.206  17.668   3.860  0.00  0.00    -0.374 N 
ATOM      2  HN  UNK N   1      31.059  17.884   2.873  1.00  0.00     0.164 HD
HETATM    3  C   UNK N   1      32.703  17.305   5.695  0.00  0.00     0.053 A 
HETATM    4  C   UNK N   1      31.603  17.082   6.530  0.00  0.00     0.021 A 
HETATM    5  C   UNK N   1      32.476  17.601   4.344  0.00  0.00     0.105 A 
HETATM    6  C   UNK N   1      30.309  17.155   6.014  0.00  0.00     0.018 A 
HETATM    7  C   UNK N   1      30.129  17.452   4.661  0.00  0.00     0.087 A 
ENDROOT
BRANCH   3   8
HETATM    8  C   UNK N   1      34.076  17.231   6.230  0.00  0.00     0.177 C 
HETATM    9  O   UNK N   1      34.810  16.307   5.918  0.00  0.00    -0.646 OA
BRANCH   8  10
HETATM   10  O   UNK N   1      34.531  18.185   7.067  0.00  0.00    -0.773 OA
HETATM   11  H   UNK N   1      34.569  18.019   7.989  0.00  0.00     0.167 HD
ENDBRANCH   8  10
ENDBRANCH   3   8
TORSDOF 2
ENDMDL
