REMARK  2 active torsions:
REMARK  status: ('A' for Active; 'I' for Inactive)
REMARK    1  A    between atoms: O_1  and  C_10 
REMARK    2  A    between atoms: C_5  and  C_10 
ROOT
HETATM    1  N   UNK N   1       1.191  -1.833  -0.000  0.00  0.00    -0.374 N 
ATOM      2  HN  UNK N   1       0.329  -2.379  -0.000  1.00  0.00     0.164 HD
HETATM    3  C   UNK N   1       2.288   0.297   0.000  0.00  0.00     0.053 A 
HETATM    4  C   UNK N   1       3.526  -0.356   0.000  0.00  0.00     0.021 A 
HETATM    5  C   UNK N   1       1.118  -0.474  -0.000  0.00  0.00     0.105 A 
HETATM    6  C   UNK N   1       3.579  -1.750   0.000  0.00  0.00     0.018 A 
HETATM    7  C   UNK N   1       2.388  -2.479  -0.000  0.00  0.00     0.087 A 
ENDROOT
BRANCH   3   8
HETATM    8  C   UNK N   1       2.219   1.771   0.000  0.00  0.00     0.177 C 
HETATM    9  O   UNK N   1       1.138   2.338  -0.000  0.00  0.00    -0.646 OA
BRANCH   8  10
HETATM   10  O   UNK N   1       3.351   2.503   0.000  0.00  0.00    -0.773 OA
HETATM   11  H   UNK N   1       4.185   2.076   0.000  0.00  0.00     0.167 HD
ENDBRANCH   8  10
ENDBRANCH   3   8
TORSDOF 2
